MODEL 1
REMARK VINA RESULT:      -7.9      0.000      0.000
REMARK  Name = 338097
REMARK  10 active torsions:
REMARK  status: ('A' for Active; 'I' for Inactive)
REMARK    1  A    between atoms: C_6  and  C_10
REMARK    2  A    between atoms: C_14  and  O_18
REMARK    3  A    between atoms: N_17  and  C_21
REMARK    4  A    between atoms: C_21  and  C_24
REMARK    5  A    between atoms: C_24  and  C_27
REMARK    6  A    between atoms: C_25  and  O_28
REMARK    7  A    between atoms: C_27  and  C_29
REMARK    8  A    between atoms: C_27  and  C_30
REMARK    9  A    between atoms: O_28  and  C_31
REMARK   10  A    between atoms: C_31  and  C_32
REMARK                            x       y       z     vdW  Elec       q    Type
REMARK                         _______ _______ _______ _____ _____    ______ ____
ROOT
ATOM      1  C   UNL     1     -10.737  54.261  48.609  0.00  0.00    +0.000 A 
ATOM      2  C   UNL     1     -10.219  53.898  49.964  0.00  0.00    +0.000 A 
ATOM      3  C   UNL     1     -11.795  55.080  48.490  0.00  0.00    +0.000 A 
ATOM      4  O   UNL     1      -9.175  53.242  50.033  0.00  0.00    +0.000 OA
ATOM      5  N   UNL     1     -10.917  54.330  51.086  0.00  0.00    +0.000 N 
ATOM      6  C   UNL     1     -12.444  55.634  49.688  0.00  0.00    +0.000 A 
ATOM      7  C   UNL     1     -11.986  55.269  50.964  0.00  0.00    +0.000 A 
ATOM      8  C   UNL     1     -13.505  56.550  49.570  0.00  0.00    +0.000 A 
ATOM      9  C   UNL     1     -12.573  55.873  52.083  0.00  0.00    +0.000 A 
ATOM     10  C   UNL     1     -14.113  57.102  50.696  0.00  0.00    +0.000 A 
ATOM     11  C   UNL     1     -13.634  56.770  51.955  0.00  0.00    +0.000 A 
ENDROOT
BRANCH   1  17
ATOM     12  S   UNL     1      -7.917  53.756  45.918  0.00  0.00    +0.000 S 
ATOM     13  O   UNL     1      -6.889  52.826  46.339  0.00  0.00    +0.000 OA
ATOM     14  O   UNL     1      -7.561  54.976  45.218  0.00  0.00    +0.000 OA
ATOM     15  N   UNL     1      -8.779  54.167  47.228  0.00  0.00    +0.000 N 
ATOM     16  C   UNL     1      -8.963  52.864  44.825  0.00  0.00    +0.000 A 
ATOM     17  C   UNL     1     -10.002  53.753  47.383  0.00  0.00    +0.000 C 
ATOM     18  C   UNL     1     -10.241  52.556  45.261  0.00  0.00    +0.000 A 
ATOM     19  C   UNL     1      -8.507  52.500  43.555  0.00  0.00    +0.000 A 
ATOM     20  N   UNL     1     -10.680  52.911  46.533  0.00  0.00    +0.000 N 
ATOM     21  C   UNL     1     -11.064  51.800  44.419  0.00  0.00    +0.000 A 
ATOM     22  C   UNL     1      -9.347  51.777  42.712  0.00  0.00    +0.000 A 
ATOM     23  C   UNL     1     -10.624  51.419  43.150  0.00  0.00    +0.000 A 
ATOM     24  H   UNL     1      -8.369  54.739  47.916  0.00  0.00    +0.000 HD
ATOM     25  H   UNL     1     -11.535  52.534  46.845  0.00  0.00    +0.000 HD
ENDBRANCH   1  17
BRANCH   3  26
ATOM     26  O   UNL     1     -12.324  55.509  47.285  0.00  0.00    +0.000 OA
ATOM     27  H   UNL     1     -11.890  56.181  46.796  0.00  0.00    +0.000 HD
ENDBRANCH   3  26
BRANCH   5  28
ATOM     28  C   UNL     1     -10.421  53.909  52.404  0.00  0.00    +0.000 C 
BRANCH  28  29
ATOM     29  C   UNL     1      -9.589  54.949  53.174  0.00  0.00    +0.000 C 
BRANCH  29  30
ATOM     30  C   UNL     1      -8.080  54.978  52.886  0.00  0.00    +0.000 C 
ATOM     31  C   UNL     1      -7.713  55.987  51.801  0.00  0.00    +0.000 C 
ATOM     32  C   UNL     1      -7.341  55.323  54.187  0.00  0.00    +0.000 C 
ENDBRANCH  29  30
ENDBRANCH  28  29
ENDBRANCH   5  28
BRANCH  10  33
ATOM     33  O   UNL     1     -15.110  58.000  50.448  0.00  0.00    +0.000 OA
BRANCH  33  34
ATOM     34  C   UNL     1     -14.941  59.294  51.034  0.00  0.00    +0.000 C 
BRANCH  34  35
ATOM     35  C   UNL     1     -13.931  60.050  50.285  0.00  0.00    +0.000 C 
ATOM     36  N   UNL     1     -13.106  60.626  49.701  0.00  0.00    +0.000 NA
ENDBRANCH  34  35
ENDBRANCH  33  34
ENDBRANCH  10  33
TORSDOF 8
ENDMDL
MODEL 2
REMARK VINA RESULT:      -7.8      3.150      8.281
REMARK  Name = 338097
REMARK  10 active torsions:
REMARK  status: ('A' for Active; 'I' for Inactive)
REMARK    1  A    between atoms: C_6  and  C_10
REMARK    2  A    between atoms: C_14  and  O_18
REMARK    3  A    between atoms: N_17  and  C_21
REMARK    4  A    between atoms: C_21  and  C_24
REMARK    5  A    between atoms: C_24  and  C_27
REMARK    6  A    between atoms: C_25  and  O_28
REMARK    7  A    between atoms: C_27  and  C_29
REMARK    8  A    between atoms: C_27  and  C_30
REMARK    9  A    between atoms: O_28  and  C_31
REMARK   10  A    between atoms: C_31  and  C_32
REMARK                            x       y       z     vdW  Elec       q    Type
REMARK                         _______ _______ _______ _____ _____    ______ ____
ROOT
ATOM      1  C   UNL     1     -12.233  54.250  50.331  0.00  0.00    +0.000 A 
ATOM      2  C   UNL     1     -11.991  53.793  48.927  0.00  0.00    +0.000 A 
ATOM      3  C   UNL     1     -11.632  53.622  51.355  0.00  0.00    +0.000 A 
ATOM      4  O   UNL     1     -12.463  54.467  48.006  0.00  0.00    +0.000 OA
ATOM      5  N   UNL     1     -11.232  52.648  48.716  0.00  0.00    +0.000 N 
ATOM      6  C   UNL     1     -10.726  52.491  51.106  0.00  0.00    +0.000 A 
ATOM      7  C   UNL     1     -10.523  52.034  49.793  0.00  0.00    +0.000 A 
ATOM      8  C   UNL     1     -10.037  51.876  52.166  0.00  0.00    +0.000 A 
ATOM      9  C   UNL     1      -9.596  51.006  49.580  0.00  0.00    +0.000 A 
ATOM     10  C   UNL     1      -9.157  50.820  51.941  0.00  0.00    +0.000 A 
ATOM     11  C   UNL     1      -8.928  50.394  50.641  0.00  0.00    +0.000 A 
ENDROOT
BRANCH   1  17
ATOM     12  S   UNL     1     -15.301  56.485  51.348  0.00  0.00    +0.000 S 
ATOM     13  O   UNL     1     -15.365  56.750  52.772  0.00  0.00    +0.000 OA
ATOM     14  O   UNL     1     -16.508  56.184  50.603  0.00  0.00    +0.000 OA
ATOM     15  N   UNL     1     -14.256  55.268  51.118  0.00  0.00    +0.000 N 
ATOM     16  C   UNL     1     -14.633  57.935  50.613  0.00  0.00    +0.000 A 
ATOM     17  C   UNL     1     -13.098  55.474  50.565  0.00  0.00    +0.000 C 
ATOM     18  C   UNL     1     -13.353  57.862  50.091  0.00  0.00    +0.000 A 
ATOM     19  C   UNL     1     -15.392  59.107  50.552  0.00  0.00    +0.000 A 
ATOM     20  N   UNL     1     -12.600  56.695  50.169  0.00  0.00    +0.000 N 
ATOM     21  C   UNL     1     -12.792  59.025  49.550  0.00  0.00    +0.000 A 
ATOM     22  C   UNL     1     -14.836  60.248  49.981  0.00  0.00    +0.000 A 
ATOM     23  C   UNL     1     -13.530  60.209  49.488  0.00  0.00    +0.000 A 
ATOM     24  H   UNL     1     -14.504  54.359  51.401  0.00  0.00    +0.000 HD
ATOM     25  H   UNL     1     -11.648  56.745  49.923  0.00  0.00    +0.000 HD
ENDBRANCH   1  17
BRANCH   3  26
ATOM     26  O   UNL     1     -11.756  53.992  52.683  0.00  0.00    +0.000 OA
ATOM     27  H   UNL     1     -12.203  54.785  52.909  0.00  0.00    +0.000 HD
ENDBRANCH   3  26
BRANCH   5  28
ATOM     28  C   UNL     1     -11.060  52.187  47.332  0.00  0.00    +0.000 C 
BRANCH  28  29
ATOM     29  C   UNL     1      -9.789  52.671  46.613  0.00  0.00    +0.000 C 
BRANCH  29  30
ATOM     30  C   UNL     1      -9.987  53.621  45.421  0.00  0.00    +0.000 C 
ATOM     31  C   UNL     1      -8.874  53.493  44.384  0.00  0.00    +0.000 C 
ATOM     32  C   UNL     1     -11.342  53.312  44.770  0.00  0.00    +0.000 C 
ENDBRANCH  29  30
ENDBRANCH  28  29
ENDBRANCH   5  28
BRANCH  10  33
ATOM     33  O   UNL     1      -8.528  50.329  53.049  0.00  0.00    +0.000 OA
BRANCH  33  34
ATOM     34  C   UNL     1      -8.354  51.254  54.125  0.00  0.00    +0.000 C 
BRANCH  34  35
ATOM     35  C   UNL     1      -8.457  50.547  55.407  0.00  0.00    +0.000 C 
ATOM     36  N   UNL     1      -8.516  49.963  56.412  0.00  0.00    +0.000 NA
ENDBRANCH  34  35
ENDBRANCH  33  34
ENDBRANCH  10  33
TORSDOF 8
ENDMDL
MODEL 3
REMARK VINA RESULT:      -7.8      2.768      6.481
REMARK  Name = 338097
REMARK  10 active torsions:
REMARK  status: ('A' for Active; 'I' for Inactive)
REMARK    1  A    between atoms: C_6  and  C_10
REMARK    2  A    between atoms: C_14  and  O_18
REMARK    3  A    between atoms: N_17  and  C_21
REMARK    4  A    between atoms: C_21  and  C_24
REMARK    5  A    between atoms: C_24  and  C_27
REMARK    6  A    between atoms: C_25  and  O_28
REMARK    7  A    between atoms: C_27  and  C_29
REMARK    8  A    between atoms: C_27  and  C_30
REMARK    9  A    between atoms: O_28  and  C_31
REMARK   10  A    between atoms: C_31  and  C_32
REMARK                            x       y       z     vdW  Elec       q    Type
REMARK                         _______ _______ _______ _____ _____    ______ ____
ROOT
ATOM      1  C   UNL     1      -9.678  54.938  50.920  0.00  0.00    +0.000 A 
ATOM      2  C   UNL     1      -9.264  54.810  49.488  0.00  0.00    +0.000 A 
ATOM      3  C   UNL     1     -10.870  55.476  51.229  0.00  0.00    +0.000 A 
ATOM      4  O   UNL     1      -8.218  54.203  49.236  0.00  0.00    +0.000 OA
ATOM      5  N   UNL     1     -10.077  55.358  48.503  0.00  0.00    +0.000 N 
ATOM      6  C   UNL     1     -11.778  55.933  50.166  0.00  0.00    +0.000 A 
ATOM      7  C   UNL     1     -11.379  55.850  48.822  0.00  0.00    +0.000 A 
ATOM      8  C   UNL     1     -13.056  56.430  50.479  0.00  0.00    +0.000 A 
ATOM      9  C   UNL     1     -12.296  56.220  47.829  0.00  0.00    +0.000 A 
ATOM     10  C   UNL     1     -13.936  56.843  49.481  0.00  0.00    +0.000 A 
ATOM     11  C   UNL     1     -13.556  56.725  48.152  0.00  0.00    +0.000 A 
ENDROOT
BRANCH   1  17
ATOM     12  S   UNL     1      -6.477  54.291  53.105  0.00  0.00    +0.000 S 
ATOM     13  O   UNL     1      -6.258  55.313  54.110  0.00  0.00    +0.000 OA
ATOM     14  O   UNL     1      -5.362  53.751  52.352  0.00  0.00    +0.000 OA
ATOM     15  N   UNL     1      -7.564  54.862  52.047  0.00  0.00    +0.000 N 
ATOM     16  C   UNL     1      -7.191  52.925  53.949  0.00  0.00    +0.000 A 
ATOM     17  C   UNL     1      -8.770  54.380  51.998  0.00  0.00    +0.000 C 
ATOM     18  C   UNL     1      -8.521  52.634  53.696  0.00  0.00    +0.000 A 
ATOM     19  C   UNL     1      -6.420  52.161  54.830  0.00  0.00    +0.000 A 
ATOM     20  N   UNL     1      -9.283  53.409  52.828  0.00  0.00    +0.000 N 
ATOM     21  C   UNL     1      -9.114  51.580  54.402  0.00  0.00    +0.000 A 
ATOM     22  C   UNL     1      -7.012  51.094  55.501  0.00  0.00    +0.000 A 
ATOM     23  C   UNL     1      -8.364  50.811  55.293  0.00  0.00    +0.000 A 
ATOM     24  H   UNL     1      -7.305  55.586  51.432  0.00  0.00    +0.000 HD
ATOM     25  H   UNL     1     -10.255  53.251  52.805  0.00  0.00    +0.000 HD
ENDBRANCH   1  17
BRANCH   3  26
ATOM     26  O   UNL     1     -11.363  55.601  52.516  0.00  0.00    +0.000 OA
ATOM     27  H   UNL     1     -12.140  56.102  52.673  0.00  0.00    +0.000 HD
ENDBRANCH   3  26
BRANCH   5  28
ATOM     28  C   UNL     1      -9.617  55.271  47.110  0.00  0.00    +0.000 C 
BRANCH  28  29
ATOM     29  C   UNL     1      -9.790  53.904  46.427  0.00  0.00    +0.000 C 
BRANCH  29  30
ATOM     30  C   UNL     1     -11.155  53.622  45.779  0.00  0.00    +0.000 C 
ATOM     31  C   UNL     1     -11.023  53.007  44.388  0.00  0.00    +0.000 C 
ATOM     32  C   UNL     1     -11.944  52.675  46.694  0.00  0.00    +0.000 C 
ENDBRANCH  29  30
ENDBRANCH  28  29
ENDBRANCH   5  28
BRANCH  10  33
ATOM     33  O   UNL     1     -15.156  57.276  49.912  0.00  0.00    +0.000 OA
BRANCH  33  34
ATOM     34  C   UNL     1     -15.139  58.384  50.816  0.00  0.00    +0.000 C 
BRANCH  34  35
ATOM     35  C   UNL     1     -14.623  59.575  50.131  0.00  0.00    +0.000 C 
ATOM     36  N   UNL     1     -14.182  60.505  49.589  0.00  0.00    +0.000 NA
ENDBRANCH  34  35
ENDBRANCH  33  34
ENDBRANCH  10  33
TORSDOF 8
ENDMDL
MODEL 4
REMARK VINA RESULT:      -7.7      2.543      7.841
REMARK  Name = 338097
REMARK  10 active torsions:
REMARK  status: ('A' for Active; 'I' for Inactive)
REMARK    1  A    between atoms: C_6  and  C_10
REMARK    2  A    between atoms: C_14  and  O_18
REMARK    3  A    between atoms: N_17  and  C_21
REMARK    4  A    between atoms: C_21  and  C_24
REMARK    5  A    between atoms: C_24  and  C_27
REMARK    6  A    between atoms: C_25  and  O_28
REMARK    7  A    between atoms: C_27  and  C_29
REMARK    8  A    between atoms: C_27  and  C_30
REMARK    9  A    between atoms: O_28  and  C_31
REMARK   10  A    between atoms: C_31  and  C_32
REMARK                            x       y       z     vdW  Elec       q    Type
REMARK                         _______ _______ _______ _____ _____    ______ ____
ROOT
ATOM      1  C   UNL     1     -11.563  55.688  48.911  0.00  0.00    +0.000 A 
ATOM      2  C   UNL     1     -10.695  54.912  49.849  0.00  0.00    +0.000 A 
ATOM      3  C   UNL     1     -11.528  55.429  47.593  0.00  0.00    +0.000 A 
ATOM      4  O   UNL     1     -10.841  55.092  51.062  0.00  0.00    +0.000 OA
ATOM      5  N   UNL     1      -9.779  54.008  49.323  0.00  0.00    +0.000 N 
ATOM      6  C   UNL     1     -10.646  54.377  47.065  0.00  0.00    +0.000 A 
ATOM      7  C   UNL     1      -9.801  53.670  47.937  0.00  0.00    +0.000 A 
ATOM      8  C   UNL     1     -10.658  54.051  45.697  0.00  0.00    +0.000 A 
ATOM      9  C   UNL     1      -9.031  52.622  47.416  0.00  0.00    +0.000 A 
ATOM     10  C   UNL     1      -9.846  53.040  45.187  0.00  0.00    +0.000 A 
ATOM     11  C   UNL     1      -9.040  52.316  46.055  0.00  0.00    +0.000 A 
ENDROOT
BRANCH   1  17
ATOM     12  S   UNL     1     -13.577  59.027  49.392  0.00  0.00    +0.000 S 
ATOM     13  O   UNL     1     -14.720  59.136  48.507  0.00  0.00    +0.000 OA
ATOM     14  O   UNL     1     -12.734  60.180  49.645  0.00  0.00    +0.000 OA
ATOM     15  N   UNL     1     -12.634  57.832  48.838  0.00  0.00    +0.000 N 
ATOM     16  C   UNL     1     -14.217  58.549  50.957  0.00  0.00    +0.000 A 
ATOM     17  C   UNL     1     -12.531  56.706  49.481  0.00  0.00    +0.000 C 
ATOM     18  C   UNL     1     -13.943  57.266  51.401  0.00  0.00    +0.000 A 
ATOM     19  C   UNL     1     -14.960  59.454  51.720  0.00  0.00    +0.000 A 
ATOM     20  N   UNL     1     -13.213  56.369  50.628  0.00  0.00    +0.000 N 
ATOM     21  C   UNL     1     -14.492  56.858  52.622  0.00  0.00    +0.000 A 
ATOM     22  C   UNL     1     -15.473  59.047  52.949  0.00  0.00    +0.000 A 
ATOM     23  C   UNL     1     -15.245  57.743  53.395  0.00  0.00    +0.000 A 
ATOM     24  H   UNL     1     -12.131  57.961  48.002  0.00  0.00    +0.000 HD
ATOM     25  H   UNL     1     -13.182  55.430  50.922  0.00  0.00    +0.000 HD
ENDBRANCH   1  17
BRANCH   3  26
ATOM     26  O   UNL     1     -12.319  56.060  46.649  0.00  0.00    +0.000 OA
ATOM     27  H   UNL     1     -13.246  56.116  46.777  0.00  0.00    +0.000 HD
ENDBRANCH   3  26
BRANCH   5  28
ATOM     28  C   UNL     1      -8.897  53.303  50.264  0.00  0.00    +0.000 C 
BRANCH  28  29
ATOM     29  C   UNL     1      -7.552  53.985  50.566  0.00  0.00    +0.000 C 
BRANCH  29  30
ATOM     30  C   UNL     1      -7.273  55.314  49.847  0.00  0.00    +0.000 C 
ATOM     31  C   UNL     1      -7.548  56.525  50.734  0.00  0.00    +0.000 C 
ATOM     32  C   UNL     1      -5.807  55.325  49.391  0.00  0.00    +0.000 C 
ENDBRANCH  29  30
ENDBRANCH  28  29
ENDBRANCH   5  28
BRANCH  10  33
ATOM     33  O   UNL     1      -9.971  52.800  43.850  0.00  0.00    +0.000 OA
BRANCH  33  34
ATOM     34  C   UNL     1      -8.790  52.998  43.069  0.00  0.00    +0.000 C 
BRANCH  34  35
ATOM     35  C   UNL     1      -8.325  51.712  42.536  0.00  0.00    +0.000 C 
ATOM     36  N   UNL     1      -7.941  50.686  42.145  0.00  0.00    +0.000 NA
ENDBRANCH  34  35
ENDBRANCH  33  34
ENDBRANCH  10  33
TORSDOF 8
ENDMDL
MODEL 5
REMARK VINA RESULT:      -7.6      2.281      6.482
REMARK  Name = 338097
REMARK  10 active torsions:
REMARK  status: ('A' for Active; 'I' for Inactive)
REMARK    1  A    between atoms: C_6  and  C_10
REMARK    2  A    between atoms: C_14  and  O_18
REMARK    3  A    between atoms: N_17  and  C_21
REMARK    4  A    between atoms: C_21  and  C_24
REMARK    5  A    between atoms: C_24  and  C_27
REMARK    6  A    between atoms: C_25  and  O_28
REMARK    7  A    between atoms: C_27  and  C_29
REMARK    8  A    between atoms: C_27  and  C_30
REMARK    9  A    between atoms: O_28  and  C_31
REMARK   10  A    between atoms: C_31  and  C_32
REMARK                            x       y       z     vdW  Elec       q    Type
REMARK                         _______ _______ _______ _____ _____    ______ ____
ROOT
ATOM      1  C   UNL     1     -10.183  54.659  50.033  0.00  0.00    +0.000 A 
ATOM      2  C   UNL     1     -10.088  54.435  48.557  0.00  0.00    +0.000 A 
ATOM      3  C   UNL     1     -11.121  55.483  50.529  0.00  0.00    +0.000 A 
ATOM      4  O   UNL     1      -9.295  53.582  48.147  0.00  0.00    +0.000 OA
ATOM      5  N   UNL     1     -10.907  55.176  47.712  0.00  0.00    +0.000 N 
ATOM      6  C   UNL     1     -12.066  56.160  49.629  0.00  0.00    +0.000 A 
ATOM      7  C   UNL     1     -11.960  55.983  48.240  0.00  0.00    +0.000 A 
ATOM      8  C   UNL     1     -13.097  56.966  50.146  0.00  0.00    +0.000 A 
ATOM      9  C   UNL     1     -12.922  56.579  47.414  0.00  0.00    +0.000 A 
ATOM     10  C   UNL     1     -14.015  57.594  49.306  0.00  0.00    +0.000 A 
ATOM     11  C   UNL     1     -13.932  57.388  47.937  0.00  0.00    +0.000 A 
ENDROOT
BRANCH   1  17
ATOM     12  S   UNL     1      -8.437  51.650  51.860  0.00  0.00    +0.000 S 
ATOM     13  O   UNL     1      -7.396  51.028  51.066  0.00  0.00    +0.000 OA
ATOM     14  O   UNL     1      -9.352  50.835  52.637  0.00  0.00    +0.000 OA
ATOM     15  N   UNL     1      -9.318  52.587  50.874  0.00  0.00    +0.000 N 
ATOM     16  C   UNL     1      -7.615  52.683  53.019  0.00  0.00    +0.000 A 
ATOM     17  C   UNL     1      -9.260  53.884  50.953  0.00  0.00    +0.000 C 
ATOM     18  C   UNL     1      -7.731  54.054  52.857  0.00  0.00    +0.000 A 
ATOM     19  C   UNL     1      -6.886  52.121  54.071  0.00  0.00    +0.000 A 
ATOM     20  N   UNL     1      -8.447  54.603  51.799  0.00  0.00    +0.000 N 
ATOM     21  C   UNL     1      -7.036  54.886  53.743  0.00  0.00    +0.000 A 
ATOM     22  C   UNL     1      -6.228  52.960  54.966  0.00  0.00    +0.000 A 
ATOM     23  C   UNL     1      -6.296  54.344  54.795  0.00  0.00    +0.000 A 
ATOM     24  H   UNL     1      -9.907  52.167  50.207  0.00  0.00    +0.000 HD
ATOM     25  H   UNL     1      -8.367  55.573  51.645  0.00  0.00    +0.000 HD
ENDBRANCH   1  17
BRANCH   3  26
ATOM     26  O   UNL     1     -11.319  55.725  51.877  0.00  0.00    +0.000 OA
ATOM     27  H   UNL     1     -11.212  55.030  52.498  0.00  0.00    +0.000 HD
ENDBRANCH   3  26
BRANCH   5  28
ATOM     28  C   UNL     1     -10.751  54.980  46.264  0.00  0.00    +0.000 C 
BRANCH  28  29
ATOM     29  C   UNL     1     -11.646  53.901  45.630  0.00  0.00    +0.000 C 
BRANCH  29  30
ATOM     30  C   UNL     1     -11.033  53.078  44.486  0.00  0.00    +0.000 C 
ATOM     31  C   UNL     1      -9.507  53.127  44.487  0.00  0.00    +0.000 C 
ATOM     32  C   UNL     1     -11.506  51.624  44.622  0.00  0.00    +0.000 C 
ENDBRANCH  29  30
ENDBRANCH  28  29
ENDBRANCH   5  28
BRANCH  10  33
ATOM     33  O   UNL     1     -14.984  58.323  49.931  0.00  0.00    +0.000 OA
BRANCH  33  34
ATOM     34  C   UNL     1     -14.523  59.412  50.735  0.00  0.00    +0.000 C 
BRANCH  34  35
ATOM     35  C   UNL     1     -15.004  59.252  52.112  0.00  0.00    +0.000 C 
ATOM     36  N   UNL     1     -15.373  59.092  53.203  0.00  0.00    +0.000 NA
ENDBRANCH  34  35
ENDBRANCH  33  34
ENDBRANCH  10  33
TORSDOF 8
ENDMDL
MODEL 6
REMARK VINA RESULT:      -7.4      2.758      8.136
REMARK  Name = 338097
REMARK  10 active torsions:
REMARK  status: ('A' for Active; 'I' for Inactive)
REMARK    1  A    between atoms: C_6  and  C_10
REMARK    2  A    between atoms: C_14  and  O_18
REMARK    3  A    between atoms: N_17  and  C_21
REMARK    4  A    between atoms: C_21  and  C_24
REMARK    5  A    between atoms: C_24  and  C_27
REMARK    6  A    between atoms: C_25  and  O_28
REMARK    7  A    between atoms: C_27  and  C_29
REMARK    8  A    between atoms: C_27  and  C_30
REMARK    9  A    between atoms: O_28  and  C_31
REMARK   10  A    between atoms: C_31  and  C_32
REMARK                            x       y       z     vdW  Elec       q    Type
REMARK                         _______ _______ _______ _____ _____    ______ ____
ROOT
ATOM      1  C   UNL     1     -11.231  55.377  49.648  0.00  0.00    +0.000 A 
ATOM      2  C   UNL     1     -11.250  54.721  48.304  0.00  0.00    +0.000 A 
ATOM      3  C   UNL     1     -10.265  55.072  50.531  0.00  0.00    +0.000 A 
ATOM      4  O   UNL     1     -12.079  55.113  47.476  0.00  0.00    +0.000 OA
ATOM      5  N   UNL     1     -10.327  53.717  48.034  0.00  0.00    +0.000 N 
ATOM      6  C   UNL     1      -9.217  54.102  50.181  0.00  0.00    +0.000 A 
ATOM      7  C   UNL     1      -9.250  53.454  48.935  0.00  0.00    +0.000 A 
ATOM      8  C   UNL     1      -8.163  53.832  51.072  0.00  0.00    +0.000 A 
ATOM      9  C   UNL     1      -8.197  52.595  48.600  0.00  0.00    +0.000 A 
ATOM     10  C   UNL     1      -7.150  52.934  50.744  0.00  0.00    +0.000 A 
ATOM     11  C   UNL     1      -7.163  52.324  49.497  0.00  0.00    +0.000 A 
ENDROOT
BRANCH   1  17
ATOM     12  S   UNL     1     -13.347  58.679  49.400  0.00  0.00    +0.000 S 
ATOM     13  O   UNL     1     -14.411  58.601  48.419  0.00  0.00    +0.000 OA
ATOM     14  O   UNL     1     -12.552  59.886  49.526  0.00  0.00    +0.000 OA
ATOM     15  N   UNL     1     -12.335  57.442  49.132  0.00  0.00    +0.000 N 
ATOM     16  C   UNL     1     -14.109  58.442  50.965  0.00  0.00    +0.000 A 
ATOM     17  C   UNL     1     -12.265  56.441  49.959  0.00  0.00    +0.000 C 
ATOM     18  C   UNL     1     -13.849  57.260  51.637  0.00  0.00    +0.000 A 
ATOM     19  C   UNL     1     -14.934  59.433  51.503  0.00  0.00    +0.000 A 
ATOM     20  N   UNL     1     -13.037  56.274  51.087  0.00  0.00    +0.000 N 
ATOM     21  C   UNL     1     -14.492  57.038  52.860  0.00  0.00    +0.000 A 
ATOM     22  C   UNL     1     -15.542  59.216  52.737  0.00  0.00    +0.000 A 
ATOM     23  C   UNL     1     -15.328  58.012  53.411  0.00  0.00    +0.000 A 
ATOM     24  H   UNL     1     -11.764  57.449  48.330  0.00  0.00    +0.000 HD
ATOM     25  H   UNL     1     -13.011  55.397  51.534  0.00  0.00    +0.000 HD
ENDBRANCH   1  17
BRANCH   3  26
ATOM     26  O   UNL     1     -10.134  55.652  51.781  0.00  0.00    +0.000 OA
ATOM     27  H   UNL     1     -10.793  55.512  52.433  0.00  0.00    +0.000 HD
ENDBRANCH   3  26
BRANCH   5  28
ATOM     28  C   UNL     1     -10.406  53.048  46.728  0.00  0.00    +0.000 C 
BRANCH  28  29
ATOM     29  C   UNL     1     -10.094  53.922  45.502  0.00  0.00    +0.000 C 
BRANCH  29  30
ATOM     30  C   UNL     1      -8.695  53.773  44.884  0.00  0.00    +0.000 C 
ATOM     31  C   UNL     1      -7.660  54.666  45.564  0.00  0.00    +0.000 C 
ATOM     32  C   UNL     1      -8.266  52.304  44.995  0.00  0.00    +0.000 C 
ENDBRANCH  29  30
ENDBRANCH  28  29
ENDBRANCH   5  28
BRANCH  10  33
ATOM     33  O   UNL     1      -6.169  52.782  51.680  0.00  0.00    +0.000 OA
BRANCH  33  34
ATOM     34  C   UNL     1      -5.243  53.866  51.791  0.00  0.00    +0.000 C 
BRANCH  34  35
ATOM     35  C   UNL     1      -5.174  54.318  53.186  0.00  0.00    +0.000 C 
ATOM     36  N   UNL     1      -5.129  54.644  54.302  0.00  0.00    +0.000 NA
ENDBRANCH  34  35
ENDBRANCH  33  34
ENDBRANCH  10  33
TORSDOF 8
ENDMDL
MODEL 7
REMARK VINA RESULT:      -7.4      2.675      7.848
REMARK  Name = 338097
REMARK  10 active torsions:
REMARK  status: ('A' for Active; 'I' for Inactive)
REMARK    1  A    between atoms: C_6  and  C_10
REMARK    2  A    between atoms: C_14  and  O_18
REMARK    3  A    between atoms: N_17  and  C_21
REMARK    4  A    between atoms: C_21  and  C_24
REMARK    5  A    between atoms: C_24  and  C_27
REMARK    6  A    between atoms: C_25  and  O_28
REMARK    7  A    between atoms: C_27  and  C_29
REMARK    8  A    between atoms: C_27  and  C_30
REMARK    9  A    between atoms: O_28  and  C_31
REMARK   10  A    between atoms: C_31  and  C_32
REMARK                            x       y       z     vdW  Elec       q    Type
REMARK                         _______ _______ _______ _____ _____    ______ ____
ROOT
ATOM      1  C   UNL     1     -10.802  55.636  48.481  0.00  0.00    +0.000 A 
ATOM      2  C   UNL     1      -9.425  55.387  49.011  0.00  0.00    +0.000 A 
ATOM      3  C   UNL     1     -11.144  55.187  47.262  0.00  0.00    +0.000 A 
ATOM      4  O   UNL     1      -9.184  55.707  50.179  0.00  0.00    +0.000 OA
ATOM      5  N   UNL     1      -8.485  54.789  48.180  0.00  0.00    +0.000 N 
ATOM      6  C   UNL     1     -10.176  54.441  46.445  0.00  0.00    +0.000 A 
ATOM      7  C   UNL     1      -8.870  54.235  46.921  0.00  0.00    +0.000 A 
ATOM      8  C   UNL     1     -10.550  53.905  45.200  0.00  0.00    +0.000 A 
ATOM      9  C   UNL     1      -7.995  53.455  46.155  0.00  0.00    +0.000 A 
ATOM     10  C   UNL     1      -9.650  53.175  44.427  0.00  0.00    +0.000 A 
ATOM     11  C   UNL     1      -8.372  52.940  44.915  0.00  0.00    +0.000 A 
ENDROOT
BRANCH   1  17
ATOM     12  S   UNL     1     -13.422  56.239  51.347  0.00  0.00    +0.000 S 
ATOM     13  O   UNL     1     -12.809  56.517  52.630  0.00  0.00    +0.000 OA
ATOM     14  O   UNL     1     -14.583  55.374  51.260  0.00  0.00    +0.000 OA
ATOM     15  N   UNL     1     -12.277  55.636  50.371  0.00  0.00    +0.000 N 
ATOM     16  C   UNL     1     -13.935  57.793  50.706  0.00  0.00    +0.000 A 
ATOM     17  C   UNL     1     -11.816  56.328  49.372  0.00  0.00    +0.000 C 
ATOM     18  C   UNL     1     -13.251  58.297  49.612  0.00  0.00    +0.000 A 
ATOM     19  C   UNL     1     -15.009  58.473  51.285  0.00  0.00    +0.000 A 
ATOM     20  N   UNL     1     -12.174  57.618  49.052  0.00  0.00    +0.000 N 
ATOM     21  C   UNL     1     -13.616  59.558  49.127  0.00  0.00    +0.000 A 
ATOM     22  C   UNL     1     -15.386  59.712  50.771  0.00  0.00    +0.000 A 
ATOM     23  C   UNL     1     -14.681  60.258  49.697  0.00  0.00    +0.000 A 
ATOM     24  H   UNL     1     -11.927  54.732  50.538  0.00  0.00    +0.000 HD
ATOM     25  H   UNL     1     -11.631  58.092  48.380  0.00  0.00    +0.000 HD
ENDBRANCH   1  17
BRANCH   3  26
ATOM     26  O   UNL     1     -12.401  55.329  46.699  0.00  0.00    +0.000 OA
ATOM     27  H   UNL     1     -12.891  56.115  46.840  0.00  0.00    +0.000 HD
ENDBRANCH   3  26
BRANCH   5  28
ATOM     28  C   UNL     1      -7.124  54.611  48.704  0.00  0.00    +0.000 C 
BRANCH  28  29
ATOM     29  C   UNL     1      -6.905  53.385  49.608  0.00  0.00    +0.000 C 
BRANCH  29  30
ATOM     30  C   UNL     1      -5.820  53.508  50.690  0.00  0.00    +0.000 C 
ATOM     31  C   UNL     1      -4.521  54.096  50.147  0.00  0.00    +0.000 C 
ATOM     32  C   UNL     1      -6.358  54.393  51.823  0.00  0.00    +0.000 C 
ENDBRANCH  29  30
ENDBRANCH  28  29
ENDBRANCH   5  28
BRANCH  10  33
ATOM     33  O   UNL     1     -10.143  52.683  43.253  0.00  0.00    +0.000 OA
BRANCH  33  34
ATOM     34  C   UNL     1      -9.167  52.271  42.293  0.00  0.00    +0.000 C 
BRANCH  34  35
ATOM     35  C   UNL     1      -9.151  50.806  42.199  0.00  0.00    +0.000 C 
ATOM     36  N   UNL     1      -9.109  49.645  42.145  0.00  0.00    +0.000 NA
ENDBRANCH  34  35
ENDBRANCH  33  34
ENDBRANCH  10  33
TORSDOF 8
ENDMDL
MODEL 8
REMARK VINA RESULT:      -7.3      2.976      7.622
REMARK  Name = 338097
REMARK  10 active torsions:
REMARK  status: ('A' for Active; 'I' for Inactive)
REMARK    1  A    between atoms: C_6  and  C_10
REMARK    2  A    between atoms: C_14  and  O_18
REMARK    3  A    between atoms: N_17  and  C_21
REMARK    4  A    between atoms: C_21  and  C_24
REMARK    5  A    between atoms: C_24  and  C_27
REMARK    6  A    between atoms: C_25  and  O_28
REMARK    7  A    between atoms: C_27  and  C_29
REMARK    8  A    between atoms: C_27  and  C_30
REMARK    9  A    between atoms: O_28  and  C_31
REMARK   10  A    between atoms: C_31  and  C_32
REMARK                            x       y       z     vdW  Elec       q    Type
REMARK                         _______ _______ _______ _____ _____    ______ ____
ROOT
ATOM      1  C   UNL     1      -9.738  54.023  50.928  0.00  0.00    +0.000 A 
ATOM      2  C   UNL     1     -10.819  55.014  51.219  0.00  0.00    +0.000 A 
ATOM      3  C   UNL     1      -9.516  53.621  49.665  0.00  0.00    +0.000 A 
ATOM      4  O   UNL     1     -10.915  55.450  52.371  0.00  0.00    +0.000 OA
ATOM      5  N   UNL     1     -11.654  55.419  50.185  0.00  0.00    +0.000 N 
ATOM      6  C   UNL     1     -10.325  54.159  48.562  0.00  0.00    +0.000 A 
ATOM      7  C   UNL     1     -11.366  55.063  48.832  0.00  0.00    +0.000 A 
ATOM      8  C   UNL     1     -10.051  53.800  47.230  0.00  0.00    +0.000 A 
ATOM      9  C   UNL     1     -12.067  55.617  47.754  0.00  0.00    +0.000 A 
ATOM     10  C   UNL     1     -10.793  54.321  46.172  0.00  0.00    +0.000 A 
ATOM     11  C   UNL     1     -11.796  55.242  46.438  0.00  0.00    +0.000 A 
ENDROOT
BRANCH   1  17
ATOM     12  S   UNL     1      -6.548  53.399  53.137  0.00  0.00    +0.000 S 
ATOM     13  O   UNL     1      -6.202  54.534  53.971  0.00  0.00    +0.000 OA
ATOM     14  O   UNL     1      -5.511  52.646  52.457  0.00  0.00    +0.000 OA
ATOM     15  N   UNL     1      -7.607  53.910  52.021  0.00  0.00    +0.000 N 
ATOM     16  C   UNL     1      -7.362  52.252  54.189  0.00  0.00    +0.000 A 
ATOM     17  C   UNL     1      -8.854  53.546  52.065  0.00  0.00    +0.000 C 
ATOM     18  C   UNL     1      -8.720  52.058  54.004  0.00  0.00    +0.000 A 
ATOM     19  C   UNL     1      -6.641  51.556  55.163  0.00  0.00    +0.000 A 
ATOM     20  N   UNL     1      -9.431  52.765  53.040  0.00  0.00    +0.000 N 
ATOM     21  C   UNL     1      -9.389  51.185  54.871  0.00  0.00    +0.000 A 
ATOM     22  C   UNL     1      -7.310  50.665  55.998  0.00  0.00    +0.000 A 
ATOM     23  C   UNL     1      -8.688  50.487  55.856  0.00  0.00    +0.000 A 
ATOM     24  H   UNL     1      -7.300  54.504  51.300  0.00  0.00    +0.000 HD
ATOM     25  H   UNL     1     -10.414  52.702  53.056  0.00  0.00    +0.000 HD
ENDBRANCH   1  17
BRANCH   3  26
ATOM     26  O   UNL     1      -8.517  52.742  49.286  0.00  0.00    +0.000 OA
ATOM     27  H   UNL     1      -7.625  52.922  49.513  0.00  0.00    +0.000 HD
ENDBRANCH   3  26
BRANCH   5  28
ATOM     28  C   UNL     1     -12.746  56.348  50.510  0.00  0.00    +0.000 C 
BRANCH  28  29
ATOM     29  C   UNL     1     -14.020  55.712  51.092  0.00  0.00    +0.000 C 
BRANCH  29  30
ATOM     30  C   UNL     1     -15.084  56.675  51.642  0.00  0.00    +0.000 C 
ATOM     31  C   UNL     1     -14.615  58.127  51.634  0.00  0.00    +0.000 C 
ATOM     32  C   UNL     1     -16.356  56.534  50.794  0.00  0.00    +0.000 C 
ENDBRANCH  29  30
ENDBRANCH  28  29
ENDBRANCH   5  28
BRANCH  10  33
ATOM     33  O   UNL     1     -10.409  53.918  44.926  0.00  0.00    +0.000 OA
BRANCH  33  34
ATOM     34  C   UNL     1      -9.633  52.718  44.873  0.00  0.00    +0.000 C 
BRANCH  34  35
ATOM     35  C   UNL     1      -9.958  51.971  43.652  0.00  0.00    +0.000 C 
ATOM     36  N   UNL     1     -10.227  51.408  42.670  0.00  0.00    +0.000 NA
ENDBRANCH  34  35
ENDBRANCH  33  34
ENDBRANCH  10  33
TORSDOF 8
ENDMDL
MODEL 9
REMARK VINA RESULT:      -7.2      2.295      5.448
REMARK  Name = 338097
REMARK  10 active torsions:
REMARK  status: ('A' for Active; 'I' for Inactive)
REMARK    1  A    between atoms: C_6  and  C_10
REMARK    2  A    between atoms: C_14  and  O_18
REMARK    3  A    between atoms: N_17  and  C_21
REMARK    4  A    between atoms: C_21  and  C_24
REMARK    5  A    between atoms: C_24  and  C_27
REMARK    6  A    between atoms: C_25  and  O_28
REMARK    7  A    between atoms: C_27  and  C_29
REMARK    8  A    between atoms: C_27  and  C_30
REMARK    9  A    between atoms: O_28  and  C_31
REMARK   10  A    between atoms: C_31  and  C_32
REMARK                            x       y       z     vdW  Elec       q    Type
REMARK                         _______ _______ _______ _____ _____    ______ ____
ROOT
ATOM      1  C   UNL     1     -10.341  53.907  48.564  0.00  0.00    +0.000 A 
ATOM      2  C   UNL     1     -11.435  54.782  49.087  0.00  0.00    +0.000 A 
ATOM      3  C   UNL     1      -9.306  53.579  49.356  0.00  0.00    +0.000 A 
ATOM      4  O   UNL     1     -12.427  54.964  48.374  0.00  0.00    +0.000 OA
ATOM      5  N   UNL     1     -11.303  55.335  50.356  0.00  0.00    +0.000 N 
ATOM      6  C   UNL     1      -9.246  54.067  50.741  0.00  0.00    +0.000 A 
ATOM      7  C   UNL     1     -10.251  54.920  51.227  0.00  0.00    +0.000 A 
ATOM      8  C   UNL     1      -8.203  53.669  51.598  0.00  0.00    +0.000 A 
ATOM      9  C   UNL     1     -10.207  55.305  52.573  0.00  0.00    +0.000 A 
ATOM     10  C   UNL     1      -8.147  54.104  52.920  0.00  0.00    +0.000 A 
ATOM     11  C   UNL     1      -9.161  54.915  53.410  0.00  0.00    +0.000 A 
ENDROOT
BRANCH   1  17
ATOM     12  S   UNL     1     -11.532  51.675  45.557  0.00  0.00    +0.000 S 
ATOM     13  O   UNL     1     -12.781  52.124  44.974  0.00  0.00    +0.000 OA
ATOM     14  O   UNL     1     -11.280  50.260  45.751  0.00  0.00    +0.000 OA
ATOM     15  N   UNL     1     -11.360  52.414  46.989  0.00  0.00    +0.000 N 
ATOM     16  C   UNL     1     -10.263  52.245  44.484  0.00  0.00    +0.000 A 
ATOM     17  C   UNL     1     -10.463  53.338  47.164  0.00  0.00    +0.000 C 
ATOM     18  C   UNL     1      -9.437  53.257  44.942  0.00  0.00    +0.000 A 
ATOM     19  C   UNL     1     -10.098  51.671  43.221  0.00  0.00    +0.000 A 
ATOM     20  N   UNL     1      -9.617  53.832  46.196  0.00  0.00    +0.000 N 
ATOM     21  C   UNL     1      -8.456  53.755  44.076  0.00  0.00    +0.000 A 
ATOM     22  C   UNL     1      -9.097  52.150  42.380  0.00  0.00    +0.000 A 
ATOM     23  C   UNL     1      -8.281  53.201  42.806  0.00  0.00    +0.000 A 
ATOM     24  H   UNL     1     -11.944  52.157  47.738  0.00  0.00    +0.000 HD
ATOM     25  H   UNL     1      -9.104  54.646  46.407  0.00  0.00    +0.000 HD
ENDBRANCH   1  17
BRANCH   3  26
ATOM     26  O   UNL     1      -8.267  52.744  48.982  0.00  0.00    +0.000 OA
ATOM     27  H   UNL     1      -7.442  52.795  49.426  0.00  0.00    +0.000 HD
ENDBRANCH   3  26
BRANCH   5  28
ATOM     28  C   UNL     1     -12.364  56.239  50.821  0.00  0.00    +0.000 C 
BRANCH  28  29
ATOM     29  C   UNL     1     -13.667  55.567  51.284  0.00  0.00    +0.000 C 
BRANCH  29  30
ATOM     30  C   UNL     1     -14.665  56.447  52.054  0.00  0.00    +0.000 C 
ATOM     31  C   UNL     1     -13.979  57.591  52.795  0.00  0.00    +0.000 C 
ATOM     32  C   UNL     1     -15.688  57.012  51.058  0.00  0.00    +0.000 C 
ENDBRANCH  29  30
ENDBRANCH  28  29
ENDBRANCH   5  28
BRANCH  10  33
ATOM     33  O   UNL     1      -7.104  53.623  53.656  0.00  0.00    +0.000 OA
BRANCH  33  34
ATOM     34  C   UNL     1      -6.617  54.490  54.684  0.00  0.00    +0.000 C 
BRANCH  34  35
ATOM     35  C   UNL     1      -5.229  54.870  54.396  0.00  0.00    +0.000 C 
ATOM     36  N   UNL     1      -4.118  55.144  54.185  0.00  0.00    +0.000 NA
ENDBRANCH  34  35
ENDBRANCH  33  34
ENDBRANCH  10  33
TORSDOF 8
ENDMDL
