MODEL 1
REMARK VINA RESULT:      -8.2      0.000      0.000
REMARK  Name = 298159
REMARK  7 active torsions:
REMARK  status: ('A' for Active; 'I' for Inactive)
REMARK    1  A    between atoms: C_6  and  C_10
REMARK    2  A    between atoms: C_14  and  O_18
REMARK    3  A    between atoms: N_17  and  C_21
REMARK    4  A    between atoms: C_21  and  C_24
REMARK    5  A    between atoms: C_24  and  C_27
REMARK    6  A    between atoms: C_27  and  C_28
REMARK    7  A    between atoms: C_27  and  C_29
REMARK                            x       y       z     vdW  Elec       q    Type
REMARK                         _______ _______ _______ _____ _____    ______ ____
ROOT
ATOM      1  C   UNL     1     -10.188  54.397  52.339  0.00  0.00    +0.000 A 
ATOM      2  C   UNL     1      -8.803  54.956  52.298  0.00  0.00    +0.000 A 
ATOM      3  C   UNL     1     -10.445  53.282  53.042  0.00  0.00    +0.000 A 
ATOM      4  O   UNL     1      -8.635  56.063  51.773  0.00  0.00    +0.000 OA
ATOM      5  N   UNL     1      -7.770  54.226  52.872  0.00  0.00    +0.000 N 
ATOM      6  C   UNL     1      -9.367  52.603  53.774  0.00  0.00    +0.000 A 
ATOM      7  C   UNL     1      -8.049  53.087  53.691  0.00  0.00    +0.000 A 
ATOM      8  C   UNL     1      -9.644  51.487  54.583  0.00  0.00    +0.000 A 
ATOM      9  C   UNL     1      -7.053  52.458  54.454  0.00  0.00    +0.000 A 
ATOM     10  C   UNL     1      -8.637  50.866  55.319  0.00  0.00    +0.000 A 
ATOM     11  C   UNL     1      -7.342  51.354  55.256  0.00  0.00    +0.000 A 
ENDROOT
BRANCH   1  17
ATOM     12  S   UNL     1     -12.380  56.002  49.503  0.00  0.00    +0.000 S 
ATOM     13  O   UNL     1     -13.277  55.046  48.887  0.00  0.00    +0.000 OA
ATOM     14  O   UNL     1     -11.678  56.980  48.702  0.00  0.00    +0.000 OA
ATOM     15  N   UNL     1     -11.285  55.165  50.351  0.00  0.00    +0.000 N 
ATOM     16  C   UNL     1     -13.365  56.922  50.637  0.00  0.00    +0.000 A 
ATOM     17  C   UNL     1     -11.301  55.155  51.652  0.00  0.00    +0.000 C 
ATOM     18  C   UNL     1     -13.161  56.713  51.990  0.00  0.00    +0.000 A 
ATOM     19  C   UNL     1     -14.309  57.836  50.163  0.00  0.00    +0.000 A 
ATOM     20  N   UNL     1     -12.234  55.780  52.448  0.00  0.00    +0.000 N 
ATOM     21  C   UNL     1     -13.968  57.403  52.899  0.00  0.00    +0.000 A 
ATOM     22  C   UNL     1     -15.087  58.538  51.079  0.00  0.00    +0.000 A 
ATOM     23  C   UNL     1     -14.922  58.317  52.447  0.00  0.00    +0.000 A 
ATOM     24  H   UNL     1     -10.592  54.653  49.874  0.00  0.00    +0.000 HD
ATOM     25  H   UNL     1     -12.246  55.552  53.406  0.00  0.00    +0.000 HD
ENDBRANCH   1  17
BRANCH   3  26
ATOM     26  O   UNL     1     -11.704  52.721  53.189  0.00  0.00    +0.000 OA
ATOM     27  H   UNL     1     -11.906  51.909  52.767  0.00  0.00    +0.000 HD
ENDBRANCH   3  26
BRANCH   5  28
ATOM     28  C   UNL     1      -6.409  54.761  52.755  0.00  0.00    +0.000 C 
BRANCH  28  29
ATOM     29  C   UNL     1      -5.582  54.229  51.572  0.00  0.00    +0.000 C 
BRANCH  29  30
ATOM     30  C   UNL     1      -4.157  53.745  51.885  0.00  0.00    +0.000 C 
ATOM     31  C   UNL     1      -3.847  53.765  53.379  0.00  0.00    +0.000 C 
ATOM     32  C   UNL     1      -4.001  52.321  51.336  0.00  0.00    +0.000 C 
ENDBRANCH  29  30
ENDBRANCH  28  29
ENDBRANCH   5  28
TORSDOF 5
ENDMDL
MODEL 2
REMARK VINA RESULT:      -8.0      2.612      8.028
REMARK  Name = 298159
REMARK  7 active torsions:
REMARK  status: ('A' for Active; 'I' for Inactive)
REMARK    1  A    between atoms: C_6  and  C_10
REMARK    2  A    between atoms: C_14  and  O_18
REMARK    3  A    between atoms: N_17  and  C_21
REMARK    4  A    between atoms: C_21  and  C_24
REMARK    5  A    between atoms: C_24  and  C_27
REMARK    6  A    between atoms: C_27  and  C_28
REMARK    7  A    between atoms: C_27  and  C_29
REMARK                            x       y       z     vdW  Elec       q    Type
REMARK                         _______ _______ _______ _____ _____    ______ ____
ROOT
ATOM      1  C   UNL     1     -10.076  54.719  50.914  0.00  0.00    +0.000 A 
ATOM      2  C   UNL     1     -11.412  55.243  51.330  0.00  0.00    +0.000 A 
ATOM      3  C   UNL     1      -9.748  54.663  49.613  0.00  0.00    +0.000 A 
ATOM      4  O   UNL     1     -11.619  55.425  52.534  0.00  0.00    +0.000 OA
ATOM      5  N   UNL     1     -12.353  55.526  50.348  0.00  0.00    +0.000 N 
ATOM      6  C   UNL     1     -10.701  55.112  48.589  0.00  0.00    +0.000 A 
ATOM      7  C   UNL     1     -11.983  55.548  48.967  0.00  0.00    +0.000 A 
ATOM      8  C   UNL     1     -10.334  55.139  47.232  0.00  0.00    +0.000 A 
ATOM      9  C   UNL     1     -12.847  56.035  47.974  0.00  0.00    +0.000 A 
ATOM     10  C   UNL     1     -11.213  55.609  46.259  0.00  0.00    +0.000 A 
ATOM     11  C   UNL     1     -12.470  56.060  46.632  0.00  0.00    +0.000 A 
ENDROOT
BRANCH   1  17
ATOM     12  S   UNL     1      -6.795  54.675  53.072  0.00  0.00    +0.000 S 
ATOM     13  O   UNL     1      -6.777  55.718  54.077  0.00  0.00    +0.000 OA
ATOM     14  O   UNL     1      -5.602  54.354  52.320  0.00  0.00    +0.000 OA
ATOM     15  N   UNL     1      -7.973  55.032  52.021  0.00  0.00    +0.000 N 
ATOM     16  C   UNL     1      -7.245  53.199  53.921  0.00  0.00    +0.000 A 
ATOM     17  C   UNL     1      -9.075  54.341  51.983  0.00  0.00    +0.000 C 
ATOM     18  C   UNL     1      -8.501  52.669  53.678  0.00  0.00    +0.000 A 
ATOM     19  C   UNL     1      -6.342  52.592  54.797  0.00  0.00    +0.000 A 
ATOM     20  N   UNL     1      -9.399  53.299  52.820  0.00  0.00    +0.000 N 
ATOM     21  C   UNL     1      -8.886  51.523  54.379  0.00  0.00    +0.000 A 
ATOM     22  C   UNL     1      -6.727  51.436  55.468  0.00  0.00    +0.000 A 
ATOM     23  C   UNL     1      -8.002  50.904  55.265  0.00  0.00    +0.000 A 
ATOM     24  H   UNL     1      -7.854  55.785  51.399  0.00  0.00    +0.000 HD
ATOM     25  H   UNL     1     -10.329  52.976  52.812  0.00  0.00    +0.000 HD
ENDBRANCH   1  17
BRANCH   3  26
ATOM     26  O   UNL     1      -8.515  54.249  49.132  0.00  0.00    +0.000 OA
ATOM     27  H   UNL     1      -7.911  53.819  49.704  0.00  0.00    +0.000 HD
ENDBRANCH   3  26
BRANCH   5  28
ATOM     28  C   UNL     1     -13.682  55.969  50.785  0.00  0.00    +0.000 C 
BRANCH  28  29
ATOM     29  C   UNL     1     -13.811  57.463  51.122  0.00  0.00    +0.000 C 
BRANCH  29  30
ATOM     30  C   UNL     1     -14.487  57.818  52.456  0.00  0.00    +0.000 C 
ATOM     31  C   UNL     1     -14.945  59.272  52.511  0.00  0.00    +0.000 C 
ATOM     32  C   UNL     1     -15.687  56.883  52.651  0.00  0.00    +0.000 C 
ENDBRANCH  29  30
ENDBRANCH  28  29
ENDBRANCH   5  28
TORSDOF 5
ENDMDL
MODEL 3
REMARK VINA RESULT:      -7.9      3.464      5.220
REMARK  Name = 298159
REMARK  7 active torsions:
REMARK  status: ('A' for Active; 'I' for Inactive)
REMARK    1  A    between atoms: C_6  and  C_10
REMARK    2  A    between atoms: C_14  and  O_18
REMARK    3  A    between atoms: N_17  and  C_21
REMARK    4  A    between atoms: C_21  and  C_24
REMARK    5  A    between atoms: C_24  and  C_27
REMARK    6  A    between atoms: C_27  and  C_28
REMARK    7  A    between atoms: C_27  and  C_29
REMARK                            x       y       z     vdW  Elec       q    Type
REMARK                         _______ _______ _______ _____ _____    ______ ____
ROOT
ATOM      1  C   UNL     1     -11.659  56.026  48.727  0.00  0.00    +0.000 A 
ATOM      2  C   UNL     1     -10.609  55.369  49.563  0.00  0.00    +0.000 A 
ATOM      3  C   UNL     1     -11.804  55.687  47.436  0.00  0.00    +0.000 A 
ATOM      4  O   UNL     1     -10.607  55.590  50.779  0.00  0.00    +0.000 OA
ATOM      5  N   UNL     1      -9.699  54.520  48.946  0.00  0.00    +0.000 N 
ATOM      6  C   UNL     1     -10.930  54.671  46.835  0.00  0.00    +0.000 A 
ATOM      7  C   UNL     1      -9.899  54.092  47.596  0.00  0.00    +0.000 A 
ATOM      8  C   UNL     1     -11.131  54.247  45.509  0.00  0.00    +0.000 A 
ATOM      9  C   UNL     1      -9.124  53.076  47.016  0.00  0.00    +0.000 A 
ATOM     10  C   UNL     1     -10.340  53.249  44.946  0.00  0.00    +0.000 A 
ATOM     11  C   UNL     1      -9.337  52.662  45.701  0.00  0.00    +0.000 A 
ENDROOT
BRANCH   1  17
ATOM     12  S   UNL     1     -13.613  59.345  49.492  0.00  0.00    +0.000 S 
ATOM     13  O   UNL     1     -14.763  59.524  48.630  0.00  0.00    +0.000 OA
ATOM     14  O   UNL     1     -12.761  60.464  49.828  0.00  0.00    +0.000 OA
ATOM     15  N   UNL     1     -12.691  58.186  48.840  0.00  0.00    +0.000 N 
ATOM     16  C   UNL     1     -14.249  58.745  51.022  0.00  0.00    +0.000 A 
ATOM     17  C   UNL     1     -12.605  57.006  49.383  0.00  0.00    +0.000 C 
ATOM     18  C   UNL     1     -13.993  57.426  51.356  0.00  0.00    +0.000 A 
ATOM     19  C   UNL     1     -14.975  59.594  51.860  0.00  0.00    +0.000 A 
ATOM     20  N   UNL     1     -13.289  56.584  50.499  0.00  0.00    +0.000 N 
ATOM     21  C   UNL     1     -14.531  56.925  52.545  0.00  0.00    +0.000 A 
ATOM     22  C   UNL     1     -15.482  59.092  53.054  0.00  0.00    +0.000 A 
ATOM     23  C   UNL     1     -15.266  57.755  53.395  0.00  0.00    +0.000 A 
ATOM     24  H   UNL     1     -12.185  58.377  48.017  0.00  0.00    +0.000 HD
ATOM     25  H   UNL     1     -13.280  55.622  50.706  0.00  0.00    +0.000 HD
ENDBRANCH   1  17
BRANCH   3  26
ATOM     26  O   UNL     1     -12.783  56.196  46.597  0.00  0.00    +0.000 OA
ATOM     27  H   UNL     1     -13.343  55.613  46.125  0.00  0.00    +0.000 HD
ENDBRANCH   3  26
BRANCH   5  28
ATOM     28  C   UNL     1      -8.633  53.944  49.774  0.00  0.00    +0.000 C 
BRANCH  28  29
ATOM     29  C   UNL     1      -7.293  54.698  49.757  0.00  0.00    +0.000 C 
BRANCH  29  30
ATOM     30  C   UNL     1      -6.960  55.549  50.993  0.00  0.00    +0.000 C 
ATOM     31  C   UNL     1      -7.543  56.956  50.908  0.00  0.00    +0.000 C 
ATOM     32  C   UNL     1      -7.504  54.830  52.233  0.00  0.00    +0.000 C 
ENDBRANCH  29  30
ENDBRANCH  28  29
ENDBRANCH   5  28
TORSDOF 5
ENDMDL
MODEL 4
REMARK VINA RESULT:      -7.8      3.361      7.330
REMARK  Name = 298159
REMARK  7 active torsions:
REMARK  status: ('A' for Active; 'I' for Inactive)
REMARK    1  A    between atoms: C_6  and  C_10
REMARK    2  A    between atoms: C_14  and  O_18
REMARK    3  A    between atoms: N_17  and  C_21
REMARK    4  A    between atoms: C_21  and  C_24
REMARK    5  A    between atoms: C_24  and  C_27
REMARK    6  A    between atoms: C_27  and  C_28
REMARK    7  A    between atoms: C_27  and  C_29
REMARK                            x       y       z     vdW  Elec       q    Type
REMARK                         _______ _______ _______ _____ _____    ______ ____
ROOT
ATOM      1  C   UNL     1     -10.277  55.203  50.811  0.00  0.00    +0.000 A 
ATOM      2  C   UNL     1      -9.873  55.107  49.375  0.00  0.00    +0.000 A 
ATOM      3  C   UNL     1     -11.486  55.684  51.142  0.00  0.00    +0.000 A 
ATOM      4  O   UNL     1      -8.821  54.519  49.103  0.00  0.00    +0.000 OA
ATOM      5  N   UNL     1     -10.705  55.659  48.409  0.00  0.00    +0.000 N 
ATOM      6  C   UNL     1     -12.420  56.121  50.095  0.00  0.00    +0.000 A 
ATOM      7  C   UNL     1     -12.026  56.093  48.745  0.00  0.00    +0.000 A 
ATOM      8  C   UNL     1     -13.720  56.544  50.426  0.00  0.00    +0.000 A 
ATOM      9  C   UNL     1     -12.962  56.453  47.764  0.00  0.00    +0.000 A 
ATOM     10  C   UNL     1     -14.629  56.914  49.438  0.00  0.00    +0.000 A 
ATOM     11  C   UNL     1     -14.249  56.866  48.106  0.00  0.00    +0.000 A 
ENDROOT
BRANCH   1  17
ATOM     12  S   UNL     1      -7.064  54.728  53.019  0.00  0.00    +0.000 S 
ATOM     13  O   UNL     1      -6.980  55.697  54.092  0.00  0.00    +0.000 OA
ATOM     14  O   UNL     1      -5.887  54.352  52.269  0.00  0.00    +0.000 OA
ATOM     15  N   UNL     1      -8.182  55.255  51.974  0.00  0.00    +0.000 N 
ATOM     16  C   UNL     1      -7.661  53.245  53.759  0.00  0.00    +0.000 A 
ATOM     17  C   UNL     1      -9.339  54.669  51.870  0.00  0.00    +0.000 C 
ATOM     18  C   UNL     1      -8.953  52.845  53.459  0.00  0.00    +0.000 A 
ATOM     19  C   UNL     1      -6.836  52.505  54.609  0.00  0.00    +0.000 A 
ATOM     20  N   UNL     1      -9.772  53.607  52.629  0.00  0.00    +0.000 N 
ATOM     21  C   UNL     1      -9.453  51.695  54.075  0.00  0.00    +0.000 A 
ATOM     22  C   UNL     1      -7.336  51.346  55.194  0.00  0.00    +0.000 A 
ATOM     23  C   UNL     1      -8.648  50.944  54.933  0.00  0.00    +0.000 A 
ATOM     24  H   UNL     1      -7.983  56.034  51.406  0.00  0.00    +0.000 HD
ATOM     25  H   UNL     1     -10.727  53.369  52.583  0.00  0.00    +0.000 HD
ENDBRANCH   1  17
BRANCH   3  26
ATOM     26  O   UNL     1     -11.974  55.757  52.437  0.00  0.00    +0.000 OA
ATOM     27  H   UNL     1     -12.264  54.980  52.872  0.00  0.00    +0.000 HD
ENDBRANCH   3  26
BRANCH   5  28
ATOM     28  C   UNL     1     -10.252  55.617  47.014  0.00  0.00    +0.000 C 
BRANCH  28  29
ATOM     29  C   UNL     1     -10.550  54.315  46.254  0.00  0.00    +0.000 C 
BRANCH  29  30
ATOM     30  C   UNL     1      -9.350  53.584  45.632  0.00  0.00    +0.000 C 
ATOM     31  C   UNL     1      -9.673  52.988  44.265  0.00  0.00    +0.000 C 
ATOM     32  C   UNL     1      -8.191  54.581  45.507  0.00  0.00    +0.000 C 
ENDBRANCH  29  30
ENDBRANCH  28  29
ENDBRANCH   5  28
TORSDOF 5
ENDMDL
MODEL 5
REMARK VINA RESULT:      -7.7      2.146      2.969
REMARK  Name = 298159
REMARK  7 active torsions:
REMARK  status: ('A' for Active; 'I' for Inactive)
REMARK    1  A    between atoms: C_6  and  C_10
REMARK    2  A    between atoms: C_14  and  O_18
REMARK    3  A    between atoms: N_17  and  C_21
REMARK    4  A    between atoms: C_21  and  C_24
REMARK    5  A    between atoms: C_24  and  C_27
REMARK    6  A    between atoms: C_27  and  C_28
REMARK    7  A    between atoms: C_27  and  C_29
REMARK                            x       y       z     vdW  Elec       q    Type
REMARK                         _______ _______ _______ _____ _____    ______ ____
ROOT
ATOM      1  C   UNL     1     -11.627  53.983  51.079  0.00  0.00    +0.000 A 
ATOM      2  C   UNL     1     -10.741  53.959  52.282  0.00  0.00    +0.000 A 
ATOM      3  C   UNL     1     -11.716  52.903  50.284  0.00  0.00    +0.000 A 
ATOM      4  O   UNL     1     -10.804  54.907  53.072  0.00  0.00    +0.000 OA
ATOM      5  N   UNL     1      -9.908  52.865  52.477  0.00  0.00    +0.000 N 
ATOM      6  C   UNL     1     -10.941  51.693  50.591  0.00  0.00    +0.000 A 
ATOM      7  C   UNL     1     -10.059  51.683  51.686  0.00  0.00    +0.000 A 
ATOM      8  C   UNL     1     -11.095  50.529  49.816  0.00  0.00    +0.000 A 
ATOM      9  C   UNL     1      -9.384  50.491  51.993  0.00  0.00    +0.000 A 
ATOM     10  C   UNL     1     -10.402  49.362  50.128  0.00  0.00    +0.000 A 
ATOM     11  C   UNL     1      -9.548  49.343  51.219  0.00  0.00    +0.000 A 
ENDROOT
BRANCH   1  17
ATOM     12  S   UNL     1     -13.232  57.072  49.262  0.00  0.00    +0.000 S 
ATOM     13  O   UNL     1     -14.328  56.697  48.392  0.00  0.00    +0.000 OA
ATOM     14  O   UNL     1     -12.275  58.076  48.854  0.00  0.00    +0.000 OA
ATOM     15  N   UNL     1     -12.421  55.722  49.633  0.00  0.00    +0.000 N 
ATOM     16  C   UNL     1     -13.979  57.686  50.735  0.00  0.00    +0.000 A 
ATOM     17  C   UNL     1     -12.481  55.204  50.826  0.00  0.00    +0.000 C 
ATOM     18  C   UNL     1     -13.879  56.916  51.881  0.00  0.00    +0.000 A 
ATOM     19  C   UNL     1     -14.635  58.919  50.726  0.00  0.00    +0.000 A 
ATOM     20  N   UNL     1     -13.243  55.677  51.869  0.00  0.00    +0.000 N 
ATOM     21  C   UNL     1     -14.506  57.371  53.045  0.00  0.00    +0.000 A 
ATOM     22  C   UNL     1     -15.231  59.375  51.898  0.00  0.00    +0.000 A 
ATOM     23  C   UNL     1     -15.173  58.597  53.056  0.00  0.00    +0.000 A 
ATOM     24  H   UNL     1     -11.871  55.283  48.944  0.00  0.00    +0.000 HD
ATOM     25  H   UNL     1     -13.345  55.101  52.661  0.00  0.00    +0.000 HD
ENDBRANCH   1  17
BRANCH   3  26
ATOM     26  O   UNL     1     -12.551  52.808  49.182  0.00  0.00    +0.000 OA
ATOM     27  H   UNL     1     -13.095  53.532  48.943  0.00  0.00    +0.000 HD
ENDBRANCH   3  26
BRANCH   5  28
ATOM     28  C   UNL     1      -8.995  52.898  53.625  0.00  0.00    +0.000 C 
BRANCH  28  29
ATOM     29  C   UNL     1      -7.546  53.306  53.315  0.00  0.00    +0.000 C 
BRANCH  29  30
ATOM     30  C   UNL     1      -6.879  54.289  54.291  0.00  0.00    +0.000 C 
ATOM     31  C   UNL     1      -5.361  54.327  54.134  0.00  0.00    +0.000 C 
ATOM     32  C   UNL     1      -7.466  55.684  54.046  0.00  0.00    +0.000 C 
ENDBRANCH  29  30
ENDBRANCH  28  29
ENDBRANCH   5  28
TORSDOF 5
ENDMDL
MODEL 6
REMARK VINA RESULT:      -7.7      1.569      2.278
REMARK  Name = 298159
REMARK  7 active torsions:
REMARK  status: ('A' for Active; 'I' for Inactive)
REMARK    1  A    between atoms: C_6  and  C_10
REMARK    2  A    between atoms: C_14  and  O_18
REMARK    3  A    between atoms: N_17  and  C_21
REMARK    4  A    between atoms: C_21  and  C_24
REMARK    5  A    between atoms: C_24  and  C_27
REMARK    6  A    between atoms: C_27  and  C_28
REMARK    7  A    between atoms: C_27  and  C_29
REMARK                            x       y       z     vdW  Elec       q    Type
REMARK                         _______ _______ _______ _____ _____    ______ ____
ROOT
ATOM      1  C   UNL     1     -10.130  54.445  52.246  0.00  0.00    +0.000 A 
ATOM      2  C   UNL     1      -8.731  54.971  52.257  0.00  0.00    +0.000 A 
ATOM      3  C   UNL     1     -10.437  53.331  52.930  0.00  0.00    +0.000 A 
ATOM      4  O   UNL     1      -8.520  56.078  51.748  0.00  0.00    +0.000 OA
ATOM      5  N   UNL     1      -7.736  54.211  52.857  0.00  0.00    +0.000 N 
ATOM      6  C   UNL     1      -9.401  52.620  53.691  0.00  0.00    +0.000 A 
ATOM      7  C   UNL     1      -8.070  53.072  53.656  0.00  0.00    +0.000 A 
ATOM      8  C   UNL     1      -9.731  51.503  54.480  0.00  0.00    +0.000 A 
ATOM      9  C   UNL     1      -7.115  52.413  54.446  0.00  0.00    +0.000 A 
ATOM     10  C   UNL     1      -8.765  50.853  55.243  0.00  0.00    +0.000 A 
ATOM     11  C   UNL     1      -7.457  51.309  55.227  0.00  0.00    +0.000 A 
ENDROOT
BRANCH   1  17
ATOM     12  S   UNL     1     -13.451  56.433  51.582  0.00  0.00    +0.000 S 
ATOM     13  O   UNL     1     -13.364  57.816  52.004  0.00  0.00    +0.000 OA
ATOM     14  O   UNL     1     -14.652  55.664  51.817  0.00  0.00    +0.000 OA
ATOM     15  N   UNL     1     -12.207  55.642  52.249  0.00  0.00    +0.000 N 
ATOM     16  C   UNL     1     -13.219  56.449  49.836  0.00  0.00    +0.000 A 
ATOM     17  C   UNL     1     -11.201  55.236  51.530  0.00  0.00    +0.000 C 
ATOM     18  C   UNL     1     -12.035  55.935  49.335  0.00  0.00    +0.000 A 
ATOM     19  C   UNL     1     -14.217  56.956  49.002  0.00  0.00    +0.000 A 
ATOM     20  N   UNL     1     -11.038  55.455  50.181  0.00  0.00    +0.000 N 
ATOM     21  C   UNL     1     -11.820  55.983  47.955  0.00  0.00    +0.000 A 
ATOM     22  C   UNL     1     -14.003  56.973  47.627  0.00  0.00    +0.000 A 
ATOM     23  C   UNL     1     -12.801  56.493  47.103  0.00  0.00    +0.000 A 
ATOM     24  H   UNL     1     -12.210  55.464  53.217  0.00  0.00    +0.000 HD
ATOM     25  H   UNL     1     -10.157  55.258  49.787  0.00  0.00    +0.000 HD
ENDBRANCH   1  17
BRANCH   3  26
ATOM     26  O   UNL     1     -11.713  52.799  53.029  0.00  0.00    +0.000 OA
ATOM     27  H   UNL     1     -12.113  52.697  53.870  0.00  0.00    +0.000 HD
ENDBRANCH   3  26
BRANCH   5  28
ATOM     28  C   UNL     1      -6.359  54.714  52.791  0.00  0.00    +0.000 C 
BRANCH  28  29
ATOM     29  C   UNL     1      -5.531  54.234  51.588  0.00  0.00    +0.000 C 
BRANCH  29  30
ATOM     30  C   UNL     1      -4.269  53.413  51.897  0.00  0.00    +0.000 C 
ATOM     31  C   UNL     1      -3.847  53.519  53.360  0.00  0.00    +0.000 C 
ATOM     32  C   UNL     1      -4.547  51.948  51.538  0.00  0.00    +0.000 C 
ENDBRANCH  29  30
ENDBRANCH  28  29
ENDBRANCH   5  28
TORSDOF 5
ENDMDL
MODEL 7
REMARK VINA RESULT:      -7.6      2.722      8.236
REMARK  Name = 298159
REMARK  7 active torsions:
REMARK  status: ('A' for Active; 'I' for Inactive)
REMARK    1  A    between atoms: C_6  and  C_10
REMARK    2  A    between atoms: C_14  and  O_18
REMARK    3  A    between atoms: N_17  and  C_21
REMARK    4  A    between atoms: C_21  and  C_24
REMARK    5  A    between atoms: C_24  and  C_27
REMARK    6  A    between atoms: C_27  and  C_28
REMARK    7  A    between atoms: C_27  and  C_29
REMARK                            x       y       z     vdW  Elec       q    Type
REMARK                         _______ _______ _______ _____ _____    ______ ____
ROOT
ATOM      1  C   UNL     1      -9.914  54.093  50.633  0.00  0.00    +0.000 A 
ATOM      2  C   UNL     1     -11.084  54.564  51.435  0.00  0.00    +0.000 A 
ATOM      3  C   UNL     1      -9.874  54.307  49.308  0.00  0.00    +0.000 A 
ATOM      4  O   UNL     1     -11.016  54.489  52.667  0.00  0.00    +0.000 OA
ATOM      5  N   UNL     1     -12.184  55.087  50.768  0.00  0.00    +0.000 N 
ATOM      6  C   UNL     1     -10.981  55.002  48.637  0.00  0.00    +0.000 A 
ATOM      7  C   UNL     1     -12.113  55.394  49.373  0.00  0.00    +0.000 A 
ATOM      8  C   UNL     1     -10.908  55.308  47.266  0.00  0.00    +0.000 A 
ATOM      9  C   UNL     1     -13.123  56.115  48.718  0.00  0.00    +0.000 A 
ATOM     10  C   UNL     1     -11.929  56.010  46.631  0.00  0.00    +0.000 A 
ATOM     11  C   UNL     1     -13.037  56.416  47.359  0.00  0.00    +0.000 A 
ENDROOT
BRANCH   1  17
ATOM     12  S   UNL     1      -7.868  51.762  53.042  0.00  0.00    +0.000 S 
ATOM     13  O   UNL     1      -7.645  50.444  52.483  0.00  0.00    +0.000 OA
ATOM     14  O   UNL     1      -8.201  51.925  54.439  0.00  0.00    +0.000 OA
ATOM     15  N   UNL     1      -9.023  52.475  52.161  0.00  0.00    +0.000 N 
ATOM     16  C   UNL     1      -6.365  52.647  52.796  0.00  0.00    +0.000 A 
ATOM     17  C   UNL     1      -8.746  53.456  51.352  0.00  0.00    +0.000 C 
ATOM     18  C   UNL     1      -6.359  53.667  51.859  0.00  0.00    +0.000 A 
ATOM     19  C   UNL     1      -5.230  52.322  53.543  0.00  0.00    +0.000 A 
ATOM     20  N   UNL     1      -7.491  53.964  51.105  0.00  0.00    +0.000 N 
ATOM     21  C   UNL     1      -5.161  54.346  51.623  0.00  0.00    +0.000 A 
ATOM     22  C   UNL     1      -4.050  53.025  53.318  0.00  0.00    +0.000 A 
ATOM     23  C   UNL     1      -4.013  54.033  52.353  0.00  0.00    +0.000 A 
ATOM     24  H   UNL     1      -9.953  52.162  52.239  0.00  0.00    +0.000 HD
ATOM     25  H   UNL     1      -7.387  54.579  50.343  0.00  0.00    +0.000 HD
ENDBRANCH   1  17
BRANCH   3  26
ATOM     26  O   UNL     1      -8.810  53.961  48.490  0.00  0.00    +0.000 OA
ATOM     27  H   UNL     1      -8.784  54.263  47.604  0.00  0.00    +0.000 HD
ENDBRANCH   3  26
BRANCH   5  28
ATOM     28  C   UNL     1     -13.349  55.475  51.572  0.00  0.00    +0.000 C 
BRANCH  28  29
ATOM     29  C   UNL     1     -13.255  56.842  52.268  0.00  0.00    +0.000 C 
BRANCH  29  30
ATOM     30  C   UNL     1     -14.580  57.504  52.679  0.00  0.00    +0.000 C 
ATOM     31  C   UNL     1     -14.566  59.016  52.476  0.00  0.00    +0.000 C 
ATOM     32  C   UNL     1     -15.709  56.875  51.853  0.00  0.00    +0.000 C 
ENDBRANCH  29  30
ENDBRANCH  28  29
ENDBRANCH   5  28
TORSDOF 5
ENDMDL
MODEL 8
REMARK VINA RESULT:      -7.5      3.627      7.530
REMARK  Name = 298159
REMARK  7 active torsions:
REMARK  status: ('A' for Active; 'I' for Inactive)
REMARK    1  A    between atoms: C_6  and  C_10
REMARK    2  A    between atoms: C_14  and  O_18
REMARK    3  A    between atoms: N_17  and  C_21
REMARK    4  A    between atoms: C_21  and  C_24
REMARK    5  A    between atoms: C_24  and  C_27
REMARK    6  A    between atoms: C_27  and  C_28
REMARK    7  A    between atoms: C_27  and  C_29
REMARK                            x       y       z     vdW  Elec       q    Type
REMARK                         _______ _______ _______ _____ _____    ______ ____
ROOT
ATOM      1  C   UNL     1     -10.353  54.831  50.341  0.00  0.00    +0.000 A 
ATOM      2  C   UNL     1     -10.009  54.677  48.895  0.00  0.00    +0.000 A 
ATOM      3  C   UNL     1     -11.453  55.511  50.705  0.00  0.00    +0.000 A 
ATOM      4  O   UNL     1      -9.082  53.918  48.593  0.00  0.00    +0.000 OA
ATOM      5  N   UNL     1     -10.759  55.370  47.953  0.00  0.00    +0.000 N 
ATOM      6  C   UNL     1     -12.324  56.110  49.685  0.00  0.00    +0.000 A 
ATOM      7  C   UNL     1     -11.976  56.023  48.325  0.00  0.00    +0.000 A 
ATOM      8  C   UNL     1     -13.523  56.747  50.052  0.00  0.00    +0.000 A 
ATOM      9  C   UNL     1     -12.861  56.546  47.370  0.00  0.00    +0.000 A 
ATOM     10  C   UNL     1     -14.380  57.275  49.089  0.00  0.00    +0.000 A 
ATOM     11  C   UNL     1     -14.049  57.172  47.747  0.00  0.00    +0.000 A 
ENDROOT
BRANCH   1  17
ATOM     12  S   UNL     1      -9.186  52.258  53.068  0.00  0.00    +0.000 S 
ATOM     13  O   UNL     1      -8.671  51.033  52.492  0.00  0.00    +0.000 OA
ATOM     14  O   UNL     1     -10.028  52.225  54.243  0.00  0.00    +0.000 OA
ATOM     15  N   UNL     1      -9.978  53.050  51.901  0.00  0.00    +0.000 N 
ATOM     16  C   UNL     1      -7.771  53.209  53.514  0.00  0.00    +0.000 A 
ATOM     17  C   UNL     1      -9.494  54.137  51.373  0.00  0.00    +0.000 C 
ATOM     18  C   UNL     1      -7.493  54.343  52.771  0.00  0.00    +0.000 A 
ATOM     19  C   UNL     1      -6.977  52.818  54.594  0.00  0.00    +0.000 A 
ATOM     20  N   UNL     1      -8.280  54.706  51.681  0.00  0.00    +0.000 N 
ATOM     21  C   UNL     1      -6.348  55.080  53.086  0.00  0.00    +0.000 A 
ATOM     22  C   UNL     1      -5.855  53.576  54.916  0.00  0.00    +0.000 A 
ATOM     23  C   UNL     1      -5.536  54.704  54.158  0.00  0.00    +0.000 A 
ATOM     24  H   UNL     1     -10.843  52.704  51.583  0.00  0.00    +0.000 HD
ATOM     25  H   UNL     1      -7.945  55.420  51.090  0.00  0.00    +0.000 HD
ENDBRANCH   1  17
BRANCH   3  26
ATOM     26  O   UNL     1     -11.886  55.658  52.013  0.00  0.00    +0.000 OA
ATOM     27  H   UNL     1     -11.941  54.910  52.575  0.00  0.00    +0.000 HD
ENDBRANCH   3  26
BRANCH   5  28
ATOM     28  C   UNL     1     -10.357  55.261  46.546  0.00  0.00    +0.000 C 
BRANCH  28  29
ATOM     29  C   UNL     1     -10.908  54.043  45.786  0.00  0.00    +0.000 C 
BRANCH  29  30
ATOM     30  C   UNL     1      -9.884  53.158  45.058  0.00  0.00    +0.000 C 
ATOM     31  C   UNL     1     -10.352  52.750  43.664  0.00  0.00    +0.000 C 
ATOM     32  C   UNL     1      -8.563  53.931  44.961  0.00  0.00    +0.000 C 
ENDBRANCH  29  30
ENDBRANCH  28  29
ENDBRANCH   5  28
TORSDOF 5
ENDMDL
MODEL 9
REMARK VINA RESULT:      -7.5      3.745      5.308
REMARK  Name = 298159
REMARK  7 active torsions:
REMARK  status: ('A' for Active; 'I' for Inactive)
REMARK    1  A    between atoms: C_6  and  C_10
REMARK    2  A    between atoms: C_14  and  O_18
REMARK    3  A    between atoms: N_17  and  C_21
REMARK    4  A    between atoms: C_21  and  C_24
REMARK    5  A    between atoms: C_24  and  C_27
REMARK    6  A    between atoms: C_27  and  C_28
REMARK    7  A    between atoms: C_27  and  C_29
REMARK                            x       y       z     vdW  Elec       q    Type
REMARK                         _______ _______ _______ _____ _____    ______ ____
ROOT
ATOM      1  C   UNL     1     -10.727  55.688  48.451  0.00  0.00    +0.000 A 
ATOM      2  C   UNL     1      -9.326  55.522  48.944  0.00  0.00    +0.000 A 
ATOM      3  C   UNL     1     -11.087  55.186  47.258  0.00  0.00    +0.000 A 
ATOM      4  O   UNL     1      -9.073  55.858  50.106  0.00  0.00    +0.000 OA
ATOM      5  N   UNL     1      -8.378  54.976  48.089  0.00  0.00    +0.000 N 
ATOM      6  C   UNL     1     -10.106  54.473  46.429  0.00  0.00    +0.000 A 
ATOM      7  C   UNL     1      -8.771  54.365  46.857  0.00  0.00    +0.000 A 
ATOM      8  C   UNL     1     -10.495  53.868  45.220  0.00  0.00    +0.000 A 
ATOM      9  C   UNL     1      -7.873  53.621  46.076  0.00  0.00    +0.000 A 
ATOM     10  C   UNL     1      -9.584  53.148  44.452  0.00  0.00    +0.000 A 
ATOM     11  C   UNL     1      -8.273  53.023  44.882  0.00  0.00    +0.000 A 
ENDROOT
BRANCH   1  17
ATOM     12  S   UNL     1     -13.345  56.206  51.332  0.00  0.00    +0.000 S 
ATOM     13  O   UNL     1     -12.718  56.485  52.608  0.00  0.00    +0.000 OA
ATOM     14  O   UNL     1     -14.491  55.329  51.248  0.00  0.00    +0.000 OA
ATOM     15  N   UNL     1     -12.199  55.636  50.342  0.00  0.00    +0.000 N 
ATOM     16  C   UNL     1     -13.881  57.765  50.710  0.00  0.00    +0.000 A 
ATOM     17  C   UNL     1     -11.745  56.349  49.353  0.00  0.00    +0.000 C 
ATOM     18  C   UNL     1     -13.208  58.295  49.623  0.00  0.00    +0.000 A 
ATOM     19  C   UNL     1     -14.962  58.421  51.304  0.00  0.00    +0.000 A 
ATOM     20  N   UNL     1     -12.117  57.640  49.057  0.00  0.00    +0.000 N 
ATOM     21  C   UNL     1     -13.595  59.551  49.149  0.00  0.00    +0.000 A 
ATOM     22  C   UNL     1     -15.355  59.659  50.806  0.00  0.00    +0.000 A 
ATOM     23  C   UNL     1     -14.668  60.229  49.732  0.00  0.00    +0.000 A 
ATOM     24  H   UNL     1     -11.839  54.731  50.489  0.00  0.00    +0.000 HD
ATOM     25  H   UNL     1     -11.575  58.135  48.399  0.00  0.00    +0.000 HD
ENDBRANCH   1  17
BRANCH   3  26
ATOM     26  O   UNL     1     -12.372  55.237  46.742  0.00  0.00    +0.000 OA
ATOM     27  H   UNL     1     -12.832  54.444  46.553  0.00  0.00    +0.000 HD
ENDBRANCH   3  26
BRANCH   5  28
ATOM     28  C   UNL     1      -6.994  54.891  48.570  0.00  0.00    +0.000 C 
BRANCH  28  29
ATOM     29  C   UNL     1      -6.659  53.659  49.426  0.00  0.00    +0.000 C 
BRANCH  29  30
ATOM     30  C   UNL     1      -5.214  53.139  49.359  0.00  0.00    +0.000 C 
ATOM     31  C   UNL     1      -4.534  53.472  48.034  0.00  0.00    +0.000 C 
ATOM     32  C   UNL     1      -4.426  53.757  50.521  0.00  0.00    +0.000 C 
ENDBRANCH  29  30
ENDBRANCH  28  29
ENDBRANCH   5  28
TORSDOF 5
ENDMDL
