MODEL 1
REMARK VINA RESULT:      -8.1      0.000      0.000
REMARK  Name = 338198
REMARK  4 active torsions:
REMARK  status: ('A' for Active; 'I' for Inactive)
REMARK    1  A    between atoms: C_6  and  C_10
REMARK    2  A    between atoms: C_14  and  O_18
REMARK    3  A    between atoms: N_17  and  C_21
REMARK    4  A    between atoms: C_21  and  C_24
REMARK                            x       y       z     vdW  Elec       q    Type
REMARK                         _______ _______ _______ _____ _____    ______ ____
ROOT
ATOM      1  C   UNL     1     -10.150  54.306  52.389  0.00  0.00    +0.000 A 
ATOM      2  C   UNL     1      -8.744  54.805  52.308  0.00  0.00    +0.000 A 
ATOM      3  C   UNL     1     -10.434  53.212  53.118  0.00  0.00    +0.000 A 
ATOM      4  O   UNL     1      -8.534  55.878  51.733  0.00  0.00    +0.000 OA
ATOM      5  N   UNL     1      -7.735  54.039  52.874  0.00  0.00    +0.000 N 
ATOM      6  C   UNL     1      -9.371  52.503  53.844  0.00  0.00    +0.000 A 
ATOM      7  C   UNL     1      -8.032  52.907  53.695  0.00  0.00    +0.000 A 
ATOM      8  C   UNL     1      -9.678  51.426  54.692  0.00  0.00    +0.000 A 
ATOM      9  C   UNL     1      -7.033  52.216  54.399  0.00  0.00    +0.000 A 
ATOM     10  C   UNL     1      -8.678  50.764  55.401  0.00  0.00    +0.000 A 
ATOM     11  C   UNL     1      -7.355  51.159  55.254  0.00  0.00    +0.000 A 
ENDROOT
BRANCH   1  17
ATOM     12  S   UNL     1     -12.289  55.914  49.513  0.00  0.00    +0.000 S 
ATOM     13  O   UNL     1     -13.179  54.965  48.875  0.00  0.00    +0.000 OA
ATOM     14  O   UNL     1     -11.559  56.881  48.715  0.00  0.00    +0.000 OA
ATOM     15  N   UNL     1     -11.214  55.070  50.383  0.00  0.00    +0.000 N 
ATOM     16  C   UNL     1     -13.282  56.849  50.616  0.00  0.00    +0.000 A 
ATOM     17  C   UNL     1     -11.246  55.078  51.682  0.00  0.00    +0.000 C 
ATOM     18  C   UNL     1     -13.100  56.653  51.976  0.00  0.00    +0.000 A 
ATOM     19  C   UNL     1     -14.212  57.765  50.117  0.00  0.00    +0.000 A 
ATOM     20  N   UNL     1     -12.177  55.731  52.460  0.00  0.00    +0.000 N 
ATOM     21  C   UNL     1     -13.930  57.350  52.860  0.00  0.00    +0.000 A 
ATOM     22  C   UNL     1     -15.006  58.480  51.010  0.00  0.00    +0.000 A 
ATOM     23  C   UNL     1     -14.873  58.263  52.383  0.00  0.00    +0.000 A 
ATOM     24  H   UNL     1     -10.523  54.543  49.919  0.00  0.00    +0.000 HD
ATOM     25  H   UNL     1     -12.189  55.532  53.424  0.00  0.00    +0.000 HD
ENDBRANCH   1  17
BRANCH   3  26
ATOM     26  O   UNL     1     -11.704  52.684  53.272  0.00  0.00    +0.000 OA
ATOM     27  H   UNL     1     -11.874  51.794  53.031  0.00  0.00    +0.000 HD
ENDBRANCH   3  26
BRANCH   5  28
ATOM     28  C   UNL     1      -6.358  54.458  52.632  0.00  0.00    +0.000 C 
BRANCH  28  29
ATOM     29  C   UNL     1      -5.781  55.314  53.728  0.00  0.00    +0.000 C 
ATOM     30  C   UNL     1      -4.657  55.122  54.434  0.00  0.00    +0.000 C 
ENDBRANCH  28  29
ENDBRANCH   5  28
TORSDOF 4
ENDMDL
MODEL 2
REMARK VINA RESULT:      -7.9      3.525      5.178
REMARK  Name = 338198
REMARK  4 active torsions:
REMARK  status: ('A' for Active; 'I' for Inactive)
REMARK    1  A    between atoms: C_6  and  C_10
REMARK    2  A    between atoms: C_14  and  O_18
REMARK    3  A    between atoms: N_17  and  C_21
REMARK    4  A    between atoms: C_21  and  C_24
REMARK                            x       y       z     vdW  Elec       q    Type
REMARK                         _______ _______ _______ _____ _____    ______ ____
ROOT
ATOM      1  C   UNL     1     -11.354  55.988  48.862  0.00  0.00    +0.000 A 
ATOM      2  C   UNL     1     -10.287  55.419  49.740  0.00  0.00    +0.000 A 
ATOM      3  C   UNL     1     -11.427  55.621  47.570  0.00  0.00    +0.000 A 
ATOM      4  O   UNL     1     -10.319  55.681  50.947  0.00  0.00    +0.000 OA
ATOM      5  N   UNL     1      -9.302  54.632  49.161  0.00  0.00    +0.000 N 
ATOM      6  C   UNL     1     -10.467  54.658  47.012  0.00  0.00    +0.000 A 
ATOM      7  C   UNL     1      -9.401  54.193  47.805  0.00  0.00    +0.000 A 
ATOM      8  C   UNL     1     -10.604  54.190  45.695  0.00  0.00    +0.000 A 
ATOM      9  C   UNL     1      -8.497  53.272  47.252  0.00  0.00    +0.000 A 
ATOM     10  C   UNL     1      -9.711  53.259  45.168  0.00  0.00    +0.000 A 
ATOM     11  C   UNL     1      -8.657  52.801  45.947  0.00  0.00    +0.000 A 
ENDROOT
BRANCH   1  17
ATOM     12  S   UNL     1     -13.523  59.209  49.449  0.00  0.00    +0.000 S 
ATOM     13  O   UNL     1     -14.652  59.301  48.546  0.00  0.00    +0.000 OA
ATOM     14  O   UNL     1     -12.740  60.389  49.762  0.00  0.00    +0.000 OA
ATOM     15  N   UNL     1     -12.517  58.082  48.865  0.00  0.00    +0.000 N 
ATOM     16  C   UNL     1     -14.168  58.638  50.978  0.00  0.00    +0.000 A 
ATOM     17  C   UNL     1     -12.372  56.936  49.461  0.00  0.00    +0.000 C 
ATOM     18  C   UNL     1     -13.843  57.351  51.376  0.00  0.00    +0.000 A 
ATOM     19  C   UNL     1     -14.969  59.477  51.758  0.00  0.00    +0.000 A 
ATOM     20  N   UNL     1     -13.052  56.523  50.587  0.00  0.00    +0.000 N 
ATOM     21  C   UNL     1     -14.403  56.867  52.563  0.00  0.00    +0.000 A 
ATOM     22  C   UNL     1     -15.489  58.994  52.956  0.00  0.00    +0.000 A 
ATOM     23  C   UNL     1     -15.215  57.685  53.354  0.00  0.00    +0.000 A 
ATOM     24  H   UNL     1     -12.005  58.268  48.045  0.00  0.00    +0.000 HD
ATOM     25  H   UNL     1     -12.971  55.577  50.849  0.00  0.00    +0.000 HD
ENDBRANCH   1  17
BRANCH   3  26
ATOM     26  O   UNL     1     -12.388  56.074  46.682  0.00  0.00    +0.000 OA
ATOM     27  H   UNL     1     -12.708  55.505  46.009  0.00  0.00    +0.000 HD
ENDBRANCH   3  26
BRANCH   5  28
ATOM     28  C   UNL     1      -8.179  54.233  50.006  0.00  0.00    +0.000 C 
BRANCH  28  29
ATOM     29  C   UNL     1      -7.060  55.240  50.044  0.00  0.00    +0.000 C 
ATOM     30  C   UNL     1      -5.916  55.245  49.344  0.00  0.00    +0.000 C 
ENDBRANCH  28  29
ENDBRANCH   5  28
TORSDOF 4
ENDMDL
MODEL 3
REMARK VINA RESULT:      -7.8      4.024      5.298
REMARK  Name = 338198
REMARK  4 active torsions:
REMARK  status: ('A' for Active; 'I' for Inactive)
REMARK    1  A    between atoms: C_6  and  C_10
REMARK    2  A    between atoms: C_14  and  O_18
REMARK    3  A    between atoms: N_17  and  C_21
REMARK    4  A    between atoms: C_21  and  C_24
REMARK                            x       y       z     vdW  Elec       q    Type
REMARK                         _______ _______ _______ _____ _____    ______ ____
ROOT
ATOM      1  C   UNL     1     -12.481  54.245  49.723  0.00  0.00    +0.000 A 
ATOM      2  C   UNL     1     -11.930  54.173  48.337  0.00  0.00    +0.000 A 
ATOM      3  C   UNL     1     -12.227  53.258  50.601  0.00  0.00    +0.000 A 
ATOM      4  O   UNL     1     -12.079  55.149  47.594  0.00  0.00    +0.000 OA
ATOM      5  N   UNL     1     -11.284  53.011  47.940  0.00  0.00    +0.000 N 
ATOM      6  C   UNL     1     -11.403  52.106  50.208  0.00  0.00    +0.000 A 
ATOM      7  C   UNL     1     -10.962  51.982  48.878  0.00  0.00    +0.000 A 
ATOM      8  C   UNL     1     -11.043  51.127  51.150  0.00  0.00    +0.000 A 
ATOM      9  C   UNL     1     -10.174  50.874  48.525  0.00  0.00    +0.000 A 
ATOM     10  C   UNL     1     -10.243  50.045  50.789  0.00  0.00    +0.000 A 
ATOM     11  C   UNL     1      -9.809  49.918  49.477  0.00  0.00    +0.000 A 
ENDROOT
BRANCH   1  17
ATOM     12  S   UNL     1     -15.383  56.456  51.182  0.00  0.00    +0.000 S 
ATOM     13  O   UNL     1     -15.330  56.575  52.625  0.00  0.00    +0.000 OA
ATOM     14  O   UNL     1     -16.654  56.265  50.511  0.00  0.00    +0.000 OA
ATOM     15  N   UNL     1     -14.403  55.239  50.753  0.00  0.00    +0.000 N 
ATOM     16  C   UNL     1     -14.720  57.951  50.545  0.00  0.00    +0.000 A 
ATOM     17  C   UNL     1     -13.283  55.464  50.134  0.00  0.00    +0.000 C 
ATOM     18  C   UNL     1     -13.485  57.897  49.919  0.00  0.00    +0.000 A 
ATOM     19  C   UNL     1     -15.440  59.143  50.665  0.00  0.00    +0.000 A 
ATOM     20  N   UNL     1     -12.775  56.705  49.814  0.00  0.00    +0.000 N 
ATOM     21  C   UNL     1     -12.924  59.094  49.464  0.00  0.00    +0.000 A 
ATOM     22  C   UNL     1     -14.885  60.322  50.173  0.00  0.00    +0.000 A 
ATOM     23  C   UNL     1     -13.621  60.299  49.581  0.00  0.00    +0.000 A 
ATOM     24  H   UNL     1     -14.661  54.313  50.964  0.00  0.00    +0.000 HD
ATOM     25  H   UNL     1     -11.847  56.751  49.488  0.00  0.00    +0.000 HD
ENDBRANCH   1  17
BRANCH   3  26
ATOM     26  O   UNL     1     -12.673  53.242  51.911  0.00  0.00    +0.000 OA
ATOM     27  H   UNL     1     -12.320  52.621  52.518  0.00  0.00    +0.000 HD
ENDBRANCH   3  26
BRANCH   5  28
ATOM     28  C   UNL     1     -10.909  52.898  46.533  0.00  0.00    +0.000 C 
BRANCH  28  29
ATOM     29  C   UNL     1     -11.956  52.237  45.677  0.00  0.00    +0.000 C 
ATOM     30  C   UNL     1     -12.138  50.930  45.440  0.00  0.00    +0.000 C 
ENDBRANCH  28  29
ENDBRANCH   5  28
TORSDOF 4
ENDMDL
MODEL 4
REMARK VINA RESULT:      -7.8      2.811      7.396
REMARK  Name = 338198
REMARK  4 active torsions:
REMARK  status: ('A' for Active; 'I' for Inactive)
REMARK    1  A    between atoms: C_6  and  C_10
REMARK    2  A    between atoms: C_14  and  O_18
REMARK    3  A    between atoms: N_17  and  C_21
REMARK    4  A    between atoms: C_21  and  C_24
REMARK                            x       y       z     vdW  Elec       q    Type
REMARK                         _______ _______ _______ _____ _____    ______ ____
ROOT
ATOM      1  C   UNL     1     -10.286  55.127  50.796  0.00  0.00    +0.000 A 
ATOM      2  C   UNL     1      -9.906  55.012  49.356  0.00  0.00    +0.000 A 
ATOM      3  C   UNL     1     -11.481  55.642  51.138  0.00  0.00    +0.000 A 
ATOM      4  O   UNL     1      -8.857  54.425  49.070  0.00  0.00    +0.000 OA
ATOM      5  N   UNL     1     -10.742  55.577  48.404  0.00  0.00    +0.000 N 
ATOM      6  C   UNL     1     -12.423  56.090  50.103  0.00  0.00    +0.000 A 
ATOM      7  C   UNL     1     -12.035  56.076  48.750  0.00  0.00    +0.000 A 
ATOM      8  C   UNL     1     -13.713  56.528  50.448  0.00  0.00    +0.000 A 
ATOM      9  C   UNL     1     -12.952  56.507  47.778  0.00  0.00    +0.000 A 
ATOM     10  C   UNL     1     -14.618  56.931  49.469  0.00  0.00    +0.000 A 
ATOM     11  C   UNL     1     -14.238  56.921  48.134  0.00  0.00    +0.000 A 
ENDROOT
BRANCH   1  17
ATOM     12  S   UNL     1      -7.057  54.729  52.998  0.00  0.00    +0.000 S 
ATOM     13  O   UNL     1      -6.975  55.709  54.062  0.00  0.00    +0.000 OA
ATOM     14  O   UNL     1      -5.873  54.377  52.237  0.00  0.00    +0.000 OA
ATOM     15  N   UNL     1      -8.191  55.229  51.955  0.00  0.00    +0.000 N 
ATOM     16  C   UNL     1      -7.610  53.242  53.747  0.00  0.00    +0.000 A 
ATOM     17  C   UNL     1      -9.330  54.610  51.853  0.00  0.00    +0.000 C 
ATOM     18  C   UNL     1      -8.892  52.807  53.453  0.00  0.00    +0.000 A 
ATOM     19  C   UNL     1      -6.762  52.529  54.599  0.00  0.00    +0.000 A 
ATOM     20  N   UNL     1      -9.729  53.530  52.609  0.00  0.00    +0.000 N 
ATOM     21  C   UNL     1      -9.361  51.655  54.094  0.00  0.00    +0.000 A 
ATOM     22  C   UNL     1      -7.230  51.363  55.201  0.00  0.00    +0.000 A 
ATOM     23  C   UNL     1      -8.535  50.933  54.956  0.00  0.00    +0.000 A 
ATOM     24  H   UNL     1      -8.015  56.014  51.388  0.00  0.00    +0.000 HD
ATOM     25  H   UNL     1     -10.672  53.251  52.548  0.00  0.00    +0.000 HD
ENDBRANCH   1  17
BRANCH   3  26
ATOM     26  O   UNL     1     -11.933  55.771  52.440  0.00  0.00    +0.000 OA
ATOM     27  H   UNL     1     -11.813  56.580  52.899  0.00  0.00    +0.000 HD
ENDBRANCH   3  26
BRANCH   5  28
ATOM     28  C   UNL     1     -10.265  55.603  47.023  0.00  0.00    +0.000 C 
BRANCH  28  29
ATOM     29  C   UNL     1     -10.537  54.334  46.262  0.00  0.00    +0.000 C 
ATOM     30  C   UNL     1     -11.590  54.034  45.487  0.00  0.00    +0.000 C 
ENDBRANCH  28  29
ENDBRANCH   5  28
TORSDOF 4
ENDMDL
MODEL 5
REMARK VINA RESULT:      -7.6      3.780      5.555
REMARK  Name = 338198
REMARK  4 active torsions:
REMARK  status: ('A' for Active; 'I' for Inactive)
REMARK    1  A    between atoms: C_6  and  C_10
REMARK    2  A    between atoms: C_14  and  O_18
REMARK    3  A    between atoms: N_17  and  C_21
REMARK    4  A    between atoms: C_21  and  C_24
REMARK                            x       y       z     vdW  Elec       q    Type
REMARK                         _______ _______ _______ _____ _____    ______ ____
ROOT
ATOM      1  C   UNL     1     -11.489  55.786  48.856  0.00  0.00    +0.000 A 
ATOM      2  C   UNL     1     -11.593  55.443  47.405  0.00  0.00    +0.000 A 
ATOM      3  C   UNL     1     -10.516  55.241  49.608  0.00  0.00    +0.000 A 
ATOM      4  O   UNL     1     -12.418  56.050  46.716  0.00  0.00    +0.000 OA
ATOM      5  N   UNL     1     -10.765  54.451  46.899  0.00  0.00    +0.000 N 
ATOM      6  C   UNL     1      -9.546  54.311  49.013  0.00  0.00    +0.000 A 
ATOM      7  C   UNL     1      -9.695  53.906  47.674  0.00  0.00    +0.000 A 
ATOM      8  C   UNL     1      -8.465  53.823  49.766  0.00  0.00    +0.000 A 
ATOM      9  C   UNL     1      -8.756  53.017  47.126  0.00  0.00    +0.000 A 
ATOM     10  C   UNL     1      -7.529  52.959  49.201  0.00  0.00    +0.000 A 
ATOM     11  C   UNL     1      -7.675  52.556  47.881  0.00  0.00    +0.000 A 
ENDROOT
BRANCH   1  17
ATOM     12  S   UNL     1     -13.506  59.112  49.403  0.00  0.00    +0.000 S 
ATOM     13  O   UNL     1     -14.634  59.242  48.503  0.00  0.00    +0.000 OA
ATOM     14  O   UNL     1     -12.668  60.260  49.694  0.00  0.00    +0.000 OA
ATOM     15  N   UNL     1     -12.555  57.932  48.832  0.00  0.00    +0.000 N 
ATOM     16  C   UNL     1     -14.168  58.594  50.943  0.00  0.00    +0.000 A 
ATOM     17  C   UNL     1     -12.459  56.790  49.445  0.00  0.00    +0.000 C 
ATOM     18  C   UNL     1     -13.900  57.300  51.360  0.00  0.00    +0.000 A 
ATOM     19  C   UNL     1     -14.925  59.481  51.714  0.00  0.00    +0.000 A 
ATOM     20  N   UNL     1     -13.152  56.425  50.580  0.00  0.00    +0.000 N 
ATOM     21  C   UNL     1     -14.475  56.861  52.557  0.00  0.00    +0.000 A 
ATOM     22  C   UNL     1     -15.461  59.041  52.922  0.00  0.00    +0.000 A 
ATOM     23  C   UNL     1     -15.244  57.726  53.338  0.00  0.00    +0.000 A 
ATOM     24  H   UNL     1     -12.040  58.082  48.006  0.00  0.00    +0.000 HD
ATOM     25  H   UNL     1     -13.113  55.481  50.856  0.00  0.00    +0.000 HD
ENDBRANCH   1  17
BRANCH   3  26
ATOM     26  O   UNL     1     -10.323  55.511  50.952  0.00  0.00    +0.000 OA
ATOM     27  H   UNL     1      -9.760  54.963  51.463  0.00  0.00    +0.000 HD
ENDBRANCH   3  26
BRANCH   5  28
ATOM     28  C   UNL     1     -11.005  54.013  45.526  0.00  0.00    +0.000 C 
BRANCH  28  29
ATOM     29  C   UNL     1     -12.025  52.912  45.409  0.00  0.00    +0.000 C 
ATOM     30  C   UNL     1     -12.267  51.904  46.260  0.00  0.00    +0.000 C 
ENDBRANCH  28  29
ENDBRANCH   5  28
TORSDOF 4
ENDMDL
MODEL 6
REMARK VINA RESULT:      -7.6      3.968      5.613
REMARK  Name = 338198
REMARK  4 active torsions:
REMARK  status: ('A' for Active; 'I' for Inactive)
REMARK    1  A    between atoms: C_6  and  C_10
REMARK    2  A    between atoms: C_14  and  O_18
REMARK    3  A    between atoms: N_17  and  C_21
REMARK    4  A    between atoms: C_21  and  C_24
REMARK                            x       y       z     vdW  Elec       q    Type
REMARK                         _______ _______ _______ _____ _____    ______ ____
ROOT
ATOM      1  C   UNL     1     -11.042  55.289  48.486  0.00  0.00    +0.000 A 
ATOM      2  C   UNL     1      -9.777  54.747  49.068  0.00  0.00    +0.000 A 
ATOM      3  C   UNL     1     -11.362  55.023  47.207  0.00  0.00    +0.000 A 
ATOM      4  O   UNL     1      -9.570  54.906  50.275  0.00  0.00    +0.000 OA
ATOM      5  N   UNL     1      -8.886  54.098  48.226  0.00  0.00    +0.000 N 
ATOM      6  C   UNL     1     -10.478  54.196  46.374  0.00  0.00    +0.000 A 
ATOM      7  C   UNL     1      -9.239  53.763  46.882  0.00  0.00    +0.000 A 
ATOM      8  C   UNL     1     -10.859  53.825  45.073  0.00  0.00    +0.000 A 
ATOM      9  C   UNL     1      -8.412  52.973  46.069  0.00  0.00    +0.000 A 
ATOM     10  C   UNL     1     -10.036  53.022  44.287  0.00  0.00    +0.000 A 
ATOM     11  C   UNL     1      -8.812  52.596  44.784  0.00  0.00    +0.000 A 
ENDROOT
BRANCH   1  17
ATOM     12  S   UNL     1     -13.492  56.219  51.413  0.00  0.00    +0.000 S 
ATOM     13  O   UNL     1     -12.803  56.517  52.652  0.00  0.00    +0.000 OA
ATOM     14  O   UNL     1     -14.709  55.431  51.425  0.00  0.00    +0.000 OA
ATOM     15  N   UNL     1     -12.434  55.490  50.425  0.00  0.00    +0.000 N 
ATOM     16  C   UNL     1     -13.927  57.768  50.712  0.00  0.00    +0.000 A 
ATOM     17  C   UNL     1     -11.972  56.093  49.371  0.00  0.00    +0.000 C 
ATOM     18  C   UNL     1     -13.261  58.168  49.564  0.00  0.00    +0.000 A 
ATOM     19  C   UNL     1     -14.924  58.549  51.302  0.00  0.00    +0.000 A 
ATOM     20  N   UNL     1     -12.264  57.385  48.991  0.00  0.00    +0.000 N 
ATOM     21  C   UNL     1     -13.559  59.428  49.035  0.00  0.00    +0.000 A 
ATOM     22  C   UNL     1     -15.237  59.785  50.743  0.00  0.00    +0.000 A 
ATOM     23  C   UNL     1     -14.546  60.230  49.614  0.00  0.00    +0.000 A 
ATOM     24  H   UNL     1     -12.138  54.573  50.627  0.00  0.00    +0.000 HD
ATOM     25  H   UNL     1     -11.731  57.781  48.264  0.00  0.00    +0.000 HD
ENDBRANCH   1  17
BRANCH   3  26
ATOM     26  O   UNL     1     -12.518  55.460  46.584  0.00  0.00    +0.000 OA
ATOM     27  H   UNL     1     -12.552  55.520  45.649  0.00  0.00    +0.000 HD
ENDBRANCH   3  26
BRANCH   5  28
ATOM     28  C   UNL     1      -7.584  53.732  48.779  0.00  0.00    +0.000 C 
BRANCH  28  29
ATOM     29  C   UNL     1      -6.528  54.789  48.599  0.00  0.00    +0.000 C 
ATOM     30  C   UNL     1      -5.722  55.331  49.524  0.00  0.00    +0.000 C 
ENDBRANCH  28  29
ENDBRANCH   5  28
TORSDOF 4
ENDMDL
MODEL 7
REMARK VINA RESULT:      -7.6      2.390      7.531
REMARK  Name = 338198
REMARK  4 active torsions:
REMARK  status: ('A' for Active; 'I' for Inactive)
REMARK    1  A    between atoms: C_6  and  C_10
REMARK    2  A    between atoms: C_14  and  O_18
REMARK    3  A    between atoms: N_17  and  C_21
REMARK    4  A    between atoms: C_21  and  C_24
REMARK                            x       y       z     vdW  Elec       q    Type
REMARK                         _______ _______ _______ _____ _____    ______ ____
ROOT
ATOM      1  C   UNL     1     -10.809  55.032  50.700  0.00  0.00    +0.000 A 
ATOM      2  C   UNL     1     -11.857  55.589  51.607  0.00  0.00    +0.000 A 
ATOM      3  C   UNL     1     -10.926  55.178  49.368  0.00  0.00    +0.000 A 
ATOM      4  O   UNL     1     -11.662  55.546  52.826  0.00  0.00    +0.000 OA
ATOM      5  N   UNL     1     -13.008  56.121  51.043  0.00  0.00    +0.000 N 
ATOM      6  C   UNL     1     -12.078  55.888  48.794  0.00  0.00    +0.000 A 
ATOM      7  C   UNL     1     -13.118  56.329  49.633  0.00  0.00    +0.000 A 
ATOM      8  C   UNL     1     -12.152  56.137  47.413  0.00  0.00    +0.000 A 
ATOM      9  C   UNL     1     -14.208  57.006  49.063  0.00  0.00    +0.000 A 
ATOM     10  C   UNL     1     -13.229  56.830  46.866  0.00  0.00    +0.000 A 
ATOM     11  C   UNL     1     -14.257  57.264  47.691  0.00  0.00    +0.000 A 
ENDROOT
BRANCH   1  17
ATOM     12  S   UNL     1      -8.112  52.291  51.503  0.00  0.00    +0.000 S 
ATOM     13  O   UNL     1      -7.083  52.199  50.488  0.00  0.00    +0.000 OA
ATOM     14  O   UNL     1      -8.664  51.087  52.095  0.00  0.00    +0.000 OA
ATOM     15  N   UNL     1      -9.338  53.150  50.883  0.00  0.00    +0.000 N 
ATOM     16  C   UNL     1      -7.411  53.203  52.828  0.00  0.00    +0.000 A 
ATOM     17  C   UNL     1      -9.599  54.351  51.306  0.00  0.00    +0.000 C 
ATOM     18  C   UNL     1      -7.890  54.483  53.057  0.00  0.00    +0.000 A 
ATOM     19  C   UNL     1      -6.412  52.631  53.621  0.00  0.00    +0.000 A 
ATOM     20  N   UNL     1      -8.879  55.043  52.256  0.00  0.00    +0.000 N 
ATOM     21  C   UNL     1      -7.294  55.238  54.073  0.00  0.00    +0.000 A 
ATOM     22  C   UNL     1      -5.853  53.382  54.652  0.00  0.00    +0.000 A 
ATOM     23  C   UNL     1      -6.287  54.690  54.871  0.00  0.00    +0.000 A 
ATOM     24  H   UNL     1      -9.896  52.755  50.174  0.00  0.00    +0.000 HD
ATOM     25  H   UNL     1      -9.080  56.000  52.375  0.00  0.00    +0.000 HD
ENDBRANCH   1  17
BRANCH   3  26
ATOM     26  O   UNL     1     -10.001  54.717  48.447  0.00  0.00    +0.000 OA
ATOM     27  H   UNL     1      -9.089  54.895  48.570  0.00  0.00    +0.000 HD
ENDBRANCH   3  26
BRANCH   5  28
ATOM     28  C   UNL     1     -14.088  56.498  51.950  0.00  0.00    +0.000 C 
BRANCH  28  29
ATOM     29  C   UNL     1     -13.928  57.871  52.548  0.00  0.00    +0.000 C 
ATOM     30  C   UNL     1     -14.678  58.963  52.344  0.00  0.00    +0.000 C 
ENDBRANCH  28  29
ENDBRANCH   5  28
TORSDOF 4
ENDMDL
MODEL 8
REMARK VINA RESULT:      -7.5      4.258      5.950
REMARK  Name = 338198
REMARK  4 active torsions:
REMARK  status: ('A' for Active; 'I' for Inactive)
REMARK    1  A    between atoms: C_6  and  C_10
REMARK    2  A    between atoms: C_14  and  O_18
REMARK    3  A    between atoms: N_17  and  C_21
REMARK    4  A    between atoms: C_21  and  C_24
REMARK                            x       y       z     vdW  Elec       q    Type
REMARK                         _______ _______ _______ _____ _____    ______ ____
ROOT
ATOM      1  C   UNL     1     -10.799  55.717  48.647  0.00  0.00    +0.000 A 
ATOM      2  C   UNL     1     -11.160  55.251  47.274  0.00  0.00    +0.000 A 
ATOM      3  C   UNL     1      -9.546  55.547  49.106  0.00  0.00    +0.000 A 
ATOM      4  O   UNL     1     -12.281  55.528  46.836  0.00  0.00    +0.000 OA
ATOM      5  N   UNL     1     -10.226  54.520  46.555  0.00  0.00    +0.000 N 
ATOM      6  C   UNL     1      -8.523  54.910  48.265  0.00  0.00    +0.000 A 
ATOM      7  C   UNL     1      -8.878  54.381  47.010  0.00  0.00    +0.000 A 
ATOM      8  C   UNL     1      -7.188  54.829  48.697  0.00  0.00    +0.000 A 
ATOM      9  C   UNL     1      -7.884  53.779  46.223  0.00  0.00    +0.000 A 
ATOM     10  C   UNL     1      -6.210  54.247  47.894  0.00  0.00    +0.000 A 
ATOM     11  C   UNL     1      -6.558  53.722  46.657  0.00  0.00    +0.000 A 
ENDROOT
BRANCH   1  17
ATOM     12  S   UNL     1     -13.518  56.366  51.407  0.00  0.00    +0.000 S 
ATOM     13  O   UNL     1     -12.945  56.664  52.704  0.00  0.00    +0.000 OA
ATOM     14  O   UNL     1     -14.674  55.497  51.301  0.00  0.00    +0.000 OA
ATOM     15  N   UNL     1     -12.342  55.748  50.480  0.00  0.00    +0.000 N 
ATOM     16  C   UNL     1     -14.008  57.907  50.725  0.00  0.00    +0.000 A 
ATOM     17  C   UNL     1     -11.847  56.422  49.484  0.00  0.00    +0.000 C 
ATOM     18  C   UNL     1     -13.290  58.395  49.646  0.00  0.00    +0.000 A 
ATOM     19  C   UNL     1     -15.100  58.595  51.263  0.00  0.00    +0.000 A 
ATOM     20  N   UNL     1     -12.201  57.704  49.125  0.00  0.00    +0.000 N 
ATOM     21  C   UNL     1     -13.637  59.651  49.137  0.00  0.00    +0.000 A 
ATOM     22  C   UNL     1     -15.457  59.828  50.722  0.00  0.00    +0.000 A 
ATOM     23  C   UNL     1     -14.718  60.361  49.665  0.00  0.00    +0.000 A 
ATOM     24  H   UNL     1     -11.996  54.847  50.673  0.00  0.00    +0.000 HD
ATOM     25  H   UNL     1     -11.644  58.163  48.454  0.00  0.00    +0.000 HD
ENDBRANCH   1  17
BRANCH   3  26
ATOM     26  O   UNL     1      -9.108  55.962  50.352  0.00  0.00    +0.000 OA
ATOM     27  H   UNL     1      -9.724  56.276  50.985  0.00  0.00    +0.000 HD
ENDBRANCH   3  26
BRANCH   5  28
ATOM     28  C   UNL     1     -10.663  53.930  45.293  0.00  0.00    +0.000 C 
BRANCH  28  29
ATOM     29  C   UNL     1     -11.375  52.613  45.451  0.00  0.00    +0.000 C 
ATOM     30  C   UNL     1     -11.146  51.642  46.348  0.00  0.00    +0.000 C 
ENDBRANCH  28  29
ENDBRANCH   5  28
TORSDOF 4
ENDMDL
MODEL 9
REMARK VINA RESULT:      -7.5      2.288      7.577
REMARK  Name = 338198
REMARK  4 active torsions:
REMARK  status: ('A' for Active; 'I' for Inactive)
REMARK    1  A    between atoms: C_6  and  C_10
REMARK    2  A    between atoms: C_14  and  O_18
REMARK    3  A    between atoms: N_17  and  C_21
REMARK    4  A    between atoms: C_21  and  C_24
REMARK                            x       y       z     vdW  Elec       q    Type
REMARK                         _______ _______ _______ _____ _____    ______ ____
ROOT
ATOM      1  C   UNL     1     -10.915  55.338  51.110  0.00  0.00    +0.000 A 
ATOM      2  C   UNL     1     -12.138  55.925  51.734  0.00  0.00    +0.000 A 
ATOM      3  C   UNL     1     -10.790  55.310  49.771  0.00  0.00    +0.000 A 
ATOM      4  O   UNL     1     -12.170  56.046  52.962  0.00  0.00    +0.000 OA
ATOM      5  N   UNL     1     -13.189  56.298  50.908  0.00  0.00    +0.000 N 
ATOM      6  C   UNL     1     -11.849  55.859  48.912  0.00  0.00    +0.000 A 
ATOM      7  C   UNL     1     -13.046  56.323  49.486  0.00  0.00    +0.000 A 
ATOM      8  C   UNL     1     -11.678  55.931  47.519  0.00  0.00    +0.000 A 
ATOM      9  C   UNL     1     -14.044  56.844  48.647  0.00  0.00    +0.000 A 
ATOM     10  C   UNL     1     -12.668  56.471  46.702  0.00  0.00    +0.000 A 
ATOM     11  C   UNL     1     -13.851  56.927  47.266  0.00  0.00    +0.000 A 
ENDROOT
BRANCH   1  17
ATOM     12  S   UNL     1      -7.394  54.982  52.816  0.00  0.00    +0.000 S 
ATOM     13  O   UNL     1      -7.182  55.944  53.878  0.00  0.00    +0.000 OA
ATOM     14  O   UNL     1      -6.325  54.673  51.885  0.00  0.00    +0.000 OA
ATOM     15  N   UNL     1      -8.678  55.472  51.957  0.00  0.00    +0.000 N 
ATOM     16  C   UNL     1      -7.800  53.467  53.604  0.00  0.00    +0.000 A 
ATOM     17  C   UNL     1      -9.805  54.827  52.006  0.00  0.00    +0.000 C 
ATOM     18  C   UNL     1      -9.101  53.005  53.487  0.00  0.00    +0.000 A 
ATOM     19  C   UNL     1      -6.822  52.761  54.309  0.00  0.00    +0.000 A 
ATOM     20  N   UNL     1     -10.067  53.723  52.788  0.00  0.00    +0.000 N 
ATOM     21  C   UNL     1      -9.447  51.831  54.163  0.00  0.00    +0.000 A 
ATOM     22  C   UNL     1      -7.172  51.573  54.947  0.00  0.00    +0.000 A 
ATOM     23  C   UNL     1      -8.489  51.114  54.883  0.00  0.00    +0.000 A 
ATOM     24  H   UNL     1      -8.602  56.271  51.388  0.00  0.00    +0.000 HD
ATOM     25  H   UNL     1     -11.002  53.421  52.857  0.00  0.00    +0.000 HD
ENDBRANCH   1  17
BRANCH   3  26
ATOM     26  O   UNL     1      -9.689  54.808  49.098  0.00  0.00    +0.000 OA
ATOM     27  H   UNL     1      -9.255  54.041  49.417  0.00  0.00    +0.000 HD
ENDBRANCH   3  26
BRANCH   5  28
ATOM     28  C   UNL     1     -14.436  56.705  51.551  0.00  0.00    +0.000 C 
BRANCH  28  29
ATOM     29  C   UNL     1     -14.432  58.129  52.039  0.00  0.00    +0.000 C 
ATOM     30  C   UNL     1     -14.755  59.243  51.366  0.00  0.00    +0.000 C 
ENDBRANCH  28  29
ENDBRANCH   5  28
TORSDOF 4
ENDMDL
