MODEL 1
REMARK VINA RESULT:      -8.6      0.000      0.000
REMARK  Name = 338290
REMARK  5 active torsions:
REMARK  status: ('A' for Active; 'I' for Inactive)
REMARK    1  A    between atoms: C_6  and  C_10
REMARK    2  A    between atoms: C_14  and  O_18
REMARK    3  A    between atoms: N_17  and  C_21
REMARK    4  A    between atoms: C_21  and  C_24
REMARK    5  A    between atoms: C_27  and  C_29
REMARK                            x       y       z     vdW  Elec       q    Type
REMARK                         _______ _______ _______ _____ _____    ______ ____
ROOT
ATOM      1  C   UNL     1     -12.484  54.269  50.141  0.00  0.00    +0.000 A 
ATOM      2  C   UNL     1     -12.319  53.870  48.715  0.00  0.00    +0.000 A 
ATOM      3  C   UNL     1     -11.802  53.583  51.072  0.00  0.00    +0.000 A 
ATOM      4  O   UNL     1     -12.432  54.740  47.847  0.00  0.00    +0.000 OA
ATOM      5  N   UNL     1     -12.050  52.522  48.451  0.00  0.00    +0.000 N 
ATOM      6  C   UNL     1     -10.961  52.448  50.651  0.00  0.00    +0.000 A 
ATOM      7  C   UNL     1     -11.146  51.880  49.368  0.00  0.00    +0.000 A 
ATOM      8  C   UNL     1      -9.940  51.965  51.484  0.00  0.00    +0.000 A 
ATOM      9  C   UNL     1     -10.331  50.814  48.972  0.00  0.00    +0.000 A 
ATOM     10  C   UNL     1      -9.092  50.949  51.046  0.00  0.00    +0.000 A 
ATOM     11  C   UNL     1      -9.294  50.370  49.796  0.00  0.00    +0.000 A 
ENDROOT
BRANCH   1  17
ATOM     12  S   UNL     1     -15.405  56.542  51.397  0.00  0.00    +0.000 S 
ATOM     13  O   UNL     1     -15.424  56.795  52.828  0.00  0.00    +0.000 OA
ATOM     14  O   UNL     1     -16.637  56.247  50.692  0.00  0.00    +0.000 OA
ATOM     15  N   UNL     1     -14.373  55.314  51.146  0.00  0.00    +0.000 N 
ATOM     16  C   UNL     1     -14.753  57.993  50.665  0.00  0.00    +0.000 A 
ATOM     17  C   UNL     1     -13.285  55.502  50.456  0.00  0.00    +0.000 C 
ATOM     18  C   UNL     1     -13.541  57.895  50.000  0.00  0.00    +0.000 A 
ATOM     19  C   UNL     1     -15.451  59.200  50.762  0.00  0.00    +0.000 A 
ATOM     20  N   UNL     1     -12.840  56.699  49.949  0.00  0.00    +0.000 N 
ATOM     21  C   UNL     1     -12.995  59.060  49.450  0.00  0.00    +0.000 A 
ATOM     22  C   UNL     1     -14.907  60.349  50.192  0.00  0.00    +0.000 A 
ATOM     23  C   UNL     1     -13.673  60.278  49.544  0.00  0.00    +0.000 A 
ATOM     24  H   UNL     1     -14.570  54.423  51.518  0.00  0.00    +0.000 HD
ATOM     25  H   UNL     1     -11.955  56.710  49.516  0.00  0.00    +0.000 HD
ENDBRANCH   1  17
BRANCH   3  26
ATOM     26  O   UNL     1     -11.769  53.903  52.417  0.00  0.00    +0.000 OA
ATOM     27  H   UNL     1     -12.328  53.454  53.020  0.00  0.00    +0.000 HD
ENDBRANCH   3  26
BRANCH   5  28
ATOM     28  C   UNL     1     -12.131  52.117  47.047  0.00  0.00    +0.000 C 
BRANCH  28  29
ATOM     29  C   UNL     1     -10.994  52.590  46.145  0.00  0.00    +0.000 C 
ATOM     30  C   UNL     1     -11.261  53.315  44.790  0.00  0.00    +0.000 C 
ATOM     31  C   UNL     1      -9.876  51.821  45.359  0.00  0.00    +0.000 C 
ATOM     32  C   UNL     1      -9.743  53.128  44.523  0.00  0.00    +0.000 C 
ENDBRANCH  28  29
ENDBRANCH   5  28
TORSDOF 4
ENDMDL
MODEL 2
REMARK VINA RESULT:      -8.5      3.713      4.855
REMARK  Name = 338290
REMARK  5 active torsions:
REMARK  status: ('A' for Active; 'I' for Inactive)
REMARK    1  A    between atoms: C_6  and  C_10
REMARK    2  A    between atoms: C_14  and  O_18
REMARK    3  A    between atoms: N_17  and  C_21
REMARK    4  A    between atoms: C_21  and  C_24
REMARK    5  A    between atoms: C_27  and  C_29
REMARK                            x       y       z     vdW  Elec       q    Type
REMARK                         _______ _______ _______ _____ _____    ______ ____
ROOT
ATOM      1  C   UNL     1     -10.237  54.151  52.302  0.00  0.00    +0.000 A 
ATOM      2  C   UNL     1      -8.833  54.647  52.331  0.00  0.00    +0.000 A 
ATOM      3  C   UNL     1     -10.532  53.045  53.003  0.00  0.00    +0.000 A 
ATOM      4  O   UNL     1      -8.638  55.861  52.214  0.00  0.00    +0.000 OA
ATOM      5  N   UNL     1      -7.818  53.696  52.487  0.00  0.00    +0.000 N 
ATOM      6  C   UNL     1      -9.453  52.351  53.730  0.00  0.00    +0.000 A 
ATOM      7  C   UNL     1      -8.103  52.632  53.410  0.00  0.00    +0.000 A 
ATOM      8  C   UNL     1      -9.750  51.463  54.775  0.00  0.00    +0.000 A 
ATOM      9  C   UNL     1      -7.087  51.980  54.118  0.00  0.00    +0.000 A 
ATOM     10  C   UNL     1      -8.725  50.877  55.516  0.00  0.00    +0.000 A 
ATOM     11  C   UNL     1      -7.398  51.128  55.182  0.00  0.00    +0.000 A 
ENDROOT
BRANCH   1  17
ATOM     12  S   UNL     1     -12.171  56.036  49.475  0.00  0.00    +0.000 S 
ATOM     13  O   UNL     1     -13.039  55.205  48.657  0.00  0.00    +0.000 OA
ATOM     14  O   UNL     1     -11.338  57.049  48.858  0.00  0.00    +0.000 OA
ATOM     15  N   UNL     1     -11.208  55.032  50.313  0.00  0.00    +0.000 N 
ATOM     16  C   UNL     1     -13.228  56.876  50.590  0.00  0.00    +0.000 A 
ATOM     17  C   UNL     1     -11.282  54.986  51.613  0.00  0.00    +0.000 C 
ATOM     18  C   UNL     1     -13.091  56.603  51.942  0.00  0.00    +0.000 A 
ATOM     19  C   UNL     1     -14.171  57.787  50.108  0.00  0.00    +0.000 A 
ATOM     20  N   UNL     1     -12.179  55.665  52.402  0.00  0.00    +0.000 N 
ATOM     21  C   UNL     1     -13.961  57.240  52.834  0.00  0.00    +0.000 A 
ATOM     22  C   UNL     1     -15.018  58.431  51.008  0.00  0.00    +0.000 A 
ATOM     23  C   UNL     1     -14.918  58.148  52.371  0.00  0.00    +0.000 A 
ATOM     24  H   UNL     1     -10.566  54.456  49.838  0.00  0.00    +0.000 HD
ATOM     25  H   UNL     1     -12.174  55.472  53.368  0.00  0.00    +0.000 HD
ENDBRANCH   1  17
BRANCH   3  26
ATOM     26  O   UNL     1     -11.805  52.529  53.159  0.00  0.00    +0.000 OA
ATOM     27  H   UNL     1     -12.002  51.666  52.852  0.00  0.00    +0.000 HD
ENDBRANCH   3  26
BRANCH   5  28
ATOM     28  C   UNL     1      -6.453  54.178  52.272  0.00  0.00    +0.000 C 
BRANCH  28  29
ATOM     29  C   UNL     1      -5.950  54.152  50.830  0.00  0.00    +0.000 C 
ATOM     30  C   UNL     1      -4.456  53.873  50.481  0.00  0.00    +0.000 C 
ATOM     31  C   UNL     1      -5.864  55.254  49.718  0.00  0.00    +0.000 C 
ATOM     32  C   UNL     1      -4.831  54.307  49.039  0.00  0.00    +0.000 C 
ENDBRANCH  28  29
ENDBRANCH   5  28
TORSDOF 4
ENDMDL
MODEL 3
REMARK VINA RESULT:      -8.4      3.402      7.604
REMARK  Name = 338290
REMARK  5 active torsions:
REMARK  status: ('A' for Active; 'I' for Inactive)
REMARK    1  A    between atoms: C_6  and  C_10
REMARK    2  A    between atoms: C_14  and  O_18
REMARK    3  A    between atoms: N_17  and  C_21
REMARK    4  A    between atoms: C_21  and  C_24
REMARK    5  A    between atoms: C_27  and  C_29
REMARK                            x       y       z     vdW  Elec       q    Type
REMARK                         _______ _______ _______ _____ _____    ______ ____
ROOT
ATOM      1  C   UNL     1     -10.972  54.675  50.658  0.00  0.00    +0.000 A 
ATOM      2  C   UNL     1     -12.078  55.355  51.390  0.00  0.00    +0.000 A 
ATOM      3  C   UNL     1     -10.935  54.788  49.321  0.00  0.00    +0.000 A 
ATOM      4  O   UNL     1     -11.862  55.754  52.538  0.00  0.00    +0.000 OA
ATOM      5  N   UNL     1     -13.301  55.493  50.723  0.00  0.00    +0.000 N 
ATOM      6  C   UNL     1     -12.005  55.538  48.637  0.00  0.00    +0.000 A 
ATOM      7  C   UNL     1     -13.210  55.818  49.326  0.00  0.00    +0.000 A 
ATOM      8  C   UNL     1     -11.818  56.028  47.336  0.00  0.00    +0.000 A 
ATOM      9  C   UNL     1     -14.212  56.545  48.673  0.00  0.00    +0.000 A 
ATOM     10  C   UNL     1     -12.798  56.809  46.727  0.00  0.00    +0.000 A 
ATOM     11  C   UNL     1     -13.995  57.059  47.392  0.00  0.00    +0.000 A 
ENDROOT
BRANCH   1  17
ATOM     12  S   UNL     1      -8.790  51.896  52.331  0.00  0.00    +0.000 S 
ATOM     13  O   UNL     1      -7.828  51.251  51.453  0.00  0.00    +0.000 OA
ATOM     14  O   UNL     1      -9.572  51.107  53.262  0.00  0.00    +0.000 OA
ATOM     15  N   UNL     1      -9.817  52.722  51.382  0.00  0.00    +0.000 N 
ATOM     16  C   UNL     1      -7.868  53.030  53.296  0.00  0.00    +0.000 A 
ATOM     17  C   UNL     1      -9.877  54.021  51.455  0.00  0.00    +0.000 C 
ATOM     18  C   UNL     1      -8.139  54.381  53.143  0.00  0.00    +0.000 A 
ATOM     19  C   UNL     1      -6.896  52.564  54.185  0.00  0.00    +0.000 A 
ATOM     20  N   UNL     1      -9.078  54.831  52.226  0.00  0.00    +0.000 N 
ATOM     21  C   UNL     1      -7.377  55.293  53.880  0.00  0.00    +0.000 A 
ATOM     22  C   UNL     1      -6.157  53.481  54.929  0.00  0.00    +0.000 A 
ATOM     23  C   UNL     1      -6.393  54.848  54.768  0.00  0.00    +0.000 A 
ATOM     24  H   UNL     1     -10.396  52.239  50.748  0.00  0.00    +0.000 HD
ATOM     25  H   UNL     1      -9.179  55.805  52.121  0.00  0.00    +0.000 HD
ENDBRANCH   1  17
BRANCH   3  26
ATOM     26  O   UNL     1      -9.917  54.307  48.519  0.00  0.00    +0.000 OA
ATOM     27  H   UNL     1      -9.970  53.442  48.164  0.00  0.00    +0.000 HD
ENDBRANCH   3  26
BRANCH   5  28
ATOM     28  C   UNL     1     -14.427  55.942  51.542  0.00  0.00    +0.000 C 
BRANCH  28  29
ATOM     29  C   UNL     1     -14.418  57.414  51.948  0.00  0.00    +0.000 C 
ATOM     30  C   UNL     1     -15.092  57.913  53.264  0.00  0.00    +0.000 C 
ATOM     31  C   UNL     1     -15.045  58.696  51.299  0.00  0.00    +0.000 C 
ATOM     32  C   UNL     1     -14.860  59.342  52.705  0.00  0.00    +0.000 C 
ENDBRANCH  28  29
ENDBRANCH   5  28
TORSDOF 4
ENDMDL
MODEL 4
REMARK VINA RESULT:      -8.2      3.588      7.873
REMARK  Name = 338290
REMARK  5 active torsions:
REMARK  status: ('A' for Active; 'I' for Inactive)
REMARK    1  A    between atoms: C_6  and  C_10
REMARK    2  A    between atoms: C_14  and  O_18
REMARK    3  A    between atoms: N_17  and  C_21
REMARK    4  A    between atoms: C_21  and  C_24
REMARK    5  A    between atoms: C_27  and  C_29
REMARK                            x       y       z     vdW  Elec       q    Type
REMARK                         _______ _______ _______ _____ _____    ______ ____
ROOT
ATOM      1  C   UNL     1     -10.419  54.573  51.119  0.00  0.00    +0.000 A 
ATOM      2  C   UNL     1     -11.641  55.265  51.619  0.00  0.00    +0.000 A 
ATOM      3  C   UNL     1     -10.205  54.546  49.795  0.00  0.00    +0.000 A 
ATOM      4  O   UNL     1     -11.599  55.795  52.734  0.00  0.00    +0.000 OA
ATOM      5  N   UNL     1     -12.766  55.266  50.786  0.00  0.00    +0.000 N 
ATOM      6  C   UNL     1     -11.201  55.160  48.897  0.00  0.00    +0.000 A 
ATOM      7  C   UNL     1     -12.498  55.446  49.385  0.00  0.00    +0.000 A 
ATOM      8  C   UNL     1     -10.857  55.520  47.584  0.00  0.00    +0.000 A 
ATOM      9  C   UNL     1     -13.430  56.044  48.529  0.00  0.00    +0.000 A 
ATOM     10  C   UNL     1     -11.776  56.178  46.769  0.00  0.00    +0.000 A 
ATOM     11  C   UNL     1     -13.061  56.431  47.238  0.00  0.00    +0.000 A 
ENDROOT
BRANCH   1  17
ATOM     12  S   UNL     1      -7.033  54.053  53.001  0.00  0.00    +0.000 S 
ATOM     13  O   UNL     1      -6.686  55.093  53.955  0.00  0.00    +0.000 OA
ATOM     14  O   UNL     1      -6.022  53.508  52.117  0.00  0.00    +0.000 OA
ATOM     15  N   UNL     1      -8.244  54.631  52.087  0.00  0.00    +0.000 N 
ATOM     16  C   UNL     1      -7.629  52.712  53.956  0.00  0.00    +0.000 A 
ATOM     17  C   UNL     1      -9.418  54.068  52.121  0.00  0.00    +0.000 C 
ATOM     18  C   UNL     1      -8.955  52.341  53.795  0.00  0.00    +0.000 A 
ATOM     19  C   UNL     1      -6.776  52.052  54.845  0.00  0.00    +0.000 A 
ATOM     20  N   UNL     1      -9.800  53.032  52.940  0.00  0.00    +0.000 N 
ATOM     21  C   UNL     1      -9.448  51.297  54.585  0.00  0.00    +0.000 A 
ATOM     22  C   UNL     1      -7.273  51.000  55.612  0.00  0.00    +0.000 A 
ATOM     23  C   UNL     1      -8.614  50.630  55.487  0.00  0.00    +0.000 A 
ATOM     24  H   UNL     1      -8.091  55.412  51.506  0.00  0.00    +0.000 HD
ATOM     25  H   UNL     1     -10.746  52.759  52.917  0.00  0.00    +0.000 HD
ENDBRANCH   1  17
BRANCH   3  26
ATOM     26  O   UNL     1      -9.068  54.040  49.192  0.00  0.00    +0.000 OA
ATOM     27  H   UNL     1      -9.126  53.634  48.350  0.00  0.00    +0.000 HD
ENDBRANCH   3  26
BRANCH   5  28
ATOM     28  C   UNL     1     -14.011  55.737  51.395  0.00  0.00    +0.000 C 
BRANCH  28  29
ATOM     29  C   UNL     1     -14.076  57.227  51.723  0.00  0.00    +0.000 C 
ATOM     30  C   UNL     1     -14.764  57.758  53.018  0.00  0.00    +0.000 C 
ATOM     31  C   UNL     1     -14.776  58.438  51.015  0.00  0.00    +0.000 C 
ATOM     32  C   UNL     1     -14.614  59.166  52.382  0.00  0.00    +0.000 C 
ENDBRANCH  28  29
ENDBRANCH   5  28
TORSDOF 4
ENDMDL
MODEL 5
REMARK VINA RESULT:      -8.2      4.001      5.064
REMARK  Name = 338290
REMARK  5 active torsions:
REMARK  status: ('A' for Active; 'I' for Inactive)
REMARK    1  A    between atoms: C_6  and  C_10
REMARK    2  A    between atoms: C_14  and  O_18
REMARK    3  A    between atoms: N_17  and  C_21
REMARK    4  A    between atoms: C_21  and  C_24
REMARK    5  A    between atoms: C_27  and  C_29
REMARK                            x       y       z     vdW  Elec       q    Type
REMARK                         _______ _______ _______ _____ _____    ______ ____
ROOT
ATOM      1  C   UNL     1      -9.139  55.102  51.510  0.00  0.00    +0.000 A 
ATOM      2  C   UNL     1      -8.039  55.578  50.625  0.00  0.00    +0.000 A 
ATOM      3  C   UNL     1      -8.818  54.665  52.737  0.00  0.00    +0.000 A 
ATOM      4  O   UNL     1      -8.292  56.459  49.798  0.00  0.00    +0.000 OA
ATOM      5  N   UNL     1      -6.780  54.987  50.788  0.00  0.00    +0.000 N 
ATOM      6  C   UNL     1      -7.399  54.635  53.138  0.00  0.00    +0.000 A 
ATOM      7  C   UNL     1      -6.393  54.722  52.146  0.00  0.00    +0.000 A 
ATOM      8  C   UNL     1      -7.038  54.582  54.493  0.00  0.00    +0.000 A 
ATOM      9  C   UNL     1      -5.049  54.710  52.539  0.00  0.00    +0.000 A 
ATOM     10  C   UNL     1      -5.698  54.642  54.869  0.00  0.00    +0.000 A 
ATOM     11  C   UNL     1      -4.706  54.696  53.894  0.00  0.00    +0.000 A 
ENDROOT
BRANCH   1  17
ATOM     12  S   UNL     1     -12.254  55.201  49.151  0.00  0.00    +0.000 S 
ATOM     13  O   UNL     1     -12.859  53.910  48.867  0.00  0.00    +0.000 OA
ATOM     14  O   UNL     1     -12.077  56.172  48.090  0.00  0.00    +0.000 OA
ATOM     15  N   UNL     1     -10.802  54.908  49.817  0.00  0.00    +0.000 N 
ATOM     16  C   UNL     1     -13.287  55.957  50.346  0.00  0.00    +0.000 A 
ATOM     17  C   UNL     1     -10.559  55.268  51.044  0.00  0.00    +0.000 C 
ATOM     18  C   UNL     1     -12.753  56.205  51.601  0.00  0.00    +0.000 A 
ATOM     19  C   UNL     1     -14.605  56.292  50.021  0.00  0.00    +0.000 A 
ATOM     20  N   UNL     1     -11.457  55.829  51.921  0.00  0.00    +0.000 N 
ATOM     21  C   UNL     1     -13.586  56.771  52.572  0.00  0.00    +0.000 A 
ATOM     22  C   UNL     1     -15.419  56.875  50.990  0.00  0.00    +0.000 A 
ATOM     23  C   UNL     1     -14.910  57.104  52.269  0.00  0.00    +0.000 A 
ATOM     24  H   UNL     1     -10.103  54.456  49.291  0.00  0.00    +0.000 HD
ATOM     25  H   UNL     1     -11.158  55.976  52.848  0.00  0.00    +0.000 HD
ENDBRANCH   1  17
BRANCH   3  26
ATOM     26  O   UNL     1      -9.734  54.297  53.705  0.00  0.00    +0.000 OA
ATOM     27  H   UNL     1      -9.459  53.784  54.440  0.00  0.00    +0.000 HD
ENDBRANCH   3  26
BRANCH   5  28
ATOM     28  C   UNL     1      -5.790  55.297  49.755  0.00  0.00    +0.000 C 
BRANCH  28  29
ATOM     29  C   UNL     1      -5.346  54.129  48.877  0.00  0.00    +0.000 C 
ATOM     30  C   UNL     1      -6.371  53.212  48.143  0.00  0.00    +0.000 C 
ATOM     31  C   UNL     1      -4.583  52.797  49.194  0.00  0.00    +0.000 C 
ATOM     32  C   UNL     1      -5.156  52.297  47.835  0.00  0.00    +0.000 C 
ENDBRANCH  28  29
ENDBRANCH   5  28
TORSDOF 4
ENDMDL
MODEL 6
REMARK VINA RESULT:      -8.2      2.881      4.415
REMARK  Name = 338290
REMARK  5 active torsions:
REMARK  status: ('A' for Active; 'I' for Inactive)
REMARK    1  A    between atoms: C_6  and  C_10
REMARK    2  A    between atoms: C_14  and  O_18
REMARK    3  A    between atoms: N_17  and  C_21
REMARK    4  A    between atoms: C_21  and  C_24
REMARK    5  A    between atoms: C_27  and  C_29
REMARK                            x       y       z     vdW  Elec       q    Type
REMARK                         _______ _______ _______ _____ _____    ______ ____
ROOT
ATOM      1  C   UNL     1     -11.855  55.874  48.508  0.00  0.00    +0.000 A 
ATOM      2  C   UNL     1     -11.006  54.954  49.316  0.00  0.00    +0.000 A 
ATOM      3  C   UNL     1     -11.916  55.677  47.182  0.00  0.00    +0.000 A 
ATOM      4  O   UNL     1     -11.338  54.723  50.483  0.00  0.00    +0.000 OA
ATOM      5  N   UNL     1      -9.876  54.410  48.695  0.00  0.00    +0.000 N 
ATOM      6  C   UNL     1     -11.113  54.595  46.582  0.00  0.00    +0.000 A 
ATOM      7  C   UNL     1     -10.051  54.023  47.321  0.00  0.00    +0.000 A 
ATOM      8  C   UNL     1     -11.431  54.087  45.313  0.00  0.00    +0.000 A 
ATOM      9  C   UNL     1      -9.306  52.985  46.749  0.00  0.00    +0.000 A 
ATOM     10  C   UNL     1     -10.724  53.008  44.788  0.00  0.00    +0.000 A 
ATOM     11  C   UNL     1      -9.659  52.465  45.501  0.00  0.00    +0.000 A 
ENDROOT
BRANCH   1  17
ATOM     12  S   UNL     1     -13.556  59.269  49.437  0.00  0.00    +0.000 S 
ATOM     13  O   UNL     1     -14.723  59.616  48.642  0.00  0.00    +0.000 OA
ATOM     14  O   UNL     1     -12.567  60.278  49.761  0.00  0.00    +0.000 OA
ATOM     15  N   UNL     1     -12.804  58.052  48.668  0.00  0.00    +0.000 N 
ATOM     16  C   UNL     1     -14.179  58.679  50.963  0.00  0.00    +0.000 A 
ATOM     17  C   UNL     1     -12.711  56.880  49.227  0.00  0.00    +0.000 C 
ATOM     18  C   UNL     1     -13.941  57.353  51.292  0.00  0.00    +0.000 A 
ATOM     19  C   UNL     1     -14.890  59.537  51.807  0.00  0.00    +0.000 A 
ATOM     20  N   UNL     1     -13.270  56.503  50.425  0.00  0.00    +0.000 N 
ATOM     21  C   UNL     1     -14.472  56.866  52.491  0.00  0.00    +0.000 A 
ATOM     22  C   UNL     1     -15.396  59.045  53.009  0.00  0.00    +0.000 A 
ATOM     23  C   UNL     1     -15.194  57.705  53.344  0.00  0.00    +0.000 A 
ATOM     24  H   UNL     1     -12.417  58.201  47.774  0.00  0.00    +0.000 HD
ATOM     25  H   UNL     1     -13.189  55.558  50.689  0.00  0.00    +0.000 HD
ENDBRANCH   1  17
BRANCH   3  26
ATOM     26  O   UNL     1     -12.741  56.377  46.321  0.00  0.00    +0.000 OA
ATOM     27  H   UNL     1     -12.395  56.729  45.524  0.00  0.00    +0.000 HD
ENDBRANCH   3  26
BRANCH   5  28
ATOM     28  C   UNL     1      -8.938  53.709  49.574  0.00  0.00    +0.000 C 
BRANCH  28  29
ATOM     29  C   UNL     1      -7.505  54.236  49.585  0.00  0.00    +0.000 C 
ATOM     30  C   UNL     1      -7.146  55.643  50.155  0.00  0.00    +0.000 C 
ATOM     31  C   UNL     1      -6.500  54.593  48.436  0.00  0.00    +0.000 C 
ATOM     32  C   UNL     1      -5.747  55.414  49.525  0.00  0.00    +0.000 C 
ENDBRANCH  28  29
ENDBRANCH   5  28
TORSDOF 4
ENDMDL
MODEL 7
REMARK VINA RESULT:      -8.2      2.490      3.110
REMARK  Name = 338290
REMARK  5 active torsions:
REMARK  status: ('A' for Active; 'I' for Inactive)
REMARK    1  A    between atoms: C_6  and  C_10
REMARK    2  A    between atoms: C_14  and  O_18
REMARK    3  A    between atoms: N_17  and  C_21
REMARK    4  A    between atoms: C_21  and  C_24
REMARK    5  A    between atoms: C_27  and  C_29
REMARK                            x       y       z     vdW  Elec       q    Type
REMARK                         _______ _______ _______ _____ _____    ______ ____
ROOT
ATOM      1  C   UNL     1     -11.110  54.673  50.807  0.00  0.00    +0.000 A 
ATOM      2  C   UNL     1      -9.724  55.084  50.445  0.00  0.00    +0.000 A 
ATOM      3  C   UNL     1     -11.295  53.439  51.301  0.00  0.00    +0.000 A 
ATOM      4  O   UNL     1      -9.423  56.278  50.540  0.00  0.00    +0.000 OA
ATOM      5  N   UNL     1      -8.848  54.081  50.014  0.00  0.00    +0.000 N 
ATOM      6  C   UNL     1     -10.135  52.536  51.424  0.00  0.00    +0.000 A 
ATOM      7  C   UNL     1      -8.944  52.830  50.716  0.00  0.00    +0.000 A 
ATOM      8  C   UNL     1     -10.178  51.425  52.280  0.00  0.00    +0.000 A 
ATOM      9  C   UNL     1      -7.844  51.976  50.853  0.00  0.00    +0.000 A 
ATOM     10  C   UNL     1      -9.051  50.626  52.457  0.00  0.00    +0.000 A 
ATOM     11  C   UNL     1      -7.890  50.897  51.738  0.00  0.00    +0.000 A 
ENDROOT
BRANCH   1  17
ATOM     12  S   UNL     1     -13.523  57.395  49.377  0.00  0.00    +0.000 S 
ATOM     13  O   UNL     1     -14.663  56.885  48.634  0.00  0.00    +0.000 OA
ATOM     14  O   UNL     1     -12.785  58.541  48.884  0.00  0.00    +0.000 OA
ATOM     15  N   UNL     1     -12.482  56.161  49.553  0.00  0.00    +0.000 N 
ATOM     16  C   UNL     1     -14.143  57.846  50.951  0.00  0.00    +0.000 A 
ATOM     17  C   UNL     1     -12.206  55.700  50.739  0.00  0.00    +0.000 C 
ATOM     18  C   UNL     1     -13.676  57.151  52.055  0.00  0.00    +0.000 A 
ATOM     19  C   UNL     1     -15.079  58.878  51.064  0.00  0.00    +0.000 A 
ATOM     20  N   UNL     1     -12.779  56.102  51.922  0.00  0.00    +0.000 N 
ATOM     21  C   UNL     1     -14.200  57.480  53.310  0.00  0.00    +0.000 A 
ATOM     22  C   UNL     1     -15.578  59.211  52.322  0.00  0.00    +0.000 A 
ATOM     23  C   UNL     1     -15.143  58.502  53.444  0.00  0.00    +0.000 A 
ATOM     24  H   UNL     1     -12.058  55.759  48.760  0.00  0.00    +0.000 HD
ATOM     25  H   UNL     1     -12.534  55.608  52.738  0.00  0.00    +0.000 HD
ENDBRANCH   1  17
BRANCH   3  26
ATOM     26  O   UNL     1     -12.498  52.956  51.781  0.00  0.00    +0.000 OA
ATOM     27  H   UNL     1     -12.578  52.708  52.681  0.00  0.00    +0.000 HD
ENDBRANCH   3  26
BRANCH   5  28
ATOM     28  C   UNL     1      -7.582  54.542  49.441  0.00  0.00    +0.000 C 
BRANCH  28  29
ATOM     29  C   UNL     1      -7.584  54.815  47.939  0.00  0.00    +0.000 C 
ATOM     30  C   UNL     1      -8.903  54.849  47.107  0.00  0.00    +0.000 C 
ATOM     31  C   UNL     1      -6.992  54.028  46.719  0.00  0.00    +0.000 C 
ATOM     32  C   UNL     1      -7.980  54.872  45.860  0.00  0.00    +0.000 C 
ENDBRANCH  28  29
ENDBRANCH   5  28
TORSDOF 4
ENDMDL
MODEL 8
REMARK VINA RESULT:      -8.1      3.359      4.636
REMARK  Name = 338290
REMARK  5 active torsions:
REMARK  status: ('A' for Active; 'I' for Inactive)
REMARK    1  A    between atoms: C_6  and  C_10
REMARK    2  A    between atoms: C_14  and  O_18
REMARK    3  A    between atoms: N_17  and  C_21
REMARK    4  A    between atoms: C_21  and  C_24
REMARK    5  A    between atoms: C_27  and  C_29
REMARK                            x       y       z     vdW  Elec       q    Type
REMARK                         _______ _______ _______ _____ _____    ______ ____
ROOT
ATOM      1  C   UNL     1     -10.273  54.299  52.070  0.00  0.00    +0.000 A 
ATOM      2  C   UNL     1      -8.866  54.786  52.121  0.00  0.00    +0.000 A 
ATOM      3  C   UNL     1     -10.587  53.199  52.773  0.00  0.00    +0.000 A 
ATOM      4  O   UNL     1      -8.661  55.998  51.999  0.00  0.00    +0.000 OA
ATOM      5  N   UNL     1      -7.860  53.830  52.301  0.00  0.00    +0.000 N 
ATOM      6  C   UNL     1      -9.526  52.503  53.524  0.00  0.00    +0.000 A 
ATOM      7  C   UNL     1      -8.169  52.773  53.226  0.00  0.00    +0.000 A 
ATOM      8  C   UNL     1      -9.847  51.624  54.570  0.00  0.00    +0.000 A 
ATOM      9  C   UNL     1      -7.170  52.120  53.956  0.00  0.00    +0.000 A 
ATOM     10  C   UNL     1      -8.840  51.036  55.332  0.00  0.00    +0.000 A 
ATOM     11  C   UNL     1      -7.505  51.277  55.019  0.00  0.00    +0.000 A 
ENDROOT
BRANCH   1  17
ATOM     12  S   UNL     1     -13.509  56.391  51.416  0.00  0.00    +0.000 S 
ATOM     13  O   UNL     1     -13.461  57.769  51.875  0.00  0.00    +0.000 OA
ATOM     14  O   UNL     1     -14.700  55.593  51.628  0.00  0.00    +0.000 OA
ATOM     15  N   UNL     1     -12.255  55.619  52.099  0.00  0.00    +0.000 N 
ATOM     16  C   UNL     1     -13.262  56.458  49.683  0.00  0.00    +0.000 A 
ATOM     17  C   UNL     1     -11.299  55.136  51.358  0.00  0.00    +0.000 C 
ATOM     18  C   UNL     1     -12.120  55.865  49.168  0.00  0.00    +0.000 A 
ATOM     19  C   UNL     1     -14.201  57.095  48.867  0.00  0.00    +0.000 A 
ATOM     20  N   UNL     1     -11.177  55.274  49.996  0.00  0.00    +0.000 N 
ATOM     21  C   UNL     1     -11.897  55.953  47.790  0.00  0.00    +0.000 A 
ATOM     22  C   UNL     1     -13.978  57.157  47.492  0.00  0.00    +0.000 A 
ATOM     23  C   UNL     1     -12.818  56.593  46.957  0.00  0.00    +0.000 A 
ATOM     24  H   UNL     1     -12.216  55.517  53.078  0.00  0.00    +0.000 HD
ATOM     25  H   UNL     1     -10.358  54.926  49.574  0.00  0.00    +0.000 HD
ENDBRANCH   1  17
BRANCH   3  26
ATOM     26  O   UNL     1     -11.866  52.693  52.910  0.00  0.00    +0.000 OA
ATOM     27  H   UNL     1     -12.381  52.916  53.661  0.00  0.00    +0.000 HD
ENDBRANCH   3  26
BRANCH   5  28
ATOM     28  C   UNL     1      -6.488  54.301  52.107  0.00  0.00    +0.000 C 
BRANCH  28  29
ATOM     29  C   UNL     1      -5.935  54.194  50.688  0.00  0.00    +0.000 C 
ATOM     30  C   UNL     1      -4.465  53.758  50.405  0.00  0.00    +0.000 C 
ATOM     31  C   UNL     1      -5.695  55.258  49.562  0.00  0.00    +0.000 C 
ATOM     32  C   UNL     1      -4.737  54.197  48.942  0.00  0.00    +0.000 C 
ENDBRANCH  28  29
ENDBRANCH   5  28
TORSDOF 4
ENDMDL
MODEL 9
REMARK VINA RESULT:      -8.0      2.616      4.307
REMARK  Name = 338290
REMARK  5 active torsions:
REMARK  status: ('A' for Active; 'I' for Inactive)
REMARK    1  A    between atoms: C_6  and  C_10
REMARK    2  A    between atoms: C_14  and  O_18
REMARK    3  A    between atoms: N_17  and  C_21
REMARK    4  A    between atoms: C_21  and  C_24
REMARK    5  A    between atoms: C_27  and  C_29
REMARK                            x       y       z     vdW  Elec       q    Type
REMARK                         _______ _______ _______ _____ _____    ______ ____
ROOT
ATOM      1  C   UNL     1     -10.780  55.481  48.176  0.00  0.00    +0.000 A 
ATOM      2  C   UNL     1      -9.407  55.085  48.599  0.00  0.00    +0.000 A 
ATOM      3  C   UNL     1     -11.189  55.130  46.947  0.00  0.00    +0.000 A 
ATOM      4  O   UNL     1      -9.203  54.871  49.798  0.00  0.00    +0.000 OA
ATOM      5  N   UNL     1      -8.430  54.985  47.602  0.00  0.00    +0.000 N 
ATOM      6  C   UNL     1     -10.254  54.411  46.061  0.00  0.00    +0.000 A 
ATOM      7  C   UNL     1      -8.871  54.410  46.360  0.00  0.00    +0.000 A 
ATOM      8  C   UNL     1     -10.729  53.679  44.961  0.00  0.00    +0.000 A 
ATOM      9  C   UNL     1      -7.995  53.710  45.522  0.00  0.00    +0.000 A 
ATOM     10  C   UNL     1      -9.851  52.932  44.179  0.00  0.00    +0.000 A 
ATOM     11  C   UNL     1      -8.487  52.955  44.454  0.00  0.00    +0.000 A 
ENDROOT
BRANCH   1  17
ATOM     12  S   UNL     1     -13.041  55.933  51.332  0.00  0.00    +0.000 S 
ATOM     13  O   UNL     1     -12.330  56.191  52.574  0.00  0.00    +0.000 OA
ATOM     14  O   UNL     1     -14.160  55.011  51.311  0.00  0.00    +0.000 OA
ATOM     15  N   UNL     1     -11.941  55.418  50.254  0.00  0.00    +0.000 N 
ATOM     16  C   UNL     1     -13.668  57.483  50.812  0.00  0.00    +0.000 A 
ATOM     17  C   UNL     1     -11.688  56.123  49.189  0.00  0.00    +0.000 C 
ATOM     18  C   UNL     1     -13.188  58.009  49.623  0.00  0.00    +0.000 A 
ATOM     19  C   UNL     1     -14.621  58.148  51.588  0.00  0.00    +0.000 A 
ATOM     20  N   UNL     1     -12.211  57.357  48.886  0.00  0.00    +0.000 N 
ATOM     21  C   UNL     1     -13.654  59.267  49.224  0.00  0.00    +0.000 A 
ATOM     22  C   UNL     1     -15.093  59.391  51.169  0.00  0.00    +0.000 A 
ATOM     23  C   UNL     1     -14.601  59.953  49.990  0.00  0.00    +0.000 A 
ATOM     24  H   UNL     1     -11.463  54.571  50.407  0.00  0.00    +0.000 HD
ATOM     25  H   UNL     1     -11.868  57.813  48.084  0.00  0.00    +0.000 HD
ENDBRANCH   1  17
BRANCH   3  26
ATOM     26  O   UNL     1     -12.465  55.330  46.456  0.00  0.00    +0.000 OA
ATOM     27  H   UNL     1     -13.146  55.626  47.028  0.00  0.00    +0.000 HD
ENDBRANCH   3  26
BRANCH   5  28
ATOM     28  C   UNL     1      -7.052  54.832  48.070  0.00  0.00    +0.000 C 
BRANCH  28  29
ATOM     29  C   UNL     1      -6.596  53.404  48.361  0.00  0.00    +0.000 C 
ATOM     30  C   UNL     1      -6.280  52.916  49.808  0.00  0.00    +0.000 C 
ATOM     31  C   UNL     1      -5.315  52.598  47.953  0.00  0.00    +0.000 C 
ATOM     32  C   UNL     1      -5.693  51.650  49.129  0.00  0.00    +0.000 C 
ENDBRANCH  28  29
ENDBRANCH   5  28
TORSDOF 4
ENDMDL
