MODEL 1
REMARK VINA RESULT:      -8.4      0.000      0.000
REMARK  Name = 338146
REMARK  5 active torsions:
REMARK  status: ('A' for Active; 'I' for Inactive)
REMARK    1  A    between atoms: C_6  and  C_10
REMARK    2  A    between atoms: C_14  and  O_18
REMARK    3  A    between atoms: N_17  and  C_21
REMARK    4  A    between atoms: C_21  and  C_24
REMARK    5  A    between atoms: C_24  and  C_27
REMARK                            x       y       z     vdW  Elec       q    Type
REMARK                         _______ _______ _______ _____ _____    ______ ____
ROOT
ATOM      1  C   UNL     1     -10.065  54.417  52.298  0.00  0.00    +0.000 A 
ATOM      2  C   UNL     1      -8.687  54.994  52.213  0.00  0.00    +0.000 A 
ATOM      3  C   UNL     1     -10.283  53.297  53.009  0.00  0.00    +0.000 A 
ATOM      4  O   UNL     1      -8.540  56.065  51.616  0.00  0.00    +0.000 OA
ATOM      5  N   UNL     1      -7.636  54.319  52.824  0.00  0.00    +0.000 N 
ATOM      6  C   UNL     1      -9.178  52.645  53.728  0.00  0.00    +0.000 A 
ATOM      7  C   UNL     1      -7.875  53.169  53.640  0.00  0.00    +0.000 A 
ATOM      8  C   UNL     1      -9.416  51.512  54.526  0.00  0.00    +0.000 A 
ATOM      9  C   UNL     1      -6.852  52.557  54.383  0.00  0.00    +0.000 A 
ATOM     10  C   UNL     1      -8.385  50.907  55.242  0.00  0.00    +0.000 A 
ATOM     11  C   UNL     1      -7.103  51.433  55.171  0.00  0.00    +0.000 A 
ENDROOT
BRANCH   1  17
ATOM     12  S   UNL     1     -12.401  55.933  49.517  0.00  0.00    +0.000 S 
ATOM     13  O   UNL     1     -13.297  54.946  48.949  0.00  0.00    +0.000 OA
ATOM     14  O   UNL     1     -11.748  56.908  48.666  0.00  0.00    +0.000 OA
ATOM     15  N   UNL     1     -11.251  55.139  50.339  0.00  0.00    +0.000 N 
ATOM     16  C   UNL     1     -13.358  56.857  50.663  0.00  0.00    +0.000 A 
ATOM     17  C   UNL     1     -11.219  55.154  51.640  0.00  0.00    +0.000 C 
ATOM     18  C   UNL     1     -13.103  56.677  52.012  0.00  0.00    +0.000 A 
ATOM     19  C   UNL     1     -14.330  57.750  50.203  0.00  0.00    +0.000 A 
ATOM     20  N   UNL     1     -12.133  55.783  52.457  0.00  0.00    +0.000 N 
ATOM     21  C   UNL     1     -13.904  57.363  52.931  0.00  0.00    +0.000 A 
ATOM     22  C   UNL     1     -15.093  58.457  51.131  0.00  0.00    +0.000 A 
ATOM     23  C   UNL     1     -14.887  58.254  52.495  0.00  0.00    +0.000 A 
ATOM     24  H   UNL     1     -10.564  54.636  49.844  0.00  0.00    +0.000 HD
ATOM     25  H   UNL     1     -12.098  55.586  53.422  0.00  0.00    +0.000 HD
ENDBRANCH   1  17
BRANCH   3  26
ATOM     26  O   UNL     1     -11.521  52.699  53.171  0.00  0.00    +0.000 OA
ATOM     27  H   UNL     1     -11.947  52.298  52.439  0.00  0.00    +0.000 HD
ENDBRANCH   3  26
BRANCH   5  28
ATOM     28  C   UNL     1      -6.279  54.881  52.692  0.00  0.00    +0.000 C 
BRANCH  28  29
ATOM     29  C   UNL     1      -5.370  54.115  51.714  0.00  0.00    +0.000 C 
BRANCH  29  30
ATOM     30  C   UNL     1      -5.978  53.978  50.344  0.00  0.00    +0.000 A 
ATOM     31  C   UNL     1      -6.029  54.982  49.392  0.00  0.00    +0.000 A 
ATOM     32  C   UNL     1      -6.571  52.774  49.833  0.00  0.00    +0.000 A 
ATOM     33  S   UNL     1      -6.763  54.480  47.931  0.00  0.00    +0.000 S 
ATOM     34  C   UNL     1      -7.025  52.908  48.541  0.00  0.00    +0.000 A 
ENDBRANCH  29  30
ENDBRANCH  28  29
ENDBRANCH   5  28
TORSDOF 5
ENDMDL
MODEL 2
REMARK VINA RESULT:      -8.3      2.918      5.010
REMARK  Name = 338146
REMARK  5 active torsions:
REMARK  status: ('A' for Active; 'I' for Inactive)
REMARK    1  A    between atoms: C_6  and  C_10
REMARK    2  A    between atoms: C_14  and  O_18
REMARK    3  A    between atoms: N_17  and  C_21
REMARK    4  A    between atoms: C_21  and  C_24
REMARK    5  A    between atoms: C_24  and  C_27
REMARK                            x       y       z     vdW  Elec       q    Type
REMARK                         _______ _______ _______ _____ _____    ______ ____
ROOT
ATOM      1  C   UNL     1     -11.400  55.972  48.856  0.00  0.00    +0.000 A 
ATOM      2  C   UNL     1     -10.349  55.365  49.729  0.00  0.00    +0.000 A 
ATOM      3  C   UNL     1     -11.491  55.614  47.563  0.00  0.00    +0.000 A 
ATOM      4  O   UNL     1     -10.345  55.660  50.929  0.00  0.00    +0.000 OA
ATOM      5  N   UNL     1      -9.435  54.480  49.167  0.00  0.00    +0.000 N 
ATOM      6  C   UNL     1     -10.577  54.606  47.004  0.00  0.00    +0.000 A 
ATOM      7  C   UNL     1      -9.573  54.042  47.812  0.00  0.00    +0.000 A 
ATOM      8  C   UNL     1     -10.713  54.181  45.671  0.00  0.00    +0.000 A 
ATOM      9  C   UNL     1      -8.752  53.043  47.266  0.00  0.00    +0.000 A 
ATOM     10  C   UNL     1      -9.877  53.201  45.140  0.00  0.00    +0.000 A 
ATOM     11  C   UNL     1      -8.898  52.630  45.941  0.00  0.00    +0.000 A 
ENDROOT
BRANCH   1  17
ATOM     12  S   UNL     1     -13.540  59.219  49.465  0.00  0.00    +0.000 S 
ATOM     13  O   UNL     1     -14.672  59.311  48.566  0.00  0.00    +0.000 OA
ATOM     14  O   UNL     1     -12.751  60.394  49.777  0.00  0.00    +0.000 OA
ATOM     15  N   UNL     1     -12.538  58.087  48.879  0.00  0.00    +0.000 N 
ATOM     16  C   UNL     1     -14.181  58.648  50.997  0.00  0.00    +0.000 A 
ATOM     17  C   UNL     1     -12.407  56.933  49.466  0.00  0.00    +0.000 C 
ATOM     18  C   UNL     1     -13.873  57.354  51.384  0.00  0.00    +0.000 A 
ATOM     19  C   UNL     1     -14.961  59.494  51.789  0.00  0.00    +0.000 A 
ATOM     20  N   UNL     1     -13.096  56.519  50.586  0.00  0.00    +0.000 N 
ATOM     21  C   UNL     1     -14.432  56.872  52.573  0.00  0.00    +0.000 A 
ATOM     22  C   UNL     1     -15.477  59.013  52.990  0.00  0.00    +0.000 A 
ATOM     23  C   UNL     1     -15.222  57.698  53.376  0.00  0.00    +0.000 A 
ATOM     24  H   UNL     1     -12.018  58.277  48.065  0.00  0.00    +0.000 HD
ATOM     25  H   UNL     1     -13.034  55.569  50.838  0.00  0.00    +0.000 HD
ENDBRANCH   1  17
BRANCH   3  26
ATOM     26  O   UNL     1     -12.442  56.096  46.680  0.00  0.00    +0.000 OA
ATOM     27  H   UNL     1     -12.941  56.858  46.899  0.00  0.00    +0.000 HD
ENDBRANCH   3  26
BRANCH   5  28
ATOM     28  C   UNL     1      -8.380  53.926  50.035  0.00  0.00    +0.000 C 
BRANCH  28  29
ATOM     29  C   UNL     1      -7.136  54.823  50.169  0.00  0.00    +0.000 C 
BRANCH  29  30
ATOM     30  C   UNL     1      -6.691  54.986  51.598  0.00  0.00    +0.000 A 
ATOM     31  C   UNL     1      -5.630  54.314  52.182  0.00  0.00    +0.000 A 
ATOM     32  C   UNL     1      -7.297  55.881  52.542  0.00  0.00    +0.000 A 
ATOM     33  S   UNL     1      -5.377  54.758  53.814  0.00  0.00    +0.000 S 
ATOM     34  C   UNL     1      -6.679  55.860  53.772  0.00  0.00    +0.000 A 
ENDBRANCH  29  30
ENDBRANCH  28  29
ENDBRANCH   5  28
TORSDOF 5
ENDMDL
MODEL 3
REMARK VINA RESULT:      -8.1      3.016      6.998
REMARK  Name = 338146
REMARK  5 active torsions:
REMARK  status: ('A' for Active; 'I' for Inactive)
REMARK    1  A    between atoms: C_6  and  C_10
REMARK    2  A    between atoms: C_14  and  O_18
REMARK    3  A    between atoms: N_17  and  C_21
REMARK    4  A    between atoms: C_21  and  C_24
REMARK    5  A    between atoms: C_24  and  C_27
REMARK                            x       y       z     vdW  Elec       q    Type
REMARK                         _______ _______ _______ _____ _____    ______ ____
ROOT
ATOM      1  C   UNL     1     -10.338  55.175  50.885  0.00  0.00    +0.000 A 
ATOM      2  C   UNL     1     -10.000  55.062  49.433  0.00  0.00    +0.000 A 
ATOM      3  C   UNL     1     -11.514  55.706  51.263  0.00  0.00    +0.000 A 
ATOM      4  O   UNL     1      -8.947  54.498  49.121  0.00  0.00    +0.000 OA
ATOM      5  N   UNL     1     -10.890  55.572  48.493  0.00  0.00    +0.000 N 
ATOM      6  C   UNL     1     -12.486  56.157  50.255  0.00  0.00    +0.000 A 
ATOM      7  C   UNL     1     -12.171  56.071  48.887  0.00  0.00    +0.000 A 
ATOM      8  C   UNL     1     -13.743  56.651  50.647  0.00  0.00    +0.000 A 
ATOM      9  C   UNL     1     -13.141  56.457  47.948  0.00  0.00    +0.000 A 
ATOM     10  C   UNL     1     -14.686  57.047  49.701  0.00  0.00    +0.000 A 
ATOM     11  C   UNL     1     -14.384  56.946  48.350  0.00  0.00    +0.000 A 
ENDROOT
BRANCH   1  17
ATOM     12  S   UNL     1      -7.061  54.614  52.990  0.00  0.00    +0.000 S 
ATOM     13  O   UNL     1      -6.903  55.600  54.041  0.00  0.00    +0.000 OA
ATOM     14  O   UNL     1      -5.920  54.192  52.203  0.00  0.00    +0.000 OA
ATOM     15  N   UNL     1      -8.196  55.160  51.970  0.00  0.00    +0.000 N 
ATOM     16  C   UNL     1      -7.672  53.165  53.770  0.00  0.00    +0.000 A 
ATOM     17  C   UNL     1      -9.375  54.612  51.916  0.00  0.00    +0.000 C 
ATOM     18  C   UNL     1      -8.988  52.806  53.527  0.00  0.00    +0.000 A 
ATOM     19  C   UNL     1      -6.835  52.407  54.594  0.00  0.00    +0.000 A 
ATOM     20  N   UNL     1      -9.812  53.570  52.706  0.00  0.00    +0.000 N 
ATOM     21  C   UNL     1      -9.499  51.688  54.194  0.00  0.00    +0.000 A 
ATOM     22  C   UNL     1      -7.348  51.273  55.220  0.00  0.00    +0.000 A 
ATOM     23  C   UNL     1      -8.683  50.920  55.029  0.00  0.00    +0.000 A 
ATOM     24  H   UNL     1      -7.989  55.921  51.379  0.00  0.00    +0.000 HD
ATOM     25  H   UNL     1     -10.773  53.352  52.689  0.00  0.00    +0.000 HD
ENDBRANCH   1  17
BRANCH   3  26
ATOM     26  O   UNL     1     -11.932  55.832  52.577  0.00  0.00    +0.000 OA
ATOM     27  H   UNL     1     -11.333  55.665  53.278  0.00  0.00    +0.000 HD
ENDBRANCH   3  26
BRANCH   5  28
ATOM     28  C   UNL     1     -10.518  55.490  47.068  0.00  0.00    +0.000 C 
BRANCH  28  29
ATOM     29  C   UNL     1     -11.313  54.443  46.267  0.00  0.00    +0.000 C 
BRANCH  29  30
ATOM     30  C   UNL     1     -10.467  53.729  45.247  0.00  0.00    +0.000 A 
ATOM     31  C   UNL     1     -10.951  52.879  44.266  0.00  0.00    +0.000 A 
ATOM     32  C   UNL     1      -9.041  53.852  45.143  0.00  0.00    +0.000 A 
ATOM     33  S   UNL     1      -9.720  52.260  43.253  0.00  0.00    +0.000 S 
ATOM     34  C   UNL     1      -8.515  53.117  44.104  0.00  0.00    +0.000 A 
ENDBRANCH  29  30
ENDBRANCH  28  29
ENDBRANCH   5  28
TORSDOF 5
ENDMDL
MODEL 4
REMARK VINA RESULT:      -8.0      3.715      4.900
REMARK  Name = 338146
REMARK  5 active torsions:
REMARK  status: ('A' for Active; 'I' for Inactive)
REMARK    1  A    between atoms: C_6  and  C_10
REMARK    2  A    between atoms: C_14  and  O_18
REMARK    3  A    between atoms: N_17  and  C_21
REMARK    4  A    between atoms: C_21  and  C_24
REMARK    5  A    between atoms: C_24  and  C_27
REMARK                            x       y       z     vdW  Elec       q    Type
REMARK                         _______ _______ _______ _____ _____    ______ ____
ROOT
ATOM      1  C   UNL     1     -12.213  54.408  49.852  0.00  0.00    +0.000 A 
ATOM      2  C   UNL     1     -11.558  54.380  48.508  0.00  0.00    +0.000 A 
ATOM      3  C   UNL     1     -11.955  53.440  50.748  0.00  0.00    +0.000 A 
ATOM      4  O   UNL     1     -11.758  55.327  47.741  0.00  0.00    +0.000 OA
ATOM      5  N   UNL     1     -10.736  53.306  48.183  0.00  0.00    +0.000 N 
ATOM      6  C   UNL     1     -11.010  52.360  50.425  0.00  0.00    +0.000 A 
ATOM      7  C   UNL     1     -10.402  52.313  49.157  0.00  0.00    +0.000 A 
ATOM      8  C   UNL     1     -10.688  51.383  51.383  0.00  0.00    +0.000 A 
ATOM      9  C   UNL     1      -9.463  51.302  48.898  0.00  0.00    +0.000 A 
ATOM     10  C   UNL     1      -9.767  50.376  51.102  0.00  0.00    +0.000 A 
ATOM     11  C   UNL     1      -9.153  50.339  49.859  0.00  0.00    +0.000 A 
ENDROOT
BRANCH   1  17
ATOM     12  S   UNL     1     -15.305  56.456  51.170  0.00  0.00    +0.000 S 
ATOM     13  O   UNL     1     -15.308  56.584  52.614  0.00  0.00    +0.000 OA
ATOM     14  O   UNL     1     -16.536  56.190  50.454  0.00  0.00    +0.000 OA
ATOM     15  N   UNL     1     -14.242  55.296  50.782  0.00  0.00    +0.000 N 
ATOM     16  C   UNL     1     -14.705  57.984  50.547  0.00  0.00    +0.000 A 
ATOM     17  C   UNL     1     -13.106  55.583  50.217  0.00  0.00    +0.000 C 
ATOM     18  C   UNL     1     -13.440  58.000  49.983  0.00  0.00    +0.000 A 
ATOM     19  C   UNL     1     -15.501  59.130  50.616  0.00  0.00    +0.000 A 
ATOM     20  N   UNL     1     -12.655  56.851  49.921  0.00  0.00    +0.000 N 
ATOM     21  C   UNL     1     -12.931  59.225  49.541  0.00  0.00    +0.000 A 
ATOM     22  C   UNL     1     -14.996  60.336  50.136  0.00  0.00    +0.000 A 
ATOM     23  C   UNL     1     -13.706  60.386  49.609  0.00  0.00    +0.000 A 
ATOM     24  H   UNL     1     -14.461  54.355  50.977  0.00  0.00    +0.000 HD
ATOM     25  H   UNL     1     -11.714  56.952  49.648  0.00  0.00    +0.000 HD
ENDBRANCH   1  17
BRANCH   3  26
ATOM     26  O   UNL     1     -12.489  53.388  52.024  0.00  0.00    +0.000 OA
ATOM     27  H   UNL     1     -13.415  53.456  52.148  0.00  0.00    +0.000 HD
ENDBRANCH   3  26
BRANCH   5  28
ATOM     28  C   UNL     1     -10.133  53.274  46.837  0.00  0.00    +0.000 C 
BRANCH  28  29
ATOM     29  C   UNL     1     -11.011  52.600  45.768  0.00  0.00    +0.000 C 
BRANCH  29  30
ATOM     30  C   UNL     1     -10.260  52.323  44.493  0.00  0.00    +0.000 A 
ATOM     31  C   UNL     1     -10.595  51.347  43.568  0.00  0.00    +0.000 A 
ATOM     32  C   UNL     1      -9.105  53.052  44.054  0.00  0.00    +0.000 A 
ATOM     33  S   UNL     1      -9.548  51.323  42.216  0.00  0.00    +0.000 S 
ATOM     34  C   UNL     1      -8.628  52.618  42.838  0.00  0.00    +0.000 A 
ENDBRANCH  29  30
ENDBRANCH  28  29
ENDBRANCH   5  28
TORSDOF 5
ENDMDL
MODEL 5
REMARK VINA RESULT:      -7.9      3.676      7.153
REMARK  Name = 338146
REMARK  5 active torsions:
REMARK  status: ('A' for Active; 'I' for Inactive)
REMARK    1  A    between atoms: C_6  and  C_10
REMARK    2  A    between atoms: C_14  and  O_18
REMARK    3  A    between atoms: N_17  and  C_21
REMARK    4  A    between atoms: C_21  and  C_24
REMARK    5  A    between atoms: C_24  and  C_27
REMARK                            x       y       z     vdW  Elec       q    Type
REMARK                         _______ _______ _______ _____ _____    ______ ____
ROOT
ATOM      1  C   UNL     1     -10.959  54.479  48.437  0.00  0.00    +0.000 A 
ATOM      2  C   UNL     1     -10.520  54.103  49.817  0.00  0.00    +0.000 A 
ATOM      3  C   UNL     1     -11.996  55.317  48.266  0.00  0.00    +0.000 A 
ATOM      4  O   UNL     1      -9.516  53.394  49.937  0.00  0.00    +0.000 OA
ATOM      5  N   UNL     1     -11.242  54.580  50.906  0.00  0.00    +0.000 N 
ATOM      6  C   UNL     1     -12.692  55.889  49.429  0.00  0.00    +0.000 A 
ATOM      7  C   UNL     1     -12.300  55.527  50.731  0.00  0.00    +0.000 A 
ATOM      8  C   UNL     1     -13.734  56.816  49.253  0.00  0.00    +0.000 A 
ATOM      9  C   UNL     1     -12.946  56.132  51.821  0.00  0.00    +0.000 A 
ATOM     10  C   UNL     1     -14.376  57.392  50.346  0.00  0.00    +0.000 A 
ATOM     11  C   UNL     1     -13.979  57.051  51.631  0.00  0.00    +0.000 A 
ENDROOT
BRANCH   1  17
ATOM     12  S   UNL     1      -8.029  53.992  45.856  0.00  0.00    +0.000 S 
ATOM     13  O   UNL     1      -7.000  53.099  46.350  0.00  0.00    +0.000 OA
ATOM     14  O   UNL     1      -7.671  55.198  45.137  0.00  0.00    +0.000 OA
ATOM     15  N   UNL     1      -8.955  54.419  47.116  0.00  0.00    +0.000 N 
ATOM     16  C   UNL     1      -9.007  53.043  44.750  0.00  0.00    +0.000 A 
ATOM     17  C   UNL     1     -10.169  53.969  47.244  0.00  0.00    +0.000 C 
ATOM     18  C   UNL     1     -10.289  52.702  45.149  0.00  0.00    +0.000 A 
ATOM     19  C   UNL     1      -8.493  52.668  43.506  0.00  0.00    +0.000 A 
ATOM     20  N   UNL     1     -10.789  53.081  46.393  0.00  0.00    +0.000 N 
ATOM     21  C   UNL     1     -11.051  51.894  44.300  0.00  0.00    +0.000 A 
ATOM     22  C   UNL     1      -9.279  51.896  42.653  0.00  0.00    +0.000 A 
ATOM     23  C   UNL     1     -10.554  51.499  43.055  0.00  0.00    +0.000 A 
ATOM     24  H   UNL     1      -8.592  55.033  47.796  0.00  0.00    +0.000 HD
ATOM     25  H   UNL     1     -11.644  52.686  46.683  0.00  0.00    +0.000 HD
ENDBRANCH   1  17
BRANCH   3  26
ATOM     26  O   UNL     1     -12.462  55.747  47.036  0.00  0.00    +0.000 OA
ATOM     27  H   UNL     1     -12.321  55.223  46.271  0.00  0.00    +0.000 HD
ENDBRANCH   3  26
BRANCH   5  28
ATOM     28  C   UNL     1     -10.821  54.162  52.256  0.00  0.00    +0.000 C 
BRANCH  28  29
ATOM     29  C   UNL     1      -9.928  55.183  52.984  0.00  0.00    +0.000 C 
BRANCH  29  30
ATOM     30  C   UNL     1      -8.676  54.562  53.544  0.00  0.00    +0.000 A 
ATOM     31  C   UNL     1      -8.373  53.210  53.508  0.00  0.00    +0.000 A 
ATOM     32  C   UNL     1      -7.614  55.295  54.172  0.00  0.00    +0.000 A 
ATOM     33  S   UNL     1      -6.855  52.848  54.207  0.00  0.00    +0.000 S 
ATOM     34  C   UNL     1      -6.570  54.491  54.568  0.00  0.00    +0.000 A 
ENDBRANCH  29  30
ENDBRANCH  28  29
ENDBRANCH   5  28
TORSDOF 5
ENDMDL
MODEL 6
REMARK VINA RESULT:      -7.9      2.809      5.166
REMARK  Name = 338146
REMARK  5 active torsions:
REMARK  status: ('A' for Active; 'I' for Inactive)
REMARK    1  A    between atoms: C_6  and  C_10
REMARK    2  A    between atoms: C_14  and  O_18
REMARK    3  A    between atoms: N_17  and  C_21
REMARK    4  A    between atoms: C_21  and  C_24
REMARK    5  A    between atoms: C_24  and  C_27
REMARK                            x       y       z     vdW  Elec       q    Type
REMARK                         _______ _______ _______ _____ _____    ______ ____
ROOT
ATOM      1  C   UNL     1     -10.679  55.760  48.494  0.00  0.00    +0.000 A 
ATOM      2  C   UNL     1      -9.279  55.622  49.002  0.00  0.00    +0.000 A 
ATOM      3  C   UNL     1     -11.015  55.249  47.297  0.00  0.00    +0.000 A 
ATOM      4  O   UNL     1      -9.028  56.035  50.139  0.00  0.00    +0.000 OA
ATOM      5  N   UNL     1      -8.325  55.018  48.190  0.00  0.00    +0.000 N 
ATOM      6  C   UNL     1     -10.018  54.530  46.489  0.00  0.00    +0.000 A 
ATOM      7  C   UNL     1      -8.694  54.410  46.949  0.00  0.00    +0.000 A 
ATOM      8  C   UNL     1     -10.383  53.937  45.267  0.00  0.00    +0.000 A 
ATOM      9  C   UNL     1      -7.779  53.671  46.181  0.00  0.00    +0.000 A 
ATOM     10  C   UNL     1      -9.457  53.222  44.510  0.00  0.00    +0.000 A 
ATOM     11  C   UNL     1      -8.155  53.087  44.971  0.00  0.00    +0.000 A 
ENDROOT
BRANCH   1  17
ATOM     12  S   UNL     1     -13.345  56.251  51.347  0.00  0.00    +0.000 S 
ATOM     13  O   UNL     1     -12.735  56.529  52.632  0.00  0.00    +0.000 OA
ATOM     14  O   UNL     1     -14.481  55.357  51.252  0.00  0.00    +0.000 OA
ATOM     15  N   UNL     1     -12.186  55.690  50.363  0.00  0.00    +0.000 N 
ATOM     16  C   UNL     1     -13.895  57.798  50.725  0.00  0.00    +0.000 A 
ATOM     17  C   UNL     1     -11.728  56.411  49.380  0.00  0.00    +0.000 C 
ATOM     18  C   UNL     1     -13.214  58.341  49.648  0.00  0.00    +0.000 A 
ATOM     19  C   UNL     1     -14.996  58.435  51.305  0.00  0.00    +0.000 A 
ATOM     20  N   UNL     1     -12.117  57.698  49.080  0.00  0.00    +0.000 N 
ATOM     21  C   UNL     1     -13.608  59.602  49.188  0.00  0.00    +0.000 A 
ATOM     22  C   UNL     1     -15.401  59.672  50.809  0.00  0.00    +0.000 A 
ATOM     23  C   UNL     1     -14.700  60.261  49.758  0.00  0.00    +0.000 A 
ATOM     24  H   UNL     1     -11.822  54.787  50.511  0.00  0.00    +0.000 HD
ATOM     25  H   UNL     1     -11.584  58.197  48.420  0.00  0.00    +0.000 HD
ENDBRANCH   1  17
BRANCH   3  26
ATOM     26  O   UNL     1     -12.285  55.300  46.749  0.00  0.00    +0.000 OA
ATOM     27  H   UNL     1     -12.979  55.724  47.215  0.00  0.00    +0.000 HD
ENDBRANCH   3  26
BRANCH   5  28
ATOM     28  C   UNL     1      -6.941  54.931  48.691  0.00  0.00    +0.000 C 
BRANCH  28  29
ATOM     29  C   UNL     1      -6.630  53.638  49.465  0.00  0.00    +0.000 C 
BRANCH  29  30
ATOM     30  C   UNL     1      -5.877  53.895  50.743  0.00  0.00    +0.000 A 
ATOM     31  C   UNL     1      -4.507  53.759  50.901  0.00  0.00    +0.000 A 
ATOM     32  C   UNL     1      -6.479  54.339  51.968  0.00  0.00    +0.000 A 
ATOM     33  S   UNL     1      -3.974  54.161  52.476  0.00  0.00    +0.000 S 
ATOM     34  C   UNL     1      -5.563  54.528  52.977  0.00  0.00    +0.000 A 
ENDBRANCH  29  30
ENDBRANCH  28  29
ENDBRANCH   5  28
TORSDOF 5
ENDMDL
MODEL 7
REMARK VINA RESULT:      -7.9      2.995      7.891
REMARK  Name = 338146
REMARK  5 active torsions:
REMARK  status: ('A' for Active; 'I' for Inactive)
REMARK    1  A    between atoms: C_6  and  C_10
REMARK    2  A    between atoms: C_14  and  O_18
REMARK    3  A    between atoms: N_17  and  C_21
REMARK    4  A    between atoms: C_21  and  C_24
REMARK    5  A    between atoms: C_24  and  C_27
REMARK                            x       y       z     vdW  Elec       q    Type
REMARK                         _______ _______ _______ _____ _____    ______ ____
ROOT
ATOM      1  C   UNL     1      -9.448  54.212  49.731  0.00  0.00    +0.000 A 
ATOM      2  C   UNL     1     -10.463  55.311  49.703  0.00  0.00    +0.000 A 
ATOM      3  C   UNL     1      -9.309  53.397  48.671  0.00  0.00    +0.000 A 
ATOM      4  O   UNL     1     -10.508  56.087  50.662  0.00  0.00    +0.000 OA
ATOM      5  N   UNL     1     -11.295  55.430  48.595  0.00  0.00    +0.000 N 
ATOM      6  C   UNL     1     -10.132  53.593  47.468  0.00  0.00    +0.000 A 
ATOM      7  C   UNL     1     -11.102  54.612  47.437  0.00  0.00    +0.000 A 
ATOM      8  C   UNL     1      -9.942  52.784  46.333  0.00  0.00    +0.000 A 
ATOM      9  C   UNL     1     -11.833  54.810  46.255  0.00  0.00    +0.000 A 
ATOM     10  C   UNL     1     -10.690  52.983  45.175  0.00  0.00    +0.000 A 
ATOM     11  C   UNL     1     -11.634  54.000  45.136  0.00  0.00    +0.000 A 
ENDROOT
BRANCH   1  17
ATOM     12  S   UNL     1      -8.224  54.032  53.467  0.00  0.00    +0.000 S 
ATOM     13  O   UNL     1      -8.444  52.728  54.058  0.00  0.00    +0.000 OA
ATOM     14  O   UNL     1      -8.482  55.237  54.229  0.00  0.00    +0.000 OA
ATOM     15  N   UNL     1      -9.099  54.108  52.105  0.00  0.00    +0.000 N 
ATOM     16  C   UNL     1      -6.524  54.090  53.033  0.00  0.00    +0.000 A 
ATOM     17  C   UNL     1      -8.530  54.082  50.934  0.00  0.00    +0.000 C 
ATOM     18  C   UNL     1      -6.198  54.051  51.688  0.00  0.00    +0.000 A 
ATOM     19  C   UNL     1      -5.550  54.187  54.031  0.00  0.00    +0.000 A 
ATOM     20  N   UNL     1      -7.178  53.953  50.703  0.00  0.00    +0.000 N 
ATOM     21  C   UNL     1      -4.844  54.034  51.338  0.00  0.00    +0.000 A 
ATOM     22  C   UNL     1      -4.205  54.209  53.665  0.00  0.00    +0.000 A 
ATOM     23  C   UNL     1      -3.853  54.121  52.319  0.00  0.00    +0.000 A 
ATOM     24  H   UNL     1     -10.080  54.176  52.164  0.00  0.00    +0.000 HD
ATOM     25  H   UNL     1      -6.884  53.779  49.779  0.00  0.00    +0.000 HD
ENDBRANCH   1  17
BRANCH   3  26
ATOM     26  O   UNL     1      -8.385  52.370  48.587  0.00  0.00    +0.000 OA
ATOM     27  H   UNL     1      -7.472  52.549  48.702  0.00  0.00    +0.000 HD
ENDBRANCH   3  26
BRANCH   5  28
ATOM     28  C   UNL     1     -12.318  56.492  48.605  0.00  0.00    +0.000 C 
BRANCH  28  29
ATOM     29  C   UNL     1     -13.626  56.103  49.316  0.00  0.00    +0.000 C 
BRANCH  29  30
ATOM     30  C   UNL     1     -13.933  56.992  50.491  0.00  0.00    +0.000 A 
ATOM     31  C   UNL     1     -14.324  58.318  50.406  0.00  0.00    +0.000 A 
ATOM     32  C   UNL     1     -13.882  56.573  51.863  0.00  0.00    +0.000 A 
ATOM     33  S   UNL     1     -14.622  59.025  51.934  0.00  0.00    +0.000 S 
ATOM     34  C   UNL     1     -14.238  57.572  52.741  0.00  0.00    +0.000 A 
ENDBRANCH  29  30
ENDBRANCH  28  29
ENDBRANCH   5  28
TORSDOF 5
ENDMDL
MODEL 8
REMARK VINA RESULT:      -7.9      3.211      7.076
REMARK  Name = 338146
REMARK  5 active torsions:
REMARK  status: ('A' for Active; 'I' for Inactive)
REMARK    1  A    between atoms: C_6  and  C_10
REMARK    2  A    between atoms: C_14  and  O_18
REMARK    3  A    between atoms: N_17  and  C_21
REMARK    4  A    between atoms: C_21  and  C_24
REMARK    5  A    between atoms: C_24  and  C_27
REMARK                            x       y       z     vdW  Elec       q    Type
REMARK                         _______ _______ _______ _____ _____    ______ ____
ROOT
ATOM      1  C   UNL     1     -10.413  54.981  50.509  0.00  0.00    +0.000 A 
ATOM      2  C   UNL     1     -10.158  54.871  49.040  0.00  0.00    +0.000 A 
ATOM      3  C   UNL     1     -11.491  55.647  50.958  0.00  0.00    +0.000 A 
ATOM      4  O   UNL     1      -9.202  54.187  48.663  0.00  0.00    +0.000 OA
ATOM      5  N   UNL     1     -11.016  55.521  48.158  0.00  0.00    +0.000 N 
ATOM      6  C   UNL     1     -12.441  56.250  50.010  0.00  0.00    +0.000 A 
ATOM      7  C   UNL     1     -12.202  56.167  48.626  0.00  0.00    +0.000 A 
ATOM      8  C   UNL     1     -13.605  56.888  50.475  0.00  0.00    +0.000 A 
ATOM      9  C   UNL     1     -13.155  56.704  47.745  0.00  0.00    +0.000 A 
ATOM     10  C   UNL     1     -14.530  57.431  49.586  0.00  0.00    +0.000 A 
ATOM     11  C   UNL     1     -14.305  57.335  48.220  0.00  0.00    +0.000 A 
ENDROOT
BRANCH   1  17
ATOM     12  S   UNL     1      -8.960  52.222  52.910  0.00  0.00    +0.000 S 
ATOM     13  O   UNL     1      -8.295  51.156  52.187  0.00  0.00    +0.000 OA
ATOM     14  O   UNL     1      -9.809  51.922  54.045  0.00  0.00    +0.000 OA
ATOM     15  N   UNL     1      -9.837  53.067  51.840  0.00  0.00    +0.000 N 
ATOM     16  C   UNL     1      -7.685  53.262  53.522  0.00  0.00    +0.000 A 
ATOM     17  C   UNL     1      -9.485  54.267  51.477  0.00  0.00    +0.000 C 
ATOM     18  C   UNL     1      -7.537  54.512  52.944  0.00  0.00    +0.000 A 
ATOM     19  C   UNL     1      -6.869  52.827  54.570  0.00  0.00    +0.000 A 
ATOM     20  N   UNL     1      -8.355  54.934  51.899  0.00  0.00    +0.000 N 
ATOM     21  C   UNL     1      -6.485  55.321  53.385  0.00  0.00    +0.000 A 
ATOM     22  C   UNL     1      -5.850  53.661  55.026  0.00  0.00    +0.000 A 
ATOM     23  C   UNL     1      -5.650  54.903  54.425  0.00  0.00    +0.000 A 
ATOM     24  H   UNL     1     -10.652  52.667  51.459  0.00  0.00    +0.000 HD
ATOM     25  H   UNL     1      -8.110  55.765  51.431  0.00  0.00    +0.000 HD
ENDBRANCH   1  17
BRANCH   3  26
ATOM     26  O   UNL     1     -11.830  55.784  52.293  0.00  0.00    +0.000 OA
ATOM     27  H   UNL     1     -12.722  55.690  52.562  0.00  0.00    +0.000 HD
ENDBRANCH   3  26
BRANCH   5  28
ATOM     28  C   UNL     1     -10.723  55.436  46.715  0.00  0.00    +0.000 C 
BRANCH  28  29
ATOM     29  C   UNL     1     -11.411  54.260  45.998  0.00  0.00    +0.000 C 
BRANCH  29  30
ATOM     30  C   UNL     1     -10.498  53.558  45.029  0.00  0.00    +0.000 A 
ATOM     31  C   UNL     1     -10.916  52.743  43.990  0.00  0.00    +0.000 A 
ATOM     32  C   UNL     1      -9.066  53.659  45.040  0.00  0.00    +0.000 A 
ATOM     33  S   UNL     1      -9.618  52.128  43.061  0.00  0.00    +0.000 S 
ATOM     34  C   UNL     1      -8.471  52.942  44.027  0.00  0.00    +0.000 A 
ENDBRANCH  29  30
ENDBRANCH  28  29
ENDBRANCH   5  28
TORSDOF 5
ENDMDL
MODEL 9
REMARK VINA RESULT:      -7.8      3.884      5.808
REMARK  Name = 338146
REMARK  5 active torsions:
REMARK  status: ('A' for Active; 'I' for Inactive)
REMARK    1  A    between atoms: C_6  and  C_10
REMARK    2  A    between atoms: C_14  and  O_18
REMARK    3  A    between atoms: N_17  and  C_21
REMARK    4  A    between atoms: C_21  and  C_24
REMARK    5  A    between atoms: C_24  and  C_27
REMARK                            x       y       z     vdW  Elec       q    Type
REMARK                         _______ _______ _______ _____ _____    ______ ____
ROOT
ATOM      1  C   UNL     1     -10.828  55.657  48.687  0.00  0.00    +0.000 A 
ATOM      2  C   UNL     1     -11.181  55.194  47.309  0.00  0.00    +0.000 A 
ATOM      3  C   UNL     1      -9.579  55.488  49.153  0.00  0.00    +0.000 A 
ATOM      4  O   UNL     1     -12.316  55.436  46.885  0.00  0.00    +0.000 OA
ATOM      5  N   UNL     1     -10.218  54.534  46.553  0.00  0.00    +0.000 N 
ATOM      6  C   UNL     1      -8.544  54.873  48.308  0.00  0.00    +0.000 A 
ATOM      7  C   UNL     1      -8.870  54.418  47.017  0.00  0.00    +0.000 A 
ATOM      8  C   UNL     1      -7.221  54.756  48.769  0.00  0.00    +0.000 A 
ATOM      9  C   UNL     1      -7.849  53.885  46.213  0.00  0.00    +0.000 A 
ATOM     10  C   UNL     1      -6.225  54.208  47.964  0.00  0.00    +0.000 A 
ATOM     11  C   UNL     1      -6.540  53.776  46.684  0.00  0.00    +0.000 A 
ENDROOT
BRANCH   1  17
ATOM     12  S   UNL     1     -13.547  56.377  51.439  0.00  0.00    +0.000 S 
ATOM     13  O   UNL     1     -12.961  56.688  52.727  0.00  0.00    +0.000 OA
ATOM     14  O   UNL     1     -14.715  55.525  51.350  0.00  0.00    +0.000 OA
ATOM     15  N   UNL     1     -12.385  55.729  50.513  0.00  0.00    +0.000 N 
ATOM     16  C   UNL     1     -14.018  57.915  50.735  0.00  0.00    +0.000 A 
ATOM     17  C   UNL     1     -11.873  56.386  49.514  0.00  0.00    +0.000 C 
ATOM     18  C   UNL     1     -13.287  58.383  49.656  0.00  0.00    +0.000 A 
ATOM     19  C   UNL     1     -15.107  58.619  51.256  0.00  0.00    +0.000 A 
ATOM     20  N   UNL     1     -12.202  57.673  49.148  0.00  0.00    +0.000 N 
ATOM     21  C   UNL     1     -13.617  59.637  49.131  0.00  0.00    +0.000 A 
ATOM     22  C   UNL     1     -15.449  59.848  50.695  0.00  0.00    +0.000 A 
ATOM     23  C   UNL     1     -14.696  60.362  49.640  0.00  0.00    +0.000 A 
ATOM     24  H   UNL     1     -12.062  54.820  50.710  0.00  0.00    +0.000 HD
ATOM     25  H   UNL     1     -11.631  58.122  48.481  0.00  0.00    +0.000 HD
ENDBRANCH   1  17
BRANCH   3  26
ATOM     26  O   UNL     1      -9.144  55.903  50.401  0.00  0.00    +0.000 OA
ATOM     27  H   UNL     1      -8.227  55.983  50.575  0.00  0.00    +0.000 HD
ENDBRANCH   3  26
BRANCH   5  28
ATOM     28  C   UNL     1     -10.599  54.048  45.214  0.00  0.00    +0.000 C 
BRANCH  28  29
ATOM     29  C   UNL     1     -11.140  52.607  45.195  0.00  0.00    +0.000 C 
BRANCH  29  30
ATOM     30  C   UNL     1     -10.288  51.679  44.370  0.00  0.00    +0.000 A 
ATOM     31  C   UNL     1      -9.499  50.660  44.877  0.00  0.00    +0.000 A 
ATOM     32  C   UNL     1     -10.198  51.715  42.938  0.00  0.00    +0.000 A 
ATOM     33  S   UNL     1      -8.685  49.778  43.660  0.00  0.00    +0.000 S 
ATOM     34  C   UNL     1      -9.373  50.737  42.429  0.00  0.00    +0.000 A 
ENDBRANCH  29  30
ENDBRANCH  28  29
ENDBRANCH   5  28
TORSDOF 5
ENDMDL
