MODEL 1
REMARK VINA RESULT:      -8.2      0.000      0.000
REMARK  Name = 338298
REMARK  5 active torsions:
REMARK  status: ('A' for Active; 'I' for Inactive)
REMARK    1  A    between atoms: C_6  and  C_10
REMARK    2  A    between atoms: C_14  and  O_18
REMARK    3  A    between atoms: N_17  and  C_21
REMARK    4  A    between atoms: C_21  and  C_24
REMARK    5  A    between atoms: C_24  and  C_27
REMARK                            x       y       z     vdW  Elec       q    Type
REMARK                         _______ _______ _______ _____ _____    ______ ____
ROOT
ATOM      1  C   UNL     1     -10.110  54.394  52.285  0.00  0.00    +0.000 A 
ATOM      2  C   UNL     1      -8.734  54.944  52.138  0.00  0.00    +0.000 A 
ATOM      3  C   UNL     1     -10.323  53.298  53.026  0.00  0.00    +0.000 A 
ATOM      4  O   UNL     1      -8.619  55.951  51.434  0.00  0.00    +0.000 OA
ATOM      5  N   UNL     1      -7.673  54.339  52.801  0.00  0.00    +0.000 N 
ATOM      6  C   UNL     1      -9.205  52.652  53.727  0.00  0.00    +0.000 A 
ATOM      7  C   UNL     1      -7.895  53.157  53.595  0.00  0.00    +0.000 A 
ATOM      8  C   UNL     1      -9.444  51.530  54.544  0.00  0.00    +0.000 A 
ATOM      9  C   UNL     1      -6.858  52.494  54.276  0.00  0.00    +0.000 A 
ATOM     10  C   UNL     1      -8.410  50.916  55.243  0.00  0.00    +0.000 A 
ATOM     11  C   UNL     1      -7.117  51.396  55.105  0.00  0.00    +0.000 A 
ENDROOT
BRANCH   1  17
ATOM     12  S   UNL     1     -12.408  55.949  49.501  0.00  0.00    +0.000 S 
ATOM     13  O   UNL     1     -13.314  54.991  48.903  0.00  0.00    +0.000 OA
ATOM     14  O   UNL     1     -11.727  56.929  48.672  0.00  0.00    +0.000 OA
ATOM     15  N   UNL     1     -11.280  55.122  50.319  0.00  0.00    +0.000 N 
ATOM     16  C   UNL     1     -13.363  56.876  50.648  0.00  0.00    +0.000 A 
ATOM     17  C   UNL     1     -11.256  55.134  51.618  0.00  0.00    +0.000 C 
ATOM     18  C   UNL     1     -13.113  56.689  51.997  0.00  0.00    +0.000 A 
ATOM     19  C   UNL     1     -14.328  57.779  50.193  0.00  0.00    +0.000 A 
ATOM     20  N   UNL     1     -12.166  55.769  52.438  0.00  0.00    +0.000 N 
ATOM     21  C   UNL     1     -13.902  57.385  52.921  0.00  0.00    +0.000 A 
ATOM     22  C   UNL     1     -15.084  58.489  51.123  0.00  0.00    +0.000 A 
ATOM     23  C   UNL     1     -14.877  58.287  52.487  0.00  0.00    +0.000 A 
ATOM     24  H   UNL     1     -10.605  54.602  49.826  0.00  0.00    +0.000 HD
ATOM     25  H   UNL     1     -12.145  55.557  53.398  0.00  0.00    +0.000 HD
ENDBRANCH   1  17
BRANCH   3  26
ATOM     26  O   UNL     1     -11.564  52.717  53.217  0.00  0.00    +0.000 OA
ATOM     27  H   UNL     1     -11.759  52.282  54.024  0.00  0.00    +0.000 HD
ENDBRANCH   3  26
BRANCH   5  28
ATOM     28  C   UNL     1      -6.300  54.840  52.558  0.00  0.00    +0.000 C 
BRANCH  28  29
ATOM     29  C   UNL     1      -5.514  54.161  51.419  0.00  0.00    +0.000 C 
BRANCH  29  30
ATOM     30  C   UNL     1      -5.510  54.948  50.139  0.00  0.00    +0.000 C 
ATOM     31  C   UNL     1      -6.355  54.593  48.946  0.00  0.00    +0.000 C 
ATOM     32  C   UNL     1      -4.878  54.315  48.926  0.00  0.00    +0.000 C 
ENDBRANCH  29  30
ENDBRANCH  28  29
ENDBRANCH   5  28
TORSDOF 5
ENDMDL
MODEL 2
REMARK VINA RESULT:      -8.0      2.580      7.810
REMARK  Name = 338298
REMARK  5 active torsions:
REMARK  status: ('A' for Active; 'I' for Inactive)
REMARK    1  A    between atoms: C_6  and  C_10
REMARK    2  A    between atoms: C_14  and  O_18
REMARK    3  A    between atoms: N_17  and  C_21
REMARK    4  A    between atoms: C_21  and  C_24
REMARK    5  A    between atoms: C_24  and  C_27
REMARK                            x       y       z     vdW  Elec       q    Type
REMARK                         _______ _______ _______ _____ _____    ______ ____
ROOT
ATOM      1  C   UNL     1     -10.060  54.793  50.930  0.00  0.00    +0.000 A 
ATOM      2  C   UNL     1     -11.364  55.361  51.370  0.00  0.00    +0.000 A 
ATOM      3  C   UNL     1      -9.780  54.681  49.623  0.00  0.00    +0.000 A 
ATOM      4  O   UNL     1     -11.551  55.425  52.589  0.00  0.00    +0.000 OA
ATOM      5  N   UNL     1     -12.279  55.809  50.424  0.00  0.00    +0.000 N 
ATOM      6  C   UNL     1     -10.744  55.150  48.618  0.00  0.00    +0.000 A 
ATOM      7  C   UNL     1     -11.986  55.687  49.019  0.00  0.00    +0.000 A 
ATOM      8  C   UNL     1     -10.422  55.075  47.250  0.00  0.00    +0.000 A 
ATOM      9  C   UNL     1     -12.878  56.108  48.017  0.00  0.00    +0.000 A 
ATOM     10  C   UNL     1     -11.303  55.538  46.278  0.00  0.00    +0.000 A 
ATOM     11  C   UNL     1     -12.531  56.051  46.662  0.00  0.00    +0.000 A 
ENDROOT
BRANCH   1  17
ATOM     12  S   UNL     1      -6.755  54.676  53.053  0.00  0.00    +0.000 S 
ATOM     13  O   UNL     1      -6.679  55.719  54.054  0.00  0.00    +0.000 OA
ATOM     14  O   UNL     1      -5.581  54.321  52.274  0.00  0.00    +0.000 OA
ATOM     15  N   UNL     1      -7.938  55.068  52.018  0.00  0.00    +0.000 N 
ATOM     16  C   UNL     1      -7.221  53.213  53.906  0.00  0.00    +0.000 A 
ATOM     17  C   UNL     1      -9.051  54.397  51.993  0.00  0.00    +0.000 C 
ATOM     18  C   UNL     1      -8.490  52.707  53.677  0.00  0.00    +0.000 A 
ATOM     19  C   UNL     1      -6.321  52.585  54.772  0.00  0.00    +0.000 A 
ATOM     20  N   UNL     1      -9.386  53.354  52.832  0.00  0.00    +0.000 N 
ATOM     21  C   UNL     1      -8.890  51.570  54.390  0.00  0.00    +0.000 A 
ATOM     22  C   UNL     1      -6.720  51.436  55.450  0.00  0.00    +0.000 A 
ATOM     23  C   UNL     1      -8.008  50.932  55.265  0.00  0.00    +0.000 A 
ATOM     24  H   UNL     1      -7.814  55.825  51.401  0.00  0.00    +0.000 HD
ATOM     25  H   UNL     1     -10.321  53.048  52.832  0.00  0.00    +0.000 HD
ENDBRANCH   1  17
BRANCH   3  26
ATOM     26  O   UNL     1      -8.598  54.165  49.123  0.00  0.00    +0.000 OA
ATOM     27  H   UNL     1      -8.347  54.341  48.237  0.00  0.00    +0.000 HD
ENDBRANCH   3  26
BRANCH   5  28
ATOM     28  C   UNL     1     -13.610  56.273  50.881  0.00  0.00    +0.000 C 
BRANCH  28  29
ATOM     29  C   UNL     1     -13.755  57.784  51.146  0.00  0.00    +0.000 C 
BRANCH  29  30
ATOM     30  C   UNL     1     -14.067  58.117  52.578  0.00  0.00    +0.000 C 
ATOM     31  C   UNL     1     -15.330  57.686  53.271  0.00  0.00    +0.000 C 
ATOM     32  C   UNL     1     -15.162  59.117  52.846  0.00  0.00    +0.000 C 
ENDBRANCH  29  30
ENDBRANCH  28  29
ENDBRANCH   5  28
TORSDOF 5
ENDMDL
MODEL 3
REMARK VINA RESULT:      -7.9      3.374      4.354
REMARK  Name = 338298
REMARK  5 active torsions:
REMARK  status: ('A' for Active; 'I' for Inactive)
REMARK    1  A    between atoms: C_6  and  C_10
REMARK    2  A    between atoms: C_14  and  O_18
REMARK    3  A    between atoms: N_17  and  C_21
REMARK    4  A    between atoms: C_21  and  C_24
REMARK    5  A    between atoms: C_24  and  C_27
REMARK                            x       y       z     vdW  Elec       q    Type
REMARK                         _______ _______ _______ _____ _____    ______ ____
ROOT
ATOM      1  C   UNL     1     -12.355  54.202  49.977  0.00  0.00    +0.000 A 
ATOM      2  C   UNL     1     -12.029  53.950  48.546  0.00  0.00    +0.000 A 
ATOM      3  C   UNL     1     -11.895  53.377  50.929  0.00  0.00    +0.000 A 
ATOM      4  O   UNL     1     -12.495  54.749  47.729  0.00  0.00    +0.000 OA
ATOM      5  N   UNL     1     -11.217  52.876  48.200  0.00  0.00    +0.000 N 
ATOM      6  C   UNL     1     -11.039  52.238  50.569  0.00  0.00    +0.000 A 
ATOM      7  C   UNL     1     -10.725  51.983  49.218  0.00  0.00    +0.000 A 
ATOM      8  C   UNL     1     -10.520  51.406  51.579  0.00  0.00    +0.000 A 
ATOM      9  C   UNL     1      -9.913  50.872  48.927  0.00  0.00    +0.000 A 
ATOM     10  C   UNL     1      -9.683  50.338  51.270  0.00  0.00    +0.000 A 
ATOM     11  C   UNL     1      -9.383  50.070  49.944  0.00  0.00    +0.000 A 
ENDROOT
BRANCH   1  17
ATOM     12  S   UNL     1     -15.303  56.468  51.247  0.00  0.00    +0.000 S 
ATOM     13  O   UNL     1     -15.309  56.651  52.684  0.00  0.00    +0.000 OA
ATOM     14  O   UNL     1     -16.549  56.249  50.532  0.00  0.00    +0.000 OA
ATOM     15  N   UNL     1     -14.312  55.232  50.909  0.00  0.00    +0.000 N 
ATOM     16  C   UNL     1     -14.617  57.936  50.570  0.00  0.00    +0.000 A 
ATOM     17  C   UNL     1     -13.170  55.435  50.323  0.00  0.00    +0.000 C 
ATOM     18  C   UNL     1     -13.361  57.856  49.991  0.00  0.00    +0.000 A 
ATOM     19  C   UNL     1     -15.336  59.134  50.610  0.00  0.00    +0.000 A 
ATOM     20  N   UNL     1     -12.645  56.663  49.978  0.00  0.00    +0.000 N 
ATOM     21  C   UNL     1     -12.783  59.030  49.493  0.00  0.00    +0.000 A 
ATOM     22  C   UNL     1     -14.763  60.288  50.082  0.00  0.00    +0.000 A 
ATOM     23  C   UNL     1     -13.483  60.239  49.530  0.00  0.00    +0.000 A 
ATOM     24  H   UNL     1     -14.578  54.315  51.150  0.00  0.00    +0.000 HD
ATOM     25  H   UNL     1     -11.700  56.698  49.706  0.00  0.00    +0.000 HD
ENDBRANCH   1  17
BRANCH   3  26
ATOM     26  O   UNL     1     -12.148  53.532  52.280  0.00  0.00    +0.000 OA
ATOM     27  H   UNL     1     -12.787  54.152  52.570  0.00  0.00    +0.000 HD
ENDBRANCH   3  26
BRANCH   5  28
ATOM     28  C   UNL     1     -10.992  52.583  46.765  0.00  0.00    +0.000 C 
BRANCH  28  29
ATOM     29  C   UNL     1      -9.597  52.924  46.206  0.00  0.00    +0.000 C 
BRANCH  29  30
ATOM     30  C   UNL     1      -9.348  54.400  46.070  0.00  0.00    +0.000 C 
ATOM     31  C   UNL     1      -8.024  54.981  45.655  0.00  0.00    +0.000 C 
ATOM     32  C   UNL     1      -8.459  55.061  47.092  0.00  0.00    +0.000 C 
ENDBRANCH  29  30
ENDBRANCH  28  29
ENDBRANCH   5  28
TORSDOF 5
ENDMDL
MODEL 4
REMARK VINA RESULT:      -7.9      3.232      7.148
REMARK  Name = 338298
REMARK  5 active torsions:
REMARK  status: ('A' for Active; 'I' for Inactive)
REMARK    1  A    between atoms: C_6  and  C_10
REMARK    2  A    between atoms: C_14  and  O_18
REMARK    3  A    between atoms: N_17  and  C_21
REMARK    4  A    between atoms: C_21  and  C_24
REMARK    5  A    between atoms: C_24  and  C_27
REMARK                            x       y       z     vdW  Elec       q    Type
REMARK                         _______ _______ _______ _____ _____    ______ ____
ROOT
ATOM      1  C   UNL     1     -10.106  55.198  50.684  0.00  0.00    +0.000 A 
ATOM      2  C   UNL     1      -9.626  55.112  49.277  0.00  0.00    +0.000 A 
ATOM      3  C   UNL     1     -11.329  55.678  50.952  0.00  0.00    +0.000 A 
ATOM      4  O   UNL     1      -8.487  54.667  49.113  0.00  0.00    +0.000 OA
ATOM      5  N   UNL     1     -10.462  55.499  48.237  0.00  0.00    +0.000 N 
ATOM      6  C   UNL     1     -12.217  56.090  49.856  0.00  0.00    +0.000 A 
ATOM      7  C   UNL     1     -11.775  56.020  48.518  0.00  0.00    +0.000 A 
ATOM      8  C   UNL     1     -13.518  56.546  50.142  0.00  0.00    +0.000 A 
ATOM      9  C   UNL     1     -12.659  56.440  47.508  0.00  0.00    +0.000 A 
ATOM     10  C   UNL     1     -14.390  56.915  49.123  0.00  0.00    +0.000 A 
ATOM     11  C   UNL     1     -13.958  56.865  47.807  0.00  0.00    +0.000 A 
ENDROOT
BRANCH   1  17
ATOM     12  S   UNL     1      -6.979  54.779  53.028  0.00  0.00    +0.000 S 
ATOM     13  O   UNL     1      -6.933  55.750  54.103  0.00  0.00    +0.000 OA
ATOM     14  O   UNL     1      -5.766  54.420  52.314  0.00  0.00    +0.000 OA
ATOM     15  N   UNL     1      -8.062  55.296  51.940  0.00  0.00    +0.000 N 
ATOM     16  C   UNL     1      -7.572  53.288  53.742  0.00  0.00    +0.000 A 
ATOM     17  C   UNL     1      -9.198  54.684  51.787  0.00  0.00    +0.000 C 
ATOM     18  C   UNL     1      -8.841  52.861  53.387  0.00  0.00    +0.000 A 
ATOM     19  C   UNL     1      -6.768  52.561  54.625  0.00  0.00    +0.000 A 
ATOM     20  N   UNL     1      -9.641  53.605  52.525  0.00  0.00    +0.000 N 
ATOM     21  C   UNL     1      -9.343  51.700  53.988  0.00  0.00    +0.000 A 
ATOM     22  C   UNL     1      -7.268  51.391  55.191  0.00  0.00    +0.000 A 
ATOM     23  C   UNL     1      -8.559  50.964  54.879  0.00  0.00    +0.000 A 
ATOM     24  H   UNL     1      -7.858  56.085  51.387  0.00  0.00    +0.000 HD
ATOM     25  H   UNL     1     -10.586  53.346  52.437  0.00  0.00    +0.000 HD
ENDBRANCH   1  17
BRANCH   3  26
ATOM     26  O   UNL     1     -11.857  55.795  52.225  0.00  0.00    +0.000 OA
ATOM     27  H   UNL     1     -11.371  55.487  52.965  0.00  0.00    +0.000 HD
ENDBRANCH   3  26
BRANCH   5  28
ATOM     28  C   UNL     1      -9.927  55.503  46.854  0.00  0.00    +0.000 C 
BRANCH  28  29
ATOM     29  C   UNL     1      -9.898  54.146  46.126  0.00  0.00    +0.000 C 
BRANCH  29  30
ATOM     30  C   UNL     1     -11.129  53.877  45.306  0.00  0.00    +0.000 C 
ATOM     31  C   UNL     1     -11.984  52.652  45.475  0.00  0.00    +0.000 C 
ATOM     32  C   UNL     1     -11.069  52.766  44.289  0.00  0.00    +0.000 C 
ENDBRANCH  29  30
ENDBRANCH  28  29
ENDBRANCH   5  28
TORSDOF 5
ENDMDL
MODEL 5
REMARK VINA RESULT:      -7.9      2.227      3.162
REMARK  Name = 338298
REMARK  5 active torsions:
REMARK  status: ('A' for Active; 'I' for Inactive)
REMARK    1  A    between atoms: C_6  and  C_10
REMARK    2  A    between atoms: C_14  and  O_18
REMARK    3  A    between atoms: N_17  and  C_21
REMARK    4  A    between atoms: C_21  and  C_24
REMARK    5  A    between atoms: C_24  and  C_27
REMARK                            x       y       z     vdW  Elec       q    Type
REMARK                         _______ _______ _______ _____ _____    ______ ____
ROOT
ATOM      1  C   UNL     1     -11.695  53.992  51.079  0.00  0.00    +0.000 A 
ATOM      2  C   UNL     1     -10.799  53.998  52.268  0.00  0.00    +0.000 A 
ATOM      3  C   UNL     1     -11.762  52.910  50.290  0.00  0.00    +0.000 A 
ATOM      4  O   UNL     1     -10.787  55.033  52.940  0.00  0.00    +0.000 OA
ATOM      5  N   UNL     1     -10.056  52.866  52.580  0.00  0.00    +0.000 N 
ATOM      6  C   UNL     1     -10.977  51.711  50.613  0.00  0.00    +0.000 A 
ATOM      7  C   UNL     1     -10.119  51.702  51.733  0.00  0.00    +0.000 A 
ATOM      8  C   UNL     1     -11.090  50.561  49.808  0.00  0.00    +0.000 A 
ATOM      9  C   UNL     1      -9.380  50.534  51.990  0.00  0.00    +0.000 A 
ATOM     10  C   UNL     1     -10.381  49.402  50.107  0.00  0.00    +0.000 A 
ATOM     11  C   UNL     1      -9.524  49.390  51.196  0.00  0.00    +0.000 A 
ENDROOT
BRANCH   1  17
ATOM     12  S   UNL     1     -13.335  57.062  49.254  0.00  0.00    +0.000 S 
ATOM     13  O   UNL     1     -14.442  56.695  48.396  0.00  0.00    +0.000 OA
ATOM     14  O   UNL     1     -12.371  58.058  48.820  0.00  0.00    +0.000 OA
ATOM     15  N   UNL     1     -12.522  55.709  49.620  0.00  0.00    +0.000 N 
ATOM     16  C   UNL     1     -14.049  57.700  50.727  0.00  0.00    +0.000 A 
ATOM     17  C   UNL     1     -12.558  55.214  50.821  0.00  0.00    +0.000 C 
ATOM     18  C   UNL     1     -13.926  56.949  51.883  0.00  0.00    +0.000 A 
ATOM     19  C   UNL     1     -14.703  58.936  50.714  0.00  0.00    +0.000 A 
ATOM     20  N   UNL     1     -13.294  55.709  51.878  0.00  0.00    +0.000 N 
ATOM     21  C   UNL     1     -14.535  57.424  53.052  0.00  0.00    +0.000 A 
ATOM     22  C   UNL     1     -15.276  59.412  51.891  0.00  0.00    +0.000 A 
ATOM     23  C   UNL     1     -15.199  58.653  53.059  0.00  0.00    +0.000 A 
ATOM     24  H   UNL     1     -11.995  55.255  48.923  0.00  0.00    +0.000 HD
ATOM     25  H   UNL     1     -13.378  55.147  52.681  0.00  0.00    +0.000 HD
ENDBRANCH   1  17
BRANCH   3  26
ATOM     26  O   UNL     1     -12.563  52.815  49.166  0.00  0.00    +0.000 OA
ATOM     27  H   UNL     1     -12.190  52.569  48.343  0.00  0.00    +0.000 HD
ENDBRANCH   3  26
BRANCH   5  28
ATOM     28  C   UNL     1      -9.094  52.930  53.705  0.00  0.00    +0.000 C 
BRANCH  28  29
ATOM     29  C   UNL     1      -7.700  53.503  53.384  0.00  0.00    +0.000 C 
BRANCH  29  30
ATOM     30  C   UNL     1      -7.374  54.756  54.148  0.00  0.00    +0.000 C 
ATOM     31  C   UNL     1      -7.031  56.063  53.487  0.00  0.00    +0.000 C 
ATOM     32  C   UNL     1      -5.947  55.242  54.127  0.00  0.00    +0.000 C 
ENDBRANCH  29  30
ENDBRANCH  28  29
ENDBRANCH   5  28
TORSDOF 5
ENDMDL
MODEL 6
REMARK VINA RESULT:      -7.7      2.675      4.804
REMARK  Name = 338298
REMARK  5 active torsions:
REMARK  status: ('A' for Active; 'I' for Inactive)
REMARK    1  A    between atoms: C_6  and  C_10
REMARK    2  A    between atoms: C_14  and  O_18
REMARK    3  A    between atoms: N_17  and  C_21
REMARK    4  A    between atoms: C_21  and  C_24
REMARK    5  A    between atoms: C_24  and  C_27
REMARK                            x       y       z     vdW  Elec       q    Type
REMARK                         _______ _______ _______ _____ _____    ______ ____
ROOT
ATOM      1  C   UNL     1     -11.234  55.948  49.054  0.00  0.00    +0.000 A 
ATOM      2  C   UNL     1     -10.272  55.369  50.031  0.00  0.00    +0.000 A 
ATOM      3  C   UNL     1     -11.179  55.596  47.761  0.00  0.00    +0.000 A 
ATOM      4  O   UNL     1     -10.383  55.749  51.200  0.00  0.00    +0.000 OA
ATOM      5  N   UNL     1      -9.336  54.433  49.608  0.00  0.00    +0.000 N 
ATOM      6  C   UNL     1     -10.189  54.609  47.308  0.00  0.00    +0.000 A 
ATOM      7  C   UNL     1      -9.267  54.054  48.220  0.00  0.00    +0.000 A 
ATOM      8  C   UNL     1     -10.169  54.206  45.959  0.00  0.00    +0.000 A 
ATOM      9  C   UNL     1      -8.332  53.124  47.731  0.00  0.00    +0.000 A 
ATOM     10  C   UNL     1      -9.263  53.252  45.507  0.00  0.00    +0.000 A 
ATOM     11  C   UNL     1      -8.343  52.715  46.393  0.00  0.00    +0.000 A 
ENDROOT
BRANCH   1  17
ATOM     12  S   UNL     1     -13.485  59.147  49.440  0.00  0.00    +0.000 S 
ATOM     13  O   UNL     1     -14.584  59.193  48.497  0.00  0.00    +0.000 OA
ATOM     14  O   UNL     1     -12.730  60.351  49.743  0.00  0.00    +0.000 OA
ATOM     15  N   UNL     1     -12.439  58.021  48.927  0.00  0.00    +0.000 N 
ATOM     16  C   UNL     1     -14.172  58.617  50.967  0.00  0.00    +0.000 A 
ATOM     17  C   UNL     1     -12.300  56.900  49.569  0.00  0.00    +0.000 C 
ATOM     18  C   UNL     1     -13.839  57.353  51.423  0.00  0.00    +0.000 A 
ATOM     19  C   UNL     1     -15.014  59.466  51.692  0.00  0.00    +0.000 A 
ATOM     20  N   UNL     1     -13.019  56.509  50.680  0.00  0.00    +0.000 N 
ATOM     21  C   UNL     1     -14.421  56.902  52.613  0.00  0.00    +0.000 A 
ATOM     22  C   UNL     1     -15.561  59.016  52.892  0.00  0.00    +0.000 A 
ATOM     23  C   UNL     1     -15.270  57.731  53.350  0.00  0.00    +0.000 A 
ATOM     24  H   UNL     1     -11.904  58.187  48.118  0.00  0.00    +0.000 HD
ATOM     25  H   UNL     1     -12.948  55.570  50.966  0.00  0.00    +0.000 HD
ENDBRANCH   1  17
BRANCH   3  26
ATOM     26  O   UNL     1     -12.029  56.082  46.785  0.00  0.00    +0.000 OA
ATOM     27  H   UNL     1     -12.952  55.939  46.853  0.00  0.00    +0.000 HD
ENDBRANCH   3  26
BRANCH   5  28
ATOM     28  C   UNL     1      -8.322  53.949  50.575  0.00  0.00    +0.000 C 
BRANCH  28  29
ATOM     29  C   UNL     1      -7.368  55.010  51.157  0.00  0.00    +0.000 C 
BRANCH  29  30
ATOM     30  C   UNL     1      -7.074  54.817  52.618  0.00  0.00    +0.000 C 
ATOM     31  C   UNL     1      -8.077  55.083  53.706  0.00  0.00    +0.000 C 
ATOM     32  C   UNL     1      -6.948  56.048  53.479  0.00  0.00    +0.000 C 
ENDBRANCH  29  30
ENDBRANCH  28  29
ENDBRANCH   5  28
TORSDOF 5
ENDMDL
MODEL 7
REMARK VINA RESULT:      -7.6      2.134      2.411
REMARK  Name = 338298
REMARK  5 active torsions:
REMARK  status: ('A' for Active; 'I' for Inactive)
REMARK    1  A    between atoms: C_6  and  C_10
REMARK    2  A    between atoms: C_14  and  O_18
REMARK    3  A    between atoms: N_17  and  C_21
REMARK    4  A    between atoms: C_21  and  C_24
REMARK    5  A    between atoms: C_24  and  C_27
REMARK                            x       y       z     vdW  Elec       q    Type
REMARK                         _______ _______ _______ _____ _____    ______ ____
ROOT
ATOM      1  C   UNL     1     -11.217  54.489  50.763  0.00  0.00    +0.000 A 
ATOM      2  C   UNL     1      -9.841  54.861  50.334  0.00  0.00    +0.000 A 
ATOM      3  C   UNL     1     -11.464  53.266  51.256  0.00  0.00    +0.000 A 
ATOM      4  O   UNL     1      -9.696  56.001  49.885  0.00  0.00    +0.000 OA
ATOM      5  N   UNL     1      -8.802  53.948  50.477  0.00  0.00    +0.000 N 
ATOM      6  C   UNL     1     -10.370  52.297  51.406  0.00  0.00    +0.000 A 
ATOM      7  C   UNL     1      -9.061  52.631  51.000  0.00  0.00    +0.000 A 
ATOM      8  C   UNL     1     -10.627  51.032  51.970  0.00  0.00    +0.000 A 
ATOM      9  C   UNL     1      -8.054  51.662  51.153  0.00  0.00    +0.000 A 
ATOM     10  C   UNL     1      -9.607  50.106  52.152  0.00  0.00    +0.000 A 
ATOM     11  C   UNL     1      -8.321  50.420  51.740  0.00  0.00    +0.000 A 
ENDROOT
BRANCH   1  17
ATOM     12  S   UNL     1     -13.671  57.180  49.286  0.00  0.00    +0.000 S 
ATOM     13  O   UNL     1     -14.842  56.605  48.657  0.00  0.00    +0.000 OA
ATOM     14  O   UNL     1     -12.990  58.307  48.672  0.00  0.00    +0.000 OA
ATOM     15  N   UNL     1     -12.585  55.995  49.489  0.00  0.00    +0.000 N 
ATOM     16  C   UNL     1     -14.190  57.740  50.868  0.00  0.00    +0.000 A 
ATOM     17  C   UNL     1     -12.308  55.541  50.675  0.00  0.00    +0.000 C 
ATOM     18  C   UNL     1     -13.724  57.059  51.979  0.00  0.00    +0.000 A 
ATOM     19  C   UNL     1     -15.035  58.848  50.980  0.00  0.00    +0.000 A 
ATOM     20  N   UNL     1     -12.904  55.942  51.853  0.00  0.00    +0.000 N 
ATOM     21  C   UNL     1     -14.172  57.465  53.243  0.00  0.00    +0.000 A 
ATOM     22  C   UNL     1     -15.446  59.262  52.245  0.00  0.00    +0.000 A 
ATOM     23  C   UNL     1     -15.021  58.565  53.377  0.00  0.00    +0.000 A 
ATOM     24  H   UNL     1     -12.131  55.611  48.704  0.00  0.00    +0.000 HD
ATOM     25  H   UNL     1     -12.737  55.401  52.658  0.00  0.00    +0.000 HD
ENDBRANCH   1  17
BRANCH   3  26
ATOM     26  O   UNL     1     -12.709  52.834  51.677  0.00  0.00    +0.000 OA
ATOM     27  H   UNL     1     -13.076  52.047  51.325  0.00  0.00    +0.000 HD
ENDBRANCH   3  26
BRANCH   5  28
ATOM     28  C   UNL     1      -7.464  54.301  49.947  0.00  0.00    +0.000 C 
BRANCH  28  29
ATOM     29  C   UNL     1      -7.153  53.843  48.509  0.00  0.00    +0.000 C 
BRANCH  29  30
ATOM     30  C   UNL     1      -7.403  54.903  47.473  0.00  0.00    +0.000 C 
ATOM     31  C   UNL     1      -8.675  54.997  46.676  0.00  0.00    +0.000 C 
ATOM     32  C   UNL     1      -7.422  54.482  46.026  0.00  0.00    +0.000 C 
ENDBRANCH  29  30
ENDBRANCH  28  29
ENDBRANCH   5  28
TORSDOF 5
ENDMDL
MODEL 8
REMARK VINA RESULT:      -7.6      3.431      7.199
REMARK  Name = 338298
REMARK  5 active torsions:
REMARK  status: ('A' for Active; 'I' for Inactive)
REMARK    1  A    between atoms: C_6  and  C_10
REMARK    2  A    between atoms: C_14  and  O_18
REMARK    3  A    between atoms: N_17  and  C_21
REMARK    4  A    between atoms: C_21  and  C_24
REMARK    5  A    between atoms: C_24  and  C_27
REMARK                            x       y       z     vdW  Elec       q    Type
REMARK                         _______ _______ _______ _____ _____    ______ ____
ROOT
ATOM      1  C   UNL     1     -10.280  54.810  50.104  0.00  0.00    +0.000 A 
ATOM      2  C   UNL     1     -10.097  54.677  48.633  0.00  0.00    +0.000 A 
ATOM      3  C   UNL     1     -11.312  55.511  50.596  0.00  0.00    +0.000 A 
ATOM      4  O   UNL     1      -9.120  54.023  48.258  0.00  0.00    +0.000 OA
ATOM      5  N   UNL     1     -11.020  55.253  47.767  0.00  0.00    +0.000 N 
ATOM      6  C   UNL     1     -12.288  56.125  49.685  0.00  0.00    +0.000 A 
ATOM      7  C   UNL     1     -12.127  56.012  48.288  0.00  0.00    +0.000 A 
ATOM      8  C   UNL     1     -13.397  56.817  50.210  0.00  0.00    +0.000 A 
ATOM      9  C   UNL     1     -13.083  56.630  47.461  0.00  0.00    +0.000 A 
ATOM     10  C   UNL     1     -14.352  57.383  49.372  0.00  0.00    +0.000 A 
ATOM     11  C   UNL     1     -14.193  57.292  47.999  0.00  0.00    +0.000 A 
ENDROOT
BRANCH   1  17
ATOM     12  S   UNL     1      -8.380  51.925  51.978  0.00  0.00    +0.000 S 
ATOM     13  O   UNL     1      -7.338  51.311  51.180  0.00  0.00    +0.000 OA
ATOM     14  O   UNL     1      -9.247  51.105  52.806  0.00  0.00    +0.000 OA
ATOM     15  N   UNL     1      -9.318  52.794  50.983  0.00  0.00    +0.000 N 
ATOM     16  C   UNL     1      -7.566  53.024  53.081  0.00  0.00    +0.000 A 
ATOM     17  C   UNL     1      -9.303  54.093  51.019  0.00  0.00    +0.000 C 
ATOM     18  C   UNL     1      -7.737  54.384  52.882  0.00  0.00    +0.000 A 
ATOM     19  C   UNL     1      -6.790  52.522  54.130  0.00  0.00    +0.000 A 
ATOM     20  N   UNL     1      -8.493  54.871  51.821  0.00  0.00    +0.000 N 
ATOM     21  C   UNL     1      -7.053  55.269  53.725  0.00  0.00    +0.000 A 
ATOM     22  C   UNL     1      -6.141  53.414  54.980  0.00  0.00    +0.000 A 
ATOM     23  C   UNL     1      -6.266  54.788  54.774  0.00  0.00    +0.000 A 
ATOM     24  H   UNL     1      -9.906  52.333  50.343  0.00  0.00    +0.000 HD
ATOM     25  H   UNL     1      -8.447  55.835  51.628  0.00  0.00    +0.000 HD
ENDBRANCH   1  17
BRANCH   3  26
ATOM     26  O   UNL     1     -11.559  55.689  51.945  0.00  0.00    +0.000 OA
ATOM     27  H   UNL     1     -12.067  55.057  52.416  0.00  0.00    +0.000 HD
ENDBRANCH   3  26
BRANCH   5  28
ATOM     28  C   UNL     1     -10.762  55.198  46.308  0.00  0.00    +0.000 C 
BRANCH  28  29
ATOM     29  C   UNL     1     -11.449  54.057  45.534  0.00  0.00    +0.000 C 
BRANCH  29  30
ATOM     30  C   UNL     1     -10.510  52.959  45.120  0.00  0.00    +0.000 C 
ATOM     31  C   UNL     1      -9.172  53.212  44.482  0.00  0.00    +0.000 C 
ATOM     32  C   UNL     1     -10.317  52.716  43.645  0.00  0.00    +0.000 C 
ENDBRANCH  29  30
ENDBRANCH  28  29
ENDBRANCH   5  28
TORSDOF 5
ENDMDL
MODEL 9
REMARK VINA RESULT:      -7.6      2.688      8.013
REMARK  Name = 338298
REMARK  5 active torsions:
REMARK  status: ('A' for Active; 'I' for Inactive)
REMARK    1  A    between atoms: C_6  and  C_10
REMARK    2  A    between atoms: C_14  and  O_18
REMARK    3  A    between atoms: N_17  and  C_21
REMARK    4  A    between atoms: C_21  and  C_24
REMARK    5  A    between atoms: C_24  and  C_27
REMARK                            x       y       z     vdW  Elec       q    Type
REMARK                         _______ _______ _______ _____ _____    ______ ____
ROOT
ATOM      1  C   UNL     1      -9.973  54.152  50.630  0.00  0.00    +0.000 A 
ATOM      2  C   UNL     1     -11.160  54.584  51.417  0.00  0.00    +0.000 A 
ATOM      3  C   UNL     1      -9.918  54.384  49.310  0.00  0.00    +0.000 A 
ATOM      4  O   UNL     1     -11.140  54.328  52.625  0.00  0.00    +0.000 OA
ATOM      5  N   UNL     1     -12.199  55.260  50.788  0.00  0.00    +0.000 N 
ATOM      6  C   UNL     1     -11.014  55.096  48.639  0.00  0.00    +0.000 A 
ATOM      7  C   UNL     1     -12.148  55.508  49.370  0.00  0.00    +0.000 A 
ATOM      8  C   UNL     1     -10.927  55.380  47.263  0.00  0.00    +0.000 A 
ATOM      9  C   UNL     1     -13.175  56.173  48.677  0.00  0.00    +0.000 A 
ATOM     10  C   UNL     1     -11.935  56.078  46.607  0.00  0.00    +0.000 A 
ATOM     11  C   UNL     1     -13.061  56.471  47.314  0.00  0.00    +0.000 A 
ENDROOT
BRANCH   1  17
ATOM     12  S   UNL     1      -7.975  51.744  53.008  0.00  0.00    +0.000 S 
ATOM     13  O   UNL     1      -7.702  50.450  52.417  0.00  0.00    +0.000 OA
ATOM     14  O   UNL     1      -8.377  51.843  54.400  0.00  0.00    +0.000 OA
ATOM     15  N   UNL     1      -9.111  52.470  52.109  0.00  0.00    +0.000 N 
ATOM     16  C   UNL     1      -6.485  52.666  52.875  0.00  0.00    +0.000 A 
ATOM     17  C   UNL     1      -8.819  53.496  51.367  0.00  0.00    +0.000 C 
ATOM     18  C   UNL     1      -6.461  53.733  51.993  0.00  0.00    +0.000 A 
ATOM     19  C   UNL     1      -5.375  52.327  53.654  0.00  0.00    +0.000 A 
ATOM     20  N   UNL     1      -7.565  54.046  51.205  0.00  0.00    +0.000 N 
ATOM     21  C   UNL     1      -5.264  54.443  51.842  0.00  0.00    +0.000 A 
ATOM     22  C   UNL     1      -4.200  53.062  53.518  0.00  0.00    +0.000 A 
ATOM     23  C   UNL     1      -4.141  54.116  52.606  0.00  0.00    +0.000 A 
ATOM     24  H   UNL     1     -10.034  52.128  52.124  0.00  0.00    +0.000 HD
ATOM     25  H   UNL     1      -7.442  54.703  50.483  0.00  0.00    +0.000 HD
ENDBRANCH   1  17
BRANCH   3  26
ATOM     26  O   UNL     1      -8.858  54.019  48.500  0.00  0.00    +0.000 OA
ATOM     27  H   UNL     1      -8.980  53.376  47.828  0.00  0.00    +0.000 HD
ENDBRANCH   3  26
BRANCH   5  28
ATOM     28  C   UNL     1     -13.416  55.587  51.569  0.00  0.00    +0.000 C 
BRANCH  28  29
ATOM     29  C   UNL     1     -13.451  56.977  52.233  0.00  0.00    +0.000 C 
BRANCH  29  30
ATOM     30  C   UNL     1     -14.770  57.682  52.083  0.00  0.00    +0.000 C 
ATOM     31  C   UNL     1     -14.992  58.830  51.137  0.00  0.00    +0.000 C 
ATOM     32  C   UNL     1     -14.881  59.089  52.613  0.00  0.00    +0.000 C 
ENDBRANCH  29  30
ENDBRANCH  28  29
ENDBRANCH   5  28
TORSDOF 5
ENDMDL
