MODEL 1
REMARK VINA RESULT:      -8.7      0.000      0.000
REMARK  Name = 338063
REMARK  8 active torsions:
REMARK  status: ('A' for Active; 'I' for Inactive)
REMARK    1  A    between atoms: C_6  and  C_10
REMARK    2  A    between atoms: C_14  and  O_18
REMARK    3  A    between atoms: N_17  and  C_21
REMARK    4  A    between atoms: C_21  and  C_24
REMARK    5  A    between atoms: C_24  and  C_27
REMARK    6  A    between atoms: C_25  and  C_28
REMARK    7  A    between atoms: C_27  and  C_29
REMARK    8  A    between atoms: C_27  and  C_30
REMARK                            x       y       z     vdW  Elec       q    Type
REMARK                         _______ _______ _______ _____ _____    ______ ____
ROOT
ATOM      1  C   UNL     1     -10.244  54.536  52.224  0.00  0.00    +0.000 A 
ATOM      2  C   UNL     1      -8.858  55.081  52.098  0.00  0.00    +0.000 A 
ATOM      3  C   UNL     1     -10.464  53.423  52.946  0.00  0.00    +0.000 A 
ATOM      4  O   UNL     1      -8.708  56.161  51.517  0.00  0.00    +0.000 OA
ATOM      5  N   UNL     1      -7.802  54.369  52.653  0.00  0.00    +0.000 N 
ATOM      6  C   UNL     1      -9.351  52.746  53.630  0.00  0.00    +0.000 A 
ATOM      7  C   UNL     1      -8.041  53.239  53.495  0.00  0.00    +0.000 A 
ATOM      8  C   UNL     1      -9.590  51.618  54.440  0.00  0.00    +0.000 A 
ATOM      9  C   UNL     1      -7.015  52.618  54.223  0.00  0.00    +0.000 A 
ATOM     10  C   UNL     1      -8.551  50.979  55.121  0.00  0.00    +0.000 A 
ATOM     11  C   UNL     1      -7.263  51.495  55.013  0.00  0.00    +0.000 A 
ATOM     12  C   UNL     1      -8.811  49.788  55.992  0.00  0.00    +0.000 C 
ENDROOT
BRANCH   1  18
ATOM     13  S   UNL     1     -12.572  56.135  49.487  0.00  0.00    +0.000 S 
ATOM     14  O   UNL     1     -13.476  55.173  48.887  0.00  0.00    +0.000 OA
ATOM     15  O   UNL     1     -11.906  57.127  48.666  0.00  0.00    +0.000 OA
ATOM     16  N   UNL     1     -11.432  55.306  50.288  0.00  0.00    +0.000 N 
ATOM     17  C   UNL     1     -13.524  57.034  50.658  0.00  0.00    +0.000 A 
ATOM     18  C   UNL     1     -11.397  55.291  51.589  0.00  0.00    +0.000 C 
ATOM     19  C   UNL     1     -13.270  56.818  52.002  0.00  0.00    +0.000 A 
ATOM     20  C   UNL     1     -14.491  57.943  50.220  0.00  0.00    +0.000 A 
ATOM     21  N   UNL     1     -12.307  55.904  52.422  0.00  0.00    +0.000 N 
ATOM     22  C   UNL     1     -14.066  57.484  52.938  0.00  0.00    +0.000 A 
ATOM     23  C   UNL     1     -15.252  58.627  51.163  0.00  0.00    +0.000 A 
ATOM     24  C   UNL     1     -15.046  58.392  52.525  0.00  0.00    +0.000 A 
ATOM     25  H   UNL     1     -10.752  54.805  49.781  0.00  0.00    +0.000 HD
ATOM     26  H   UNL     1     -12.274  55.681  53.381  0.00  0.00    +0.000 HD
ENDBRANCH   1  18
BRANCH   3  27
ATOM     27  O   UNL     1     -11.712  52.858  53.154  0.00  0.00    +0.000 OA
ATOM     28  H   UNL     1     -11.797  51.929  53.232  0.00  0.00    +0.000 HD
ENDBRANCH   3  27
BRANCH   5  29
ATOM     29  C   UNL     1      -6.443  54.888  52.449  0.00  0.00    +0.000 C 
BRANCH  29  30
ATOM     30  C   UNL     1      -5.662  54.300  51.261  0.00  0.00    +0.000 C 
BRANCH  30  31
ATOM     31  C   UNL     1      -4.244  53.781  51.553  0.00  0.00    +0.000 C 
ATOM     32  C   UNL     1      -3.848  53.953  53.017  0.00  0.00    +0.000 C 
ATOM     33  C   UNL     1      -4.175  52.296  51.172  0.00  0.00    +0.000 C 
ENDBRANCH  30  31
ENDBRANCH  29  30
ENDBRANCH   5  29
TORSDOF 5
ENDMDL
MODEL 2
REMARK VINA RESULT:      -8.3      3.665      5.311
REMARK  Name = 338063
REMARK  8 active torsions:
REMARK  status: ('A' for Active; 'I' for Inactive)
REMARK    1  A    between atoms: C_6  and  C_10
REMARK    2  A    between atoms: C_14  and  O_18
REMARK    3  A    between atoms: N_17  and  C_21
REMARK    4  A    between atoms: C_21  and  C_24
REMARK    5  A    between atoms: C_24  and  C_27
REMARK    6  A    between atoms: C_25  and  C_28
REMARK    7  A    between atoms: C_27  and  C_29
REMARK    8  A    between atoms: C_27  and  C_30
REMARK                            x       y       z     vdW  Elec       q    Type
REMARK                         _______ _______ _______ _____ _____    ______ ____
ROOT
ATOM      1  C   UNL     1     -11.359  56.134  48.726  0.00  0.00    +0.000 A 
ATOM      2  C   UNL     1     -10.168  55.693  49.515  0.00  0.00    +0.000 A 
ATOM      3  C   UNL     1     -11.544  55.671  47.477  0.00  0.00    +0.000 A 
ATOM      4  O   UNL     1     -10.085  56.054  50.694  0.00  0.00    +0.000 OA
ATOM      5  N   UNL     1      -9.218  54.885  48.904  0.00  0.00    +0.000 N 
ATOM      6  C   UNL     1     -10.592  54.719  46.886  0.00  0.00    +0.000 A 
ATOM      7  C   UNL     1      -9.457  54.320  47.612  0.00  0.00    +0.000 A 
ATOM      8  C   UNL     1     -10.820  54.184  45.603  0.00  0.00    +0.000 A 
ATOM      9  C   UNL     1      -8.610  53.351  47.053  0.00  0.00    +0.000 A 
ATOM     10  C   UNL     1      -9.943  53.255  45.035  0.00  0.00    +0.000 A 
ATOM     11  C   UNL     1      -8.841  52.836  45.776  0.00  0.00    +0.000 A 
ATOM     12  C   UNL     1     -10.196  52.679  43.676  0.00  0.00    +0.000 C 
ENDROOT
BRANCH   1  18
ATOM     13  S   UNL     1     -13.561  59.308  49.464  0.00  0.00    +0.000 S 
ATOM     14  O   UNL     1     -14.710  59.411  48.586  0.00  0.00    +0.000 OA
ATOM     15  O   UNL     1     -12.787  60.486  49.801  0.00  0.00    +0.000 OA
ATOM     16  N   UNL     1     -12.550  58.213  48.825  0.00  0.00    +0.000 N 
ATOM     17  C   UNL     1     -14.167  58.675  50.987  0.00  0.00    +0.000 A 
ATOM     18  C   UNL     1     -12.382  57.047  49.377  0.00  0.00    +0.000 C 
ATOM     19  C   UNL     1     -13.825  57.378  51.331  0.00  0.00    +0.000 A 
ATOM     20  C   UNL     1     -14.955  59.481  51.813  0.00  0.00    +0.000 A 
ATOM     21  N   UNL     1     -13.043  56.585  50.494  0.00  0.00    +0.000 N 
ATOM     22  C   UNL     1     -14.354  56.848  52.511  0.00  0.00    +0.000 A 
ATOM     23  C   UNL     1     -15.445  58.953  53.003  0.00  0.00    +0.000 A 
ATOM     24  C   UNL     1     -15.152  57.632  53.350  0.00  0.00    +0.000 A 
ATOM     25  H   UNL     1     -12.052  58.436  48.005  0.00  0.00    +0.000 HD
ATOM     26  H   UNL     1     -12.958  55.630  50.715  0.00  0.00    +0.000 HD
ENDBRANCH   1  18
BRANCH   3  27
ATOM     27  O   UNL     1     -12.630  55.989  46.678  0.00  0.00    +0.000 OA
ATOM     28  H   UNL     1     -13.381  55.429  46.664  0.00  0.00    +0.000 HD
ENDBRANCH   3  27
BRANCH   5  29
ATOM     29  C   UNL     1      -8.021  54.529  49.678  0.00  0.00    +0.000 C 
BRANCH  29  30
ATOM     30  C   UNL     1      -6.871  55.552  49.659  0.00  0.00    +0.000 C 
BRANCH  30  31
ATOM     31  C   UNL     1      -5.441  54.986  49.653  0.00  0.00    +0.000 C 
ATOM     32  C   UNL     1      -5.082  54.288  50.963  0.00  0.00    +0.000 C 
ATOM     33  C   UNL     1      -5.309  53.995  48.488  0.00  0.00    +0.000 C 
ENDBRANCH  30  31
ENDBRANCH  29  30
ENDBRANCH   5  29
TORSDOF 5
ENDMDL
MODEL 3
REMARK VINA RESULT:      -8.1      1.566      2.255
REMARK  Name = 338063
REMARK  8 active torsions:
REMARK  status: ('A' for Active; 'I' for Inactive)
REMARK    1  A    between atoms: C_6  and  C_10
REMARK    2  A    between atoms: C_14  and  O_18
REMARK    3  A    between atoms: N_17  and  C_21
REMARK    4  A    between atoms: C_21  and  C_24
REMARK    5  A    between atoms: C_24  and  C_27
REMARK    6  A    between atoms: C_25  and  C_28
REMARK    7  A    between atoms: C_27  and  C_29
REMARK    8  A    between atoms: C_27  and  C_30
REMARK                            x       y       z     vdW  Elec       q    Type
REMARK                         _______ _______ _______ _____ _____    ______ ____
ROOT
ATOM      1  C   UNL     1     -10.154  54.515  52.185  0.00  0.00    +0.000 A 
ATOM      2  C   UNL     1      -8.751  55.031  52.130  0.00  0.00    +0.000 A 
ATOM      3  C   UNL     1     -10.433  53.407  52.893  0.00  0.00    +0.000 A 
ATOM      4  O   UNL     1      -8.549  56.108  51.560  0.00  0.00    +0.000 OA
ATOM      5  N   UNL     1      -7.740  54.295  52.736  0.00  0.00    +0.000 N 
ATOM      6  C   UNL     1      -9.371  52.705  53.630  0.00  0.00    +0.000 A 
ATOM      7  C   UNL     1      -8.047  53.170  53.562  0.00  0.00    +0.000 A 
ATOM      8  C   UNL     1      -9.676  51.582  54.424  0.00  0.00    +0.000 A 
ATOM      9  C   UNL     1      -7.072  52.526  54.340  0.00  0.00    +0.000 A 
ATOM     10  C   UNL     1      -8.686  50.919  55.156  0.00  0.00    +0.000 A 
ATOM     11  C   UNL     1      -7.383  51.407  55.114  0.00  0.00    +0.000 A 
ATOM     12  C   UNL     1      -9.015  49.733  56.009  0.00  0.00    +0.000 C 
ENDROOT
BRANCH   1  18
ATOM     13  S   UNL     1     -13.523  56.463  51.615  0.00  0.00    +0.000 S 
ATOM     14  O   UNL     1     -13.456  57.842  52.056  0.00  0.00    +0.000 OA
ATOM     15  O   UNL     1     -14.705  55.666  51.874  0.00  0.00    +0.000 OA
ATOM     16  N   UNL     1     -12.249  55.682  52.243  0.00  0.00    +0.000 N 
ATOM     17  C   UNL     1     -13.338  56.501  49.868  0.00  0.00    +0.000 A 
ATOM     18  C   UNL     1     -11.257  55.296  51.494  0.00  0.00    +0.000 C 
ATOM     19  C   UNL     1     -12.157  56.016  49.331  0.00  0.00    +0.000 A 
ATOM     20  C   UNL     1     -14.371  56.999  49.068  0.00  0.00    +0.000 A 
ATOM     21  N   UNL     1     -11.135  55.529  50.142  0.00  0.00    +0.000 N 
ATOM     22  C   UNL     1     -11.980  56.101  47.946  0.00  0.00    +0.000 A 
ATOM     23  C   UNL     1     -14.195  57.043  47.688  0.00  0.00    +0.000 A 
ATOM     24  C   UNL     1     -12.995  56.602  47.126  0.00  0.00    +0.000 A 
ATOM     25  H   UNL     1     -12.225  55.496  53.210  0.00  0.00    +0.000 HD
ATOM     26  H   UNL     1     -10.266  55.339  49.720  0.00  0.00    +0.000 HD
ENDBRANCH   1  18
BRANCH   3  27
ATOM     27  O   UNL     1     -11.702  52.869  53.035  0.00  0.00    +0.000 OA
ATOM     28  H   UNL     1     -12.455  53.422  52.964  0.00  0.00    +0.000 HD
ENDBRANCH   3  27
BRANCH   5  29
ATOM     29  C   UNL     1      -6.362  54.785  52.602  0.00  0.00    +0.000 C 
BRANCH  29  30
ATOM     30  C   UNL     1      -5.646  54.447  51.282  0.00  0.00    +0.000 C 
BRANCH  30  31
ATOM     31  C   UNL     1      -4.591  53.328  51.334  0.00  0.00    +0.000 C 
ATOM     32  C   UNL     1      -3.849  53.285  52.667  0.00  0.00    +0.000 C 
ATOM     33  C   UNL     1      -5.289  51.983  51.089  0.00  0.00    +0.000 C 
ENDBRANCH  30  31
ENDBRANCH  29  30
ENDBRANCH   5  29
TORSDOF 5
ENDMDL
MODEL 4
REMARK VINA RESULT:      -8.0      3.810      5.437
REMARK  Name = 338063
REMARK  8 active torsions:
REMARK  status: ('A' for Active; 'I' for Inactive)
REMARK    1  A    between atoms: C_6  and  C_10
REMARK    2  A    between atoms: C_14  and  O_18
REMARK    3  A    between atoms: N_17  and  C_21
REMARK    4  A    between atoms: C_21  and  C_24
REMARK    5  A    between atoms: C_24  and  C_27
REMARK    6  A    between atoms: C_25  and  C_28
REMARK    7  A    between atoms: C_27  and  C_29
REMARK    8  A    between atoms: C_27  and  C_30
REMARK                            x       y       z     vdW  Elec       q    Type
REMARK                         _______ _______ _______ _____ _____    ______ ____
ROOT
ATOM      1  C   UNL     1     -10.895  55.544  48.764  0.00  0.00    +0.000 A 
ATOM      2  C   UNL     1      -9.637  55.085  49.428  0.00  0.00    +0.000 A 
ATOM      3  C   UNL     1     -11.137  55.213  47.484  0.00  0.00    +0.000 A 
ATOM      4  O   UNL     1      -9.498  55.317  50.634  0.00  0.00    +0.000 OA
ATOM      5  N   UNL     1      -8.690  54.402  48.676  0.00  0.00    +0.000 N 
ATOM      6  C   UNL     1     -10.179  54.385  46.734  0.00  0.00    +0.000 A 
ATOM      7  C   UNL     1      -8.982  53.971  47.345  0.00  0.00    +0.000 A 
ATOM      8  C   UNL     1     -10.462  53.984  45.414  0.00  0.00    +0.000 A 
ATOM      9  C   UNL     1      -8.128  53.118  46.631  0.00  0.00    +0.000 A 
ATOM     10  C   UNL     1      -9.579  53.173  44.695  0.00  0.00    +0.000 A 
ATOM     11  C   UNL     1      -8.414  52.736  45.319  0.00  0.00    +0.000 A 
ATOM     12  C   UNL     1      -9.889  52.737  43.296  0.00  0.00    +0.000 C 
ENDROOT
BRANCH   1  18
ATOM     13  S   UNL     1     -13.592  56.400  51.496  0.00  0.00    +0.000 S 
ATOM     14  O   UNL     1     -13.005  56.736  52.779  0.00  0.00    +0.000 OA
ATOM     15  O   UNL     1     -14.775  55.566  51.426  0.00  0.00    +0.000 OA
ATOM     16  N   UNL     1     -12.438  55.706  50.593  0.00  0.00    +0.000 N 
ATOM     17  C   UNL     1     -14.032  57.928  50.747  0.00  0.00    +0.000 A 
ATOM     18  C   UNL     1     -11.918  56.322  49.572  0.00  0.00    +0.000 C 
ATOM     19  C   UNL     1     -13.294  58.349  49.653  0.00  0.00    +0.000 A 
ATOM     20  C   UNL     1     -15.106  58.668  51.250  0.00  0.00    +0.000 A 
ATOM     21  N   UNL     1     -12.223  57.604  49.168  0.00  0.00    +0.000 N 
ATOM     22  C   UNL     1     -13.600  59.593  49.092  0.00  0.00    +0.000 A 
ATOM     23  C   UNL     1     -15.423  59.886  50.658  0.00  0.00    +0.000 A 
ATOM     24  C   UNL     1     -14.664  60.355  49.583  0.00  0.00    +0.000 A 
ATOM     25  H   UNL     1     -12.126  54.800  50.821  0.00  0.00    +0.000 HD
ATOM     26  H   UNL     1     -11.644  58.021  48.489  0.00  0.00    +0.000 HD
ENDBRANCH   1  18
BRANCH   3  27
ATOM     27  O   UNL     1     -12.285  55.558  46.789  0.00  0.00    +0.000 OA
ATOM     28  H   UNL     1     -12.317  56.361  46.308  0.00  0.00    +0.000 HD
ENDBRANCH   3  27
BRANCH   5  29
ATOM     29  C   UNL     1      -7.431  54.029  49.334  0.00  0.00    +0.000 C 
BRANCH  29  30
ATOM     30  C   UNL     1      -6.316  55.090  49.319  0.00  0.00    +0.000 C 
BRANCH  30  31
ATOM     31  C   UNL     1      -4.868  54.572  49.315  0.00  0.00    +0.000 C 
ATOM     32  C   UNL     1      -4.483  53.898  50.630  0.00  0.00    +0.000 C 
ATOM     33  C   UNL     1      -4.705  53.576  48.159  0.00  0.00    +0.000 C 
ENDBRANCH  30  31
ENDBRANCH  29  30
ENDBRANCH   5  29
TORSDOF 5
ENDMDL
MODEL 5
REMARK VINA RESULT:      -7.9      3.891      5.054
REMARK  Name = 338063
REMARK  8 active torsions:
REMARK  status: ('A' for Active; 'I' for Inactive)
REMARK    1  A    between atoms: C_6  and  C_10
REMARK    2  A    between atoms: C_14  and  O_18
REMARK    3  A    between atoms: N_17  and  C_21
REMARK    4  A    between atoms: C_21  and  C_24
REMARK    5  A    between atoms: C_24  and  C_27
REMARK    6  A    between atoms: C_25  and  C_28
REMARK    7  A    between atoms: C_27  and  C_29
REMARK    8  A    between atoms: C_27  and  C_30
REMARK                            x       y       z     vdW  Elec       q    Type
REMARK                         _______ _______ _______ _____ _____    ______ ____
ROOT
ATOM      1  C   UNL     1     -12.420  54.231  49.968  0.00  0.00    +0.000 A 
ATOM      2  C   UNL     1     -12.114  53.936  48.534  0.00  0.00    +0.000 A 
ATOM      3  C   UNL     1     -11.929  53.435  50.934  0.00  0.00    +0.000 A 
ATOM      4  O   UNL     1     -12.492  54.747  47.680  0.00  0.00    +0.000 OA
ATOM      5  N   UNL     1     -11.404  52.784  48.220  0.00  0.00    +0.000 N 
ATOM      6  C   UNL     1     -11.077  52.286  50.593  0.00  0.00    +0.000 A 
ATOM      7  C   UNL     1     -10.806  51.989  49.246  0.00  0.00    +0.000 A 
ATOM      8  C   UNL     1     -10.509  51.491  51.609  0.00  0.00    +0.000 A 
ATOM      9  C   UNL     1      -9.926  50.935  48.958  0.00  0.00    +0.000 A 
ATOM     10  C   UNL     1      -9.673  50.413  51.307  0.00  0.00    +0.000 A 
ATOM     11  C   UNL     1      -9.379  50.148  49.972  0.00  0.00    +0.000 A 
ATOM     12  C   UNL     1      -9.061  49.578  52.389  0.00  0.00    +0.000 C 
ENDROOT
BRANCH   1  18
ATOM     13  S   UNL     1     -15.348  56.503  51.284  0.00  0.00    +0.000 S 
ATOM     14  O   UNL     1     -15.312  56.688  52.721  0.00  0.00    +0.000 OA
ATOM     15  O   UNL     1     -16.608  56.280  50.603  0.00  0.00    +0.000 OA
ATOM     16  N   UNL     1     -14.360  55.270  50.921  0.00  0.00    +0.000 N 
ATOM     17  C   UNL     1     -14.676  57.970  50.587  0.00  0.00    +0.000 A 
ATOM     18  C   UNL     1     -13.226  55.469  50.313  0.00  0.00    +0.000 C 
ATOM     19  C   UNL     1     -13.428  57.891  49.991  0.00  0.00    +0.000 A 
ATOM     20  C   UNL     1     -15.403  59.162  50.635  0.00  0.00    +0.000 A 
ATOM     21  N   UNL     1     -12.712  56.696  49.957  0.00  0.00    +0.000 N 
ATOM     22  C   UNL     1     -12.861  59.067  49.491  0.00  0.00    +0.000 A 
ATOM     23  C   UNL     1     -14.843  60.318  50.100  0.00  0.00    +0.000 A 
ATOM     24  C   UNL     1     -13.566  60.274  49.535  0.00  0.00    +0.000 A 
ATOM     25  H   UNL     1     -14.622  54.353  51.165  0.00  0.00    +0.000 HD
ATOM     26  H   UNL     1     -11.775  56.732  49.658  0.00  0.00    +0.000 HD
ENDBRANCH   1  18
BRANCH   3  27
ATOM     27  O   UNL     1     -12.125  53.641  52.290  0.00  0.00    +0.000 OA
ATOM     28  H   UNL     1     -11.948  54.480  52.666  0.00  0.00    +0.000 HD
ENDBRANCH   3  27
BRANCH   5  29
ATOM     29  C   UNL     1     -11.183  52.481  46.800  0.00  0.00    +0.000 C 
BRANCH  29  30
ATOM     30  C   UNL     1     -10.010  53.213  46.123  0.00  0.00    +0.000 C 
BRANCH  30  31
ATOM     31  C   UNL     1      -9.998  53.228  44.585  0.00  0.00    +0.000 C 
ATOM     32  C   UNL     1      -8.583  53.262  44.013  0.00  0.00    +0.000 C 
ATOM     33  C   UNL     1     -10.730  51.980  44.075  0.00  0.00    +0.000 C 
ENDBRANCH  30  31
ENDBRANCH  29  30
ENDBRANCH   5  29
TORSDOF 5
ENDMDL
MODEL 6
REMARK VINA RESULT:      -7.9      4.279      6.146
REMARK  Name = 338063
REMARK  8 active torsions:
REMARK  status: ('A' for Active; 'I' for Inactive)
REMARK    1  A    between atoms: C_6  and  C_10
REMARK    2  A    between atoms: C_14  and  O_18
REMARK    3  A    between atoms: N_17  and  C_21
REMARK    4  A    between atoms: C_21  and  C_24
REMARK    5  A    between atoms: C_24  and  C_27
REMARK    6  A    between atoms: C_25  and  C_28
REMARK    7  A    between atoms: C_27  and  C_29
REMARK    8  A    between atoms: C_27  and  C_30
REMARK                            x       y       z     vdW  Elec       q    Type
REMARK                         _______ _______ _______ _____ _____    ______ ____
ROOT
ATOM      1  C   UNL     1     -10.815  55.664  48.704  0.00  0.00    +0.000 A 
ATOM      2  C   UNL     1     -11.161  55.219  47.319  0.00  0.00    +0.000 A 
ATOM      3  C   UNL     1      -9.572  55.471  49.179  0.00  0.00    +0.000 A 
ATOM      4  O   UNL     1     -12.278  55.507  46.877  0.00  0.00    +0.000 OA
ATOM      5  N   UNL     1     -10.213  54.522  46.580  0.00  0.00    +0.000 N 
ATOM      6  C   UNL     1      -8.542  54.839  48.339  0.00  0.00    +0.000 A 
ATOM      7  C   UNL     1      -8.867  54.395  47.046  0.00  0.00    +0.000 A 
ATOM      8  C   UNL     1      -7.223  54.696  48.814  0.00  0.00    +0.000 A 
ATOM      9  C   UNL     1      -7.844  53.870  46.243  0.00  0.00    +0.000 A 
ATOM     10  C   UNL     1      -6.224  54.126  48.021  0.00  0.00    +0.000 A 
ATOM     11  C   UNL     1      -6.544  53.723  46.728  0.00  0.00    +0.000 A 
ATOM     12  C   UNL     1      -4.820  53.986  48.523  0.00  0.00    +0.000 C 
ENDROOT
BRANCH   1  18
ATOM     13  S   UNL     1     -13.546  56.375  51.442  0.00  0.00    +0.000 S 
ATOM     14  O   UNL     1     -12.975  56.682  52.739  0.00  0.00    +0.000 OA
ATOM     15  O   UNL     1     -14.711  55.519  51.337  0.00  0.00    +0.000 OA
ATOM     16  N   UNL     1     -12.373  55.735  50.526  0.00  0.00    +0.000 N 
ATOM     17  C   UNL     1     -14.015  57.916  50.739  0.00  0.00    +0.000 A 
ATOM     18  C   UNL     1     -11.859  56.394  49.529  0.00  0.00    +0.000 C 
ATOM     19  C   UNL     1     -13.279  58.388  49.665  0.00  0.00    +0.000 A 
ATOM     20  C   UNL     1     -15.107  58.617  51.258  0.00  0.00    +0.000 A 
ATOM     21  N   UNL     1     -12.188  57.681  49.163  0.00  0.00    +0.000 N 
ATOM     22  C   UNL     1     -13.608  59.642  49.141  0.00  0.00    +0.000 A 
ATOM     23  C   UNL     1     -15.446  59.846  50.703  0.00  0.00    +0.000 A 
ATOM     24  C   UNL     1     -14.691  60.365  49.649  0.00  0.00    +0.000 A 
ATOM     25  H   UNL     1     -12.042  54.829  50.727  0.00  0.00    +0.000 HD
ATOM     26  H   UNL     1     -11.614  58.132  48.503  0.00  0.00    +0.000 HD
ENDBRANCH   1  18
BRANCH   3  27
ATOM     27  O   UNL     1      -9.142  55.877  50.431  0.00  0.00    +0.000 OA
ATOM     28  H   UNL     1      -8.493  55.379  50.887  0.00  0.00    +0.000 HD
ENDBRANCH   3  27
BRANCH   5  29
ATOM     29  C   UNL     1     -10.605  54.031  45.252  0.00  0.00    +0.000 C 
BRANCH  29  30
ATOM     30  C   UNL     1     -11.123  52.583  45.189  0.00  0.00    +0.000 C 
BRANCH  30  31
ATOM     31  C   UNL     1     -10.502  51.671  44.117  0.00  0.00    +0.000 C 
ATOM     32  C   UNL     1      -9.846  52.460  42.987  0.00  0.00    +0.000 C 
ATOM     33  C   UNL     1      -9.458  50.766  44.786  0.00  0.00    +0.000 C 
ENDBRANCH  30  31
ENDBRANCH  29  30
ENDBRANCH   5  29
TORSDOF 5
ENDMDL
MODEL 7
REMARK VINA RESULT:      -7.8      3.626      5.397
REMARK  Name = 338063
REMARK  8 active torsions:
REMARK  status: ('A' for Active; 'I' for Inactive)
REMARK    1  A    between atoms: C_6  and  C_10
REMARK    2  A    between atoms: C_14  and  O_18
REMARK    3  A    between atoms: N_17  and  C_21
REMARK    4  A    between atoms: C_21  and  C_24
REMARK    5  A    between atoms: C_24  and  C_27
REMARK    6  A    between atoms: C_25  and  C_28
REMARK    7  A    between atoms: C_27  and  C_29
REMARK    8  A    between atoms: C_27  and  C_30
REMARK                            x       y       z     vdW  Elec       q    Type
REMARK                         _______ _______ _______ _____ _____    ______ ____
ROOT
ATOM      1  C   UNL     1     -11.455  56.016  48.795  0.00  0.00    +0.000 A 
ATOM      2  C   UNL     1     -10.349  55.456  49.632  0.00  0.00    +0.000 A 
ATOM      3  C   UNL     1     -11.593  55.622  47.517  0.00  0.00    +0.000 A 
ATOM      4  O   UNL     1     -10.316  55.758  50.829  0.00  0.00    +0.000 OA
ATOM      5  N   UNL     1      -9.422  54.606  49.041  0.00  0.00    +0.000 N 
ATOM      6  C   UNL     1     -10.675  54.628  46.939  0.00  0.00    +0.000 A 
ATOM      7  C   UNL     1      -9.619  54.117  47.712  0.00  0.00    +0.000 A 
ATOM      8  C   UNL     1     -10.859  54.167  45.621  0.00  0.00    +0.000 A 
ATOM      9  C   UNL     1      -8.809  53.113  47.158  0.00  0.00    +0.000 A 
ATOM     10  C   UNL     1     -10.016  53.202  45.063  0.00  0.00    +0.000 A 
ATOM     11  C   UNL     1      -8.995  52.672  45.848  0.00  0.00    +0.000 A 
ATOM     12  C   UNL     1     -10.223  52.704  43.666  0.00  0.00    +0.000 C 
ENDROOT
BRANCH   1  18
ATOM     13  S   UNL     1     -13.546  59.276  49.477  0.00  0.00    +0.000 S 
ATOM     14  O   UNL     1     -14.683  59.410  48.587  0.00  0.00    +0.000 OA
ATOM     15  O   UNL     1     -12.733  60.429  49.808  0.00  0.00    +0.000 OA
ATOM     16  N   UNL     1     -12.570  58.138  48.860  0.00  0.00    +0.000 N 
ATOM     17  C   UNL     1     -14.188  58.683  51.001  0.00  0.00    +0.000 A 
ATOM     18  C   UNL     1     -12.449  56.972  49.426  0.00  0.00    +0.000 C 
ATOM     19  C   UNL     1     -13.896  57.378  51.363  0.00  0.00    +0.000 A 
ATOM     20  C   UNL     1     -14.954  59.526  51.811  0.00  0.00    +0.000 A 
ATOM     21  N   UNL     1     -13.137  56.548  50.542  0.00  0.00    +0.000 N 
ATOM     22  C   UNL     1     -14.455  56.881  52.544  0.00  0.00    +0.000 A 
ATOM     23  C   UNL     1     -15.473  59.030  53.003  0.00  0.00    +0.000 A 
ATOM     24  C   UNL     1     -15.232  57.703  53.367  0.00  0.00    +0.000 A 
ATOM     25  H   UNL     1     -12.057  58.333  48.042  0.00  0.00    +0.000 HD
ATOM     26  H   UNL     1     -13.089  55.592  50.774  0.00  0.00    +0.000 HD
ENDBRANCH   1  18
BRANCH   3  27
ATOM     27  O   UNL     1     -12.602  56.053  46.670  0.00  0.00    +0.000 OA
ATOM     28  H   UNL     1     -12.436  56.140  45.752  0.00  0.00    +0.000 HD
ENDBRANCH   3  27
BRANCH   5  29
ATOM     29  C   UNL     1      -8.304  54.131  49.867  0.00  0.00    +0.000 C 
BRANCH  29  30
ATOM     30  C   UNL     1      -8.573  52.876  50.716  0.00  0.00    +0.000 C 
BRANCH  30  31
ATOM     31  C   UNL     1      -7.847  52.787  52.069  0.00  0.00    +0.000 C 
ATOM     32  C   UNL     1      -8.036  54.042  52.918  0.00  0.00    +0.000 C 
ATOM     33  C   UNL     1      -8.376  51.565  52.832  0.00  0.00    +0.000 C 
ENDBRANCH  30  31
ENDBRANCH  29  30
ENDBRANCH   5  29
TORSDOF 5
ENDMDL
MODEL 8
REMARK VINA RESULT:      -7.8      3.157      7.627
REMARK  Name = 338063
REMARK  8 active torsions:
REMARK  status: ('A' for Active; 'I' for Inactive)
REMARK    1  A    between atoms: C_6  and  C_10
REMARK    2  A    between atoms: C_14  and  O_18
REMARK    3  A    between atoms: N_17  and  C_21
REMARK    4  A    between atoms: C_21  and  C_24
REMARK    5  A    between atoms: C_24  and  C_27
REMARK    6  A    between atoms: C_25  and  C_28
REMARK    7  A    between atoms: C_27  and  C_29
REMARK    8  A    between atoms: C_27  and  C_30
REMARK                            x       y       z     vdW  Elec       q    Type
REMARK                         _______ _______ _______ _____ _____    ______ ____
ROOT
ATOM      1  C   UNL     1      -9.995  55.138  51.026  0.00  0.00    +0.000 A 
ATOM      2  C   UNL     1      -9.692  55.142  49.562  0.00  0.00    +0.000 A 
ATOM      3  C   UNL     1     -11.213  55.508  51.459  0.00  0.00    +0.000 A 
ATOM      4  O   UNL     1      -8.600  54.695  49.193  0.00  0.00    +0.000 OA
ATOM      5  N   UNL     1     -10.649  55.624  48.678  0.00  0.00    +0.000 N 
ATOM      6  C   UNL     1     -12.258  55.901  50.501  0.00  0.00    +0.000 A 
ATOM      7  C   UNL     1     -11.971  55.932  49.125  0.00  0.00    +0.000 A 
ATOM      8  C   UNL     1     -13.553  56.226  50.950  0.00  0.00    +0.000 A 
ATOM      9  C   UNL     1     -13.011  56.234  48.233  0.00  0.00    +0.000 A 
ATOM     10  C   UNL     1     -14.567  56.574  50.054  0.00  0.00    +0.000 A 
ATOM     11  C   UNL     1     -14.287  56.565  48.690  0.00  0.00    +0.000 A 
ATOM     12  C   UNL     1     -15.947  56.906  50.533  0.00  0.00    +0.000 C 
ENDROOT
BRANCH   1  18
ATOM     13  S   UNL     1      -6.557  54.781  52.902  0.00  0.00    +0.000 S 
ATOM     14  O   UNL     1      -6.367  55.792  53.924  0.00  0.00    +0.000 OA
ATOM     15  O   UNL     1      -5.460  54.398  52.036  0.00  0.00    +0.000 OA
ATOM     16  N   UNL     1      -7.791  55.255  51.963  0.00  0.00    +0.000 N 
ATOM     17  C   UNL     1      -7.039  53.318  53.748  0.00  0.00    +0.000 A 
ATOM     18  C   UNL     1      -8.940  54.646  51.999  0.00  0.00    +0.000 C 
ATOM     19  C   UNL     1      -8.349  52.890  53.604  0.00  0.00    +0.000 A 
ATOM     20  C   UNL     1      -6.108  52.621  54.522  0.00  0.00    +0.000 A 
ATOM     21  N   UNL     1      -9.266  53.599  52.834  0.00  0.00    +0.000 N 
ATOM     22  C   UNL     1      -8.755  51.762  54.324  0.00  0.00    +0.000 A 
ATOM     23  C   UNL     1      -6.517  51.479  55.204  0.00  0.00    +0.000 A 
ATOM     24  C   UNL     1      -7.844  51.052  55.113  0.00  0.00    +0.000 A 
ATOM     25  H   UNL     1      -7.668  56.018  51.353  0.00  0.00    +0.000 HD
ATOM     26  H   UNL     1     -10.213  53.335  52.889  0.00  0.00    +0.000 HD
ENDBRANCH   1  18
BRANCH   3  27
ATOM     27  O   UNL     1     -11.605  55.505  52.788  0.00  0.00    +0.000 OA
ATOM     28  H   UNL     1     -10.996  55.752  53.456  0.00  0.00    +0.000 HD
ENDBRANCH   3  27
BRANCH   5  29
ATOM     29  C   UNL     1     -10.296  55.687  47.254  0.00  0.00    +0.000 C 
BRANCH  29  30
ATOM     30  C   UNL     1     -10.211  54.340  46.514  0.00  0.00    +0.000 C 
BRANCH  30  31
ATOM     31  C   UNL     1     -11.532  53.756  45.985  0.00  0.00    +0.000 C 
ATOM     32  C   UNL     1     -11.382  53.135  44.598  0.00  0.00    +0.000 C 
ATOM     33  C   UNL     1     -12.030  52.693  46.974  0.00  0.00    +0.000 C 
ENDBRANCH  30  31
ENDBRANCH  29  30
ENDBRANCH   5  29
TORSDOF 5
ENDMDL
MODEL 9
REMARK VINA RESULT:      -7.7      4.590      7.197
REMARK  Name = 338063
REMARK  8 active torsions:
REMARK  status: ('A' for Active; 'I' for Inactive)
REMARK    1  A    between atoms: C_6  and  C_10
REMARK    2  A    between atoms: C_14  and  O_18
REMARK    3  A    between atoms: N_17  and  C_21
REMARK    4  A    between atoms: C_21  and  C_24
REMARK    5  A    between atoms: C_24  and  C_27
REMARK    6  A    between atoms: C_25  and  C_28
REMARK    7  A    between atoms: C_27  and  C_29
REMARK    8  A    between atoms: C_27  and  C_30
REMARK                            x       y       z     vdW  Elec       q    Type
REMARK                         _______ _______ _______ _____ _____    ______ ____
ROOT
ATOM      1  C   UNL     1     -10.789  54.442  48.693  0.00  0.00    +0.000 A 
ATOM      2  C   UNL     1     -10.297  54.012  50.038  0.00  0.00    +0.000 A 
ATOM      3  C   UNL     1     -11.804  55.318  48.600  0.00  0.00    +0.000 A 
ATOM      4  O   UNL     1      -9.295  53.290  50.088  0.00  0.00    +0.000 OA
ATOM      5  N   UNL     1     -10.967  54.453  51.172  0.00  0.00    +0.000 N 
ATOM      6  C   UNL     1     -12.426  55.872  49.812  0.00  0.00    +0.000 A 
ATOM      7  C   UNL     1     -11.986  55.452  51.080  0.00  0.00    +0.000 A 
ATOM      8  C   UNL     1     -13.446  56.838  49.714  0.00  0.00    +0.000 A 
ATOM      9  C   UNL     1     -12.544  56.058  52.216  0.00  0.00    +0.000 A 
ATOM     10  C   UNL     1     -14.029  57.398  50.854  0.00  0.00    +0.000 A 
ATOM     11  C   UNL     1     -13.562  57.006  52.106  0.00  0.00    +0.000 A 
ATOM     12  C   UNL     1     -15.104  58.436  50.747  0.00  0.00    +0.000 C 
ENDROOT
BRANCH   1  18
ATOM     13  S   UNL     1      -8.033  53.951  45.930  0.00  0.00    +0.000 S 
ATOM     14  O   UNL     1      -6.986  53.035  46.338  0.00  0.00    +0.000 OA
ATOM     15  O   UNL     1      -7.706  55.167  45.213  0.00  0.00    +0.000 OA
ATOM     16  N   UNL     1      -8.870  54.364  47.256  0.00  0.00    +0.000 N 
ATOM     17  C   UNL     1      -9.095  53.035  44.871  0.00  0.00    +0.000 A 
ATOM     18  C   UNL     1     -10.083  53.933  47.450  0.00  0.00    +0.000 C 
ATOM     19  C   UNL     1     -10.355  52.708  45.344  0.00  0.00    +0.000 A 
ATOM     20  C   UNL     1      -8.662  52.673  43.593  0.00  0.00    +0.000 A 
ATOM     21  N   UNL     1     -10.770  53.071  46.623  0.00  0.00    +0.000 N 
ATOM     22  C   UNL     1     -11.181  51.927  44.530  0.00  0.00    +0.000 A 
ATOM     23  C   UNL     1      -9.509  51.927  42.779  0.00  0.00    +0.000 A 
ATOM     24  C   UNL     1     -10.767  51.545  43.250  0.00  0.00    +0.000 A 
ATOM     25  H   UNL     1      -8.454  54.952  47.927  0.00  0.00    +0.000 HD
ATOM     26  H   UNL     1     -11.611  52.685  46.959  0.00  0.00    +0.000 HD
ENDBRANCH   1  18
BRANCH   3  27
ATOM     27  O   UNL     1     -12.309  55.805  47.405  0.00  0.00    +0.000 OA
ATOM     28  H   UNL     1     -13.196  56.102  47.359  0.00  0.00    +0.000 HD
ENDBRANCH   3  27
BRANCH   5  29
ATOM     29  C   UNL     1     -10.509  53.955  52.476  0.00  0.00    +0.000 C 
BRANCH  29  30
ATOM     30  C   UNL     1      -9.621  54.909  53.294  0.00  0.00    +0.000 C 
BRANCH  30  31
ATOM     31  C   UNL     1      -8.117  54.904  52.970  0.00  0.00    +0.000 C 
ATOM     32  C   UNL     1      -7.744  55.937  51.909  0.00  0.00    +0.000 C 
ATOM     33  C   UNL     1      -7.335  55.186  54.260  0.00  0.00    +0.000 C 
ENDBRANCH  30  31
ENDBRANCH  29  30
ENDBRANCH   5  29
TORSDOF 5
ENDMDL
