MODEL 1
REMARK VINA RESULT:      -8.1      0.000      0.000
REMARK  Name = 338222
REMARK  7 active torsions:
REMARK  status: ('A' for Active; 'I' for Inactive)
REMARK    1  A    between atoms: C_6  and  C_10
REMARK    2  A    between atoms: C_14  and  O_18
REMARK    3  A    between atoms: N_17  and  C_21
REMARK    4  A    between atoms: C_21  and  C_24
REMARK    5  A    between atoms: C_24  and  C_28
REMARK    6  A    between atoms: C_28  and  C_29
REMARK    7  A    between atoms: C_28  and  C_30
REMARK                            x       y       z     vdW  Elec       q    Type
REMARK                         _______ _______ _______ _____ _____    ______ ____
ROOT
ATOM      1  C   UNL     1     -12.525  54.293  49.461  0.00  0.00    +0.000 A 
ATOM      2  C   UNL     1     -12.030  54.283  48.052  0.00  0.00    +0.000 A 
ATOM      3  C   UNL     1     -12.214  53.282  50.291  0.00  0.00    +0.000 A 
ATOM      4  O   UNL     1     -12.243  55.278  47.353  0.00  0.00    +0.000 OA
ATOM      5  N   UNL     1     -11.331  53.171  47.595  0.00  0.00    +0.000 N 
ATOM      6  C   UNL     1     -11.372  52.162  49.833  0.00  0.00    +0.000 A 
ATOM      7  C   UNL     1     -10.919  52.138  48.499  0.00  0.00    +0.000 A 
ATOM      8  C   UNL     1     -10.976  51.119  50.694  0.00  0.00    +0.000 A 
ATOM      9  C   UNL     1     -10.050  51.110  48.094  0.00  0.00    +0.000 A 
ATOM     10  F   UNL     1     -11.375  51.075  51.974  0.00  0.00    +0.000 F 
ATOM     11  C   UNL     1     -10.144  50.089  50.265  0.00  0.00    +0.000 A 
ATOM     12  C   UNL     1      -9.672  50.087  48.964  0.00  0.00    +0.000 A 
ENDROOT
BRANCH   1  18
ATOM     13  S   UNL     1     -15.352  56.440  51.153  0.00  0.00    +0.000 S 
ATOM     14  O   UNL     1     -15.214  56.508  52.594  0.00  0.00    +0.000 OA
ATOM     15  O   UNL     1     -16.661  56.267  50.550  0.00  0.00    +0.000 OA
ATOM     16  N   UNL     1     -14.399  55.243  50.620  0.00  0.00    +0.000 N 
ATOM     17  C   UNL     1     -14.732  57.960  50.533  0.00  0.00    +0.000 A 
ATOM     18  C   UNL     1     -13.310  55.496  49.955  0.00  0.00    +0.000 C 
ATOM     19  C   UNL     1     -13.533  57.934  49.842  0.00  0.00    +0.000 A 
ATOM     20  C   UNL     1     -15.450  59.143  50.731  0.00  0.00    +0.000 A 
ATOM     21  N   UNL     1     -12.822  56.750  49.660  0.00  0.00    +0.000 N 
ATOM     22  C   UNL     1     -13.003  59.151  49.396  0.00  0.00    +0.000 A 
ATOM     23  C   UNL     1     -14.929  60.341  50.250  0.00  0.00    +0.000 A 
ATOM     24  C   UNL     1     -13.700  60.346  49.590  0.00  0.00    +0.000 A 
ATOM     25  H   UNL     1     -14.647  54.309  50.804  0.00  0.00    +0.000 HD
ATOM     26  H   UNL     1     -11.910  56.815  49.297  0.00  0.00    +0.000 HD
ENDBRANCH   1  18
BRANCH   3  27
ATOM     27  O   UNL     1     -12.596  53.234  51.619  0.00  0.00    +0.000 OA
ATOM     28  H   UNL     1     -12.243  52.576  52.185  0.00  0.00    +0.000 HD
ENDBRANCH   3  27
BRANCH   5  29
ATOM     29  C   UNL     1     -10.907  53.168  46.187  0.00  0.00    +0.000 C 
BRANCH  29  30
ATOM     30  C   UNL     1     -11.894  52.555  45.180  0.00  0.00    +0.000 C 
BRANCH  30  31
ATOM     31  C   UNL     1     -11.457  51.259  44.476  0.00  0.00    +0.000 C 
ATOM     32  C   UNL     1      -9.940  51.142  44.355  0.00  0.00    +0.000 C 
ATOM     33  C   UNL     1     -12.005  50.062  45.265  0.00  0.00    +0.000 C 
ENDBRANCH  30  31
ENDBRANCH  29  30
ENDBRANCH   5  29
TORSDOF 5
ENDMDL
MODEL 2
REMARK VINA RESULT:      -8.1      3.555      4.900
REMARK  Name = 338222
REMARK  7 active torsions:
REMARK  status: ('A' for Active; 'I' for Inactive)
REMARK    1  A    between atoms: C_6  and  C_10
REMARK    2  A    between atoms: C_14  and  O_18
REMARK    3  A    between atoms: N_17  and  C_21
REMARK    4  A    between atoms: C_21  and  C_24
REMARK    5  A    between atoms: C_24  and  C_28
REMARK    6  A    between atoms: C_28  and  C_29
REMARK    7  A    between atoms: C_28  and  C_30
REMARK                            x       y       z     vdW  Elec       q    Type
REMARK                         _______ _______ _______ _____ _____    ______ ____
ROOT
ATOM      1  C   UNL     1     -11.256  56.107  48.763  0.00  0.00    +0.000 A 
ATOM      2  C   UNL     1     -10.067  55.701  49.572  0.00  0.00    +0.000 A 
ATOM      3  C   UNL     1     -11.430  55.610  47.525  0.00  0.00    +0.000 A 
ATOM      4  O   UNL     1      -9.999  56.090  50.742  0.00  0.00    +0.000 OA
ATOM      5  N   UNL     1      -9.105  54.886  48.986  0.00  0.00    +0.000 N 
ATOM      6  C   UNL     1     -10.465  54.653  46.955  0.00  0.00    +0.000 A 
ATOM      7  C   UNL     1      -9.332  54.283  47.706  0.00  0.00    +0.000 A 
ATOM      8  C   UNL     1     -10.650  54.067  45.687  0.00  0.00    +0.000 A 
ATOM      9  C   UNL     1      -8.461  53.308  47.187  0.00  0.00    +0.000 A 
ATOM     10  F   UNL     1     -11.702  54.379  44.915  0.00  0.00    +0.000 F 
ATOM     11  C   UNL     1      -9.757  53.130  45.174  0.00  0.00    +0.000 A 
ATOM     12  C   UNL     1      -8.664  52.742  45.929  0.00  0.00    +0.000 A 
ENDROOT
BRANCH   1  18
ATOM     13  S   UNL     1     -13.518  59.254  49.431  0.00  0.00    +0.000 S 
ATOM     14  O   UNL     1     -14.659  59.320  48.539  0.00  0.00    +0.000 OA
ATOM     15  O   UNL     1     -12.771  60.455  49.755  0.00  0.00    +0.000 OA
ATOM     16  N   UNL     1     -12.477  58.172  48.823  0.00  0.00    +0.000 N 
ATOM     17  C   UNL     1     -14.129  58.638  50.956  0.00  0.00    +0.000 A 
ATOM     18  C   UNL     1     -12.297  57.016  49.393  0.00  0.00    +0.000 C 
ATOM     19  C   UNL     1     -13.765  57.354  51.327  0.00  0.00    +0.000 A 
ATOM     20  C   UNL     1     -14.945  59.439  51.760  0.00  0.00    +0.000 A 
ATOM     21  N   UNL     1     -12.960  56.562  50.512  0.00  0.00    +0.000 N 
ATOM     22  C   UNL     1     -14.297  56.835  52.513  0.00  0.00    +0.000 A 
ATOM     23  C   UNL     1     -15.437  58.923  52.956  0.00  0.00    +0.000 A 
ATOM     24  C   UNL     1     -15.120  57.616  53.327  0.00  0.00    +0.000 A 
ATOM     25  H   UNL     1     -11.972  58.392  48.007  0.00  0.00    +0.000 HD
ATOM     26  H   UNL     1     -12.858  55.613  50.752  0.00  0.00    +0.000 HD
ENDBRANCH   1  18
BRANCH   3  27
ATOM     27  O   UNL     1     -12.521  55.901  46.728  0.00  0.00    +0.000 OA
ATOM     28  H   UNL     1     -13.196  56.469  47.046  0.00  0.00    +0.000 HD
ENDBRANCH   3  27
BRANCH   5  29
ATOM     29  C   UNL     1      -7.920  54.552  49.789  0.00  0.00    +0.000 C 
BRANCH  29  30
ATOM     30  C   UNL     1      -6.751  55.549  49.725  0.00  0.00    +0.000 C 
BRANCH  30  31
ATOM     31  C   UNL     1      -5.331  54.960  49.728  0.00  0.00    +0.000 C 
ATOM     32  C   UNL     1      -5.004  54.228  51.027  0.00  0.00    +0.000 C 
ATOM     33  C   UNL     1      -5.197  53.993  48.544  0.00  0.00    +0.000 C 
ENDBRANCH  30  31
ENDBRANCH  29  30
ENDBRANCH   5  29
TORSDOF 5
ENDMDL
MODEL 3
REMARK VINA RESULT:      -8.0      4.161      6.942
REMARK  Name = 338222
REMARK  7 active torsions:
REMARK  status: ('A' for Active; 'I' for Inactive)
REMARK    1  A    between atoms: C_6  and  C_10
REMARK    2  A    between atoms: C_14  and  O_18
REMARK    3  A    between atoms: N_17  and  C_21
REMARK    4  A    between atoms: C_21  and  C_24
REMARK    5  A    between atoms: C_24  and  C_28
REMARK    6  A    between atoms: C_28  and  C_29
REMARK    7  A    between atoms: C_28  and  C_30
REMARK                            x       y       z     vdW  Elec       q    Type
REMARK                         _______ _______ _______ _____ _____    ______ ____
ROOT
ATOM      1  C   UNL     1     -10.247  55.200  50.906  0.00  0.00    +0.000 A 
ATOM      2  C   UNL     1      -9.852  55.140  49.467  0.00  0.00    +0.000 A 
ATOM      3  C   UNL     1     -11.455  55.679  51.253  0.00  0.00    +0.000 A 
ATOM      4  O   UNL     1      -8.782  54.593  49.180  0.00  0.00    +0.000 OA
ATOM      5  N   UNL     1     -10.709  55.676  48.513  0.00  0.00    +0.000 N 
ATOM      6  C   UNL     1     -12.408  56.136  50.225  0.00  0.00    +0.000 A 
ATOM      7  C   UNL     1     -12.031  56.101  48.868  0.00  0.00    +0.000 A 
ATOM      8  C   UNL     1     -13.703  56.586  50.549  0.00  0.00    +0.000 A 
ATOM      9  C   UNL     1     -12.975  56.462  47.890  0.00  0.00    +0.000 A 
ATOM     10  F   UNL     1     -14.126  56.652  51.821  0.00  0.00    +0.000 F 
ATOM     11  C   UNL     1     -14.613  56.974  49.570  0.00  0.00    +0.000 A 
ATOM     12  C   UNL     1     -14.252  56.904  48.235  0.00  0.00    +0.000 A 
ENDROOT
BRANCH   1  18
ATOM     13  S   UNL     1      -7.017  54.663  53.083  0.00  0.00    +0.000 S 
ATOM     14  O   UNL     1      -6.898  55.633  54.154  0.00  0.00    +0.000 OA
ATOM     15  O   UNL     1      -5.849  54.274  52.315  0.00  0.00    +0.000 OA
ATOM     16  N   UNL     1      -8.135  55.207  52.045  0.00  0.00    +0.000 N 
ATOM     17  C   UNL     1      -7.619  53.192  53.826  0.00  0.00    +0.000 A 
ATOM     18  C   UNL     1      -9.301  54.637  51.952  0.00  0.00    +0.000 C 
ATOM     19  C   UNL     1      -8.918  52.809  53.541  0.00  0.00    +0.000 A 
ATOM     20  C   UNL     1      -6.790  52.440  54.665  0.00  0.00    +0.000 A 
ATOM     21  N   UNL     1      -9.736  53.572  52.711  0.00  0.00    +0.000 N 
ATOM     22  C   UNL     1      -9.424  51.669  54.176  0.00  0.00    +0.000 A 
ATOM     23  C   UNL     1      -7.295  51.288  55.261  0.00  0.00    +0.000 A 
ATOM     24  C   UNL     1      -8.616  50.908  55.024  0.00  0.00    +0.000 A 
ATOM     25  H   UNL     1      -7.930  55.982  51.475  0.00  0.00    +0.000 HD
ATOM     26  H   UNL     1     -10.691  53.335  52.665  0.00  0.00    +0.000 HD
ENDBRANCH   1  18
BRANCH   3  27
ATOM     27  O   UNL     1     -11.915  55.730  52.555  0.00  0.00    +0.000 OA
ATOM     28  H   UNL     1     -12.063  56.558  52.968  0.00  0.00    +0.000 HD
ENDBRANCH   3  27
BRANCH   5  29
ATOM     29  C   UNL     1     -10.264  55.653  47.112  0.00  0.00    +0.000 C 
BRANCH  29  30
ATOM     30  C   UNL     1     -10.600  54.383  46.313  0.00  0.00    +0.000 C 
BRANCH  30  31
ATOM     31  C   UNL     1      -9.416  53.595  45.726  0.00  0.00    +0.000 C 
ATOM     32  C   UNL     1      -9.731  52.999  44.356  0.00  0.00    +0.000 C 
ATOM     33  C   UNL     1      -8.209  54.536  45.613  0.00  0.00    +0.000 C 
ENDBRANCH  30  31
ENDBRANCH  29  30
ENDBRANCH   5  29
TORSDOF 5
ENDMDL
MODEL 4
REMARK VINA RESULT:      -8.0      3.189      5.116
REMARK  Name = 338222
REMARK  7 active torsions:
REMARK  status: ('A' for Active; 'I' for Inactive)
REMARK    1  A    between atoms: C_6  and  C_10
REMARK    2  A    between atoms: C_14  and  O_18
REMARK    3  A    between atoms: N_17  and  C_21
REMARK    4  A    between atoms: C_21  and  C_24
REMARK    5  A    between atoms: C_24  and  C_28
REMARK    6  A    between atoms: C_28  and  C_29
REMARK    7  A    between atoms: C_28  and  C_30
REMARK                            x       y       z     vdW  Elec       q    Type
REMARK                         _______ _______ _______ _____ _____    ______ ____
ROOT
ATOM      1  C   UNL     1     -11.609  54.056  51.133  0.00  0.00    +0.000 A 
ATOM      2  C   UNL     1     -10.680  54.068  52.303  0.00  0.00    +0.000 A 
ATOM      3  C   UNL     1     -11.712  52.955  50.367  0.00  0.00    +0.000 A 
ATOM      4  O   UNL     1     -10.694  55.054  53.047  0.00  0.00    +0.000 OA
ATOM      5  N   UNL     1      -9.862  52.965  52.521  0.00  0.00    +0.000 N 
ATOM      6  C   UNL     1     -10.927  51.746  50.675  0.00  0.00    +0.000 A 
ATOM      7  C   UNL     1     -10.035  51.760  51.765  0.00  0.00    +0.000 A 
ATOM      8  C   UNL     1     -11.057  50.557  49.930  0.00  0.00    +0.000 A 
ATOM      9  C   UNL     1      -9.353  50.577  52.100  0.00  0.00    +0.000 A 
ATOM     10  F   UNL     1     -11.883  50.475  48.876  0.00  0.00    +0.000 F 
ATOM     11  C   UNL     1     -10.346  49.405  50.255  0.00  0.00    +0.000 A 
ATOM     12  C   UNL     1      -9.497  49.412  51.348  0.00  0.00    +0.000 A 
ENDROOT
BRANCH   1  18
ATOM     13  S   UNL     1     -13.315  57.081  49.290  0.00  0.00    +0.000 S 
ATOM     14  O   UNL     1     -14.422  56.670  48.450  0.00  0.00    +0.000 OA
ATOM     15  O   UNL     1     -12.380  58.090  48.827  0.00  0.00    +0.000 OA
ATOM     16  N   UNL     1     -12.466  55.756  49.673  0.00  0.00    +0.000 N 
ATOM     17  C   UNL     1     -14.032  57.724  50.758  0.00  0.00    +0.000 A 
ATOM     18  C   UNL     1     -12.486  55.269  50.880  0.00  0.00    +0.000 C 
ATOM     19  C   UNL     1     -13.890  56.987  51.921  0.00  0.00    +0.000 A 
ATOM     20  C   UNL     1     -14.707  58.948  50.731  0.00  0.00    +0.000 A 
ATOM     21  N   UNL     1     -13.224  55.765  51.932  0.00  0.00    +0.000 N 
ATOM     22  C   UNL     1     -14.510  57.465  53.083  0.00  0.00    +0.000 A 
ATOM     23  C   UNL     1     -15.287  59.429  51.901  0.00  0.00    +0.000 A 
ATOM     24  C   UNL     1     -15.196  58.681  53.076  0.00  0.00    +0.000 A 
ATOM     25  H   UNL     1     -11.926  55.311  48.981  0.00  0.00    +0.000 HD
ATOM     26  H   UNL     1     -13.285  55.217  52.748  0.00  0.00    +0.000 HD
ENDBRANCH   1  18
BRANCH   3  27
ATOM     27  O   UNL     1     -12.576  52.846  49.293  0.00  0.00    +0.000 OA
ATOM     28  H   UNL     1     -12.238  52.838  48.419  0.00  0.00    +0.000 HD
ENDBRANCH   3  27
BRANCH   5  29
ATOM     29  C   UNL     1      -8.919  53.032  53.647  0.00  0.00    +0.000 C 
BRANCH  29  30
ATOM     30  C   UNL     1      -7.536  53.630  53.341  0.00  0.00    +0.000 C 
BRANCH  30  31
ATOM     31  C   UNL     1      -7.079  54.812  54.212  0.00  0.00    +0.000 C 
ATOM     32  C   UNL     1      -5.676  54.613  54.781  0.00  0.00    +0.000 C 
ATOM     33  C   UNL     1      -7.114  56.090  53.363  0.00  0.00    +0.000 C 
ENDBRANCH  30  31
ENDBRANCH  29  30
ENDBRANCH   5  29
TORSDOF 5
ENDMDL
MODEL 5
REMARK VINA RESULT:      -7.9      4.721      8.155
REMARK  Name = 338222
REMARK  7 active torsions:
REMARK  status: ('A' for Active; 'I' for Inactive)
REMARK    1  A    between atoms: C_6  and  C_10
REMARK    2  A    between atoms: C_14  and  O_18
REMARK    3  A    between atoms: N_17  and  C_21
REMARK    4  A    between atoms: C_21  and  C_24
REMARK    5  A    between atoms: C_24  and  C_28
REMARK    6  A    between atoms: C_28  and  C_29
REMARK    7  A    between atoms: C_28  and  C_30
REMARK                            x       y       z     vdW  Elec       q    Type
REMARK                         _______ _______ _______ _____ _____    ______ ____
ROOT
ATOM      1  C   UNL     1      -9.972  55.068  50.441  0.00  0.00    +0.000 A 
ATOM      2  C   UNL     1     -11.025  55.334  51.466  0.00  0.00    +0.000 A 
ATOM      3  C   UNL     1     -10.226  55.297  49.140  0.00  0.00    +0.000 A 
ATOM      4  O   UNL     1     -10.720  55.217  52.657  0.00  0.00    +0.000 OA
ATOM      5  N   UNL     1     -12.290  55.722  51.042  0.00  0.00    +0.000 N 
ATOM      6  C   UNL     1     -11.533  55.823  48.709  0.00  0.00    +0.000 A 
ATOM      7  C   UNL     1     -12.537  56.055  49.670  0.00  0.00    +0.000 A 
ATOM      8  C   UNL     1     -11.811  56.132  47.362  0.00  0.00    +0.000 A 
ATOM      9  C   UNL     1     -13.751  56.634  49.260  0.00  0.00    +0.000 A 
ATOM     10  F   UNL     1     -10.904  55.930  46.394  0.00  0.00    +0.000 F 
ATOM     11  C   UNL     1     -13.033  56.671  46.969  0.00  0.00    +0.000 A 
ATOM     12  C   UNL     1     -14.004  56.931  47.921  0.00  0.00    +0.000 A 
ENDROOT
BRANCH   1  18
ATOM     13  S   UNL     1      -6.645  52.990  50.713  0.00  0.00    +0.000 S 
ATOM     14  O   UNL     1      -5.690  53.327  49.676  0.00  0.00    +0.000 OA
ATOM     15  O   UNL     1      -6.847  51.606  51.099  0.00  0.00    +0.000 OA
ATOM     16  N   UNL     1      -8.082  53.599  50.279  0.00  0.00    +0.000 N 
ATOM     17  C   UNL     1      -6.104  53.822  52.160  0.00  0.00    +0.000 A 
ATOM     18  C   UNL     1      -8.596  54.620  50.901  0.00  0.00    +0.000 C 
ATOM     19  C   UNL     1      -6.861  54.890  52.612  0.00  0.00    +0.000 A 
ATOM     20  C   UNL     1      -4.951  53.395  52.825  0.00  0.00    +0.000 A 
ATOM     21  N   UNL     1      -8.002  55.311  51.934  0.00  0.00    +0.000 N 
ATOM     22  C   UNL     1      -6.404  55.595  53.732  0.00  0.00    +0.000 A 
ATOM     23  C   UNL     1      -4.528  54.083  53.959  0.00  0.00    +0.000 A 
ATOM     24  C   UNL     1      -5.250  55.190  54.406  0.00  0.00    +0.000 A 
ATOM     25  H   UNL     1      -8.575  53.190  49.532  0.00  0.00    +0.000 HD
ATOM     26  H   UNL     1      -8.412  56.162  52.212  0.00  0.00    +0.000 HD
ENDBRANCH   1  18
BRANCH   3  27
ATOM     27  O   UNL     1      -9.296  55.118  48.134  0.00  0.00    +0.000 OA
ATOM     28  H   UNL     1      -8.517  54.623  48.298  0.00  0.00    +0.000 HD
ENDBRANCH   3  27
BRANCH   5  29
ATOM     29  C   UNL     1     -13.320  55.920  52.073  0.00  0.00    +0.000 C 
BRANCH  29  30
ATOM     30  C   UNL     1     -13.408  57.327  52.687  0.00  0.00    +0.000 C 
BRANCH  30  31
ATOM     31  C   UNL     1     -14.805  57.963  52.778  0.00  0.00    +0.000 C 
ATOM     32  C   UNL     1     -14.932  59.223  51.925  0.00  0.00    +0.000 C 
ATOM     33  C   UNL     1     -15.845  56.929  52.326  0.00  0.00    +0.000 C 
ENDBRANCH  30  31
ENDBRANCH  29  30
ENDBRANCH   5  29
TORSDOF 5
ENDMDL
MODEL 6
REMARK VINA RESULT:      -7.9      4.141      5.290
REMARK  Name = 338222
REMARK  7 active torsions:
REMARK  status: ('A' for Active; 'I' for Inactive)
REMARK    1  A    between atoms: C_6  and  C_10
REMARK    2  A    between atoms: C_14  and  O_18
REMARK    3  A    between atoms: N_17  and  C_21
REMARK    4  A    between atoms: C_21  and  C_24
REMARK    5  A    between atoms: C_24  and  C_28
REMARK    6  A    between atoms: C_28  and  C_29
REMARK    7  A    between atoms: C_28  and  C_30
REMARK                            x       y       z     vdW  Elec       q    Type
REMARK                         _______ _______ _______ _____ _____    ______ ____
ROOT
ATOM      1  C   UNL     1     -10.027  54.534  52.118  0.00  0.00    +0.000 A 
ATOM      2  C   UNL     1      -8.668  55.083  51.828  0.00  0.00    +0.000 A 
ATOM      3  C   UNL     1     -10.165  53.473  52.933  0.00  0.00    +0.000 A 
ATOM      4  O   UNL     1      -8.589  56.122  51.165  0.00  0.00    +0.000 OA
ATOM      5  N   UNL     1      -7.556  54.419  52.333  0.00  0.00    +0.000 N 
ATOM      6  C   UNL     1      -8.988  52.847  53.561  0.00  0.00    +0.000 A 
ATOM      7  C   UNL     1      -7.702  53.348  53.274  0.00  0.00    +0.000 A 
ATOM      8  C   UNL     1      -9.102  51.774  54.467  0.00  0.00    +0.000 A 
ATOM      9  C   UNL     1      -6.593  52.797  53.941  0.00  0.00    +0.000 A 
ATOM     10  F   UNL     1     -10.294  51.244  54.781  0.00  0.00    +0.000 F 
ATOM     11  C   UNL     1      -7.989  51.218  55.091  0.00  0.00    +0.000 A 
ATOM     12  C   UNL     1      -6.731  51.735  54.834  0.00  0.00    +0.000 A 
ENDROOT
BRANCH   1  18
ATOM     13  S   UNL     1     -12.586  56.000  49.517  0.00  0.00    +0.000 S 
ATOM     14  O   UNL     1     -13.494  54.995  49.000  0.00  0.00    +0.000 OA
ATOM     15  O   UNL     1     -12.015  56.997  48.630  0.00  0.00    +0.000 OA
ATOM     16  N   UNL     1     -11.364  55.232  50.251  0.00  0.00    +0.000 N 
ATOM     17  C   UNL     1     -13.488  56.893  50.729  0.00  0.00    +0.000 A 
ATOM     18  C   UNL     1     -11.242  55.244  51.547  0.00  0.00    +0.000 C 
ATOM     19  C   UNL     1     -13.133  56.717  52.056  0.00  0.00    +0.000 A 
ATOM     20  C   UNL     1     -14.517  57.756  50.343  0.00  0.00    +0.000 A 
ATOM     21  N   UNL     1     -12.112  55.847  52.428  0.00  0.00    +0.000 N 
ATOM     22  C   UNL     1     -13.887  57.380  53.033  0.00  0.00    +0.000 A 
ATOM     23  C   UNL     1     -15.235  58.437  51.323  0.00  0.00    +0.000 A 
ATOM     24  C   UNL     1     -14.925  58.242  52.669  0.00  0.00    +0.000 A 
ATOM     25  H   UNL     1     -10.701  54.747  49.708  0.00  0.00    +0.000 HD
ATOM     26  H   UNL     1     -12.005  55.649  53.387  0.00  0.00    +0.000 HD
ENDBRANCH   1  18
BRANCH   3  27
ATOM     27  O   UNL     1     -11.386  52.931  53.286  0.00  0.00    +0.000 OA
ATOM     28  H   UNL     1     -11.761  52.244  52.770  0.00  0.00    +0.000 HD
ENDBRANCH   3  27
BRANCH   5  29
ATOM     29  C   UNL     1      -6.231  54.951  51.982  0.00  0.00    +0.000 C 
BRANCH  29  30
ATOM     30  C   UNL     1      -5.698  54.584  50.587  0.00  0.00    +0.000 C 
BRANCH  30  31
ATOM     31  C   UNL     1      -4.762  53.368  50.496  0.00  0.00    +0.000 C 
ATOM     32  C   UNL     1      -3.852  53.236  51.715  0.00  0.00    +0.000 C 
ATOM     33  C   UNL     1      -5.616  52.101  50.352  0.00  0.00    +0.000 C 
ENDBRANCH  30  31
ENDBRANCH  29  30
ENDBRANCH   5  29
TORSDOF 5
ENDMDL
MODEL 7
REMARK VINA RESULT:      -7.9      3.256      4.518
REMARK  Name = 338222
REMARK  7 active torsions:
REMARK  status: ('A' for Active; 'I' for Inactive)
REMARK    1  A    between atoms: C_6  and  C_10
REMARK    2  A    between atoms: C_14  and  O_18
REMARK    3  A    between atoms: N_17  and  C_21
REMARK    4  A    between atoms: C_21  and  C_24
REMARK    5  A    between atoms: C_24  and  C_28
REMARK    6  A    between atoms: C_28  and  C_29
REMARK    7  A    between atoms: C_28  and  C_30
REMARK                            x       y       z     vdW  Elec       q    Type
REMARK                         _______ _______ _______ _____ _____    ______ ____
ROOT
ATOM      1  C   UNL     1     -10.898  55.571  48.792  0.00  0.00    +0.000 A 
ATOM      2  C   UNL     1      -9.640  55.135  49.470  0.00  0.00    +0.000 A 
ATOM      3  C   UNL     1     -11.134  55.216  47.517  0.00  0.00    +0.000 A 
ATOM      4  O   UNL     1      -9.509  55.386  50.672  0.00  0.00    +0.000 OA
ATOM      5  N   UNL     1      -8.685  54.447  48.731  0.00  0.00    +0.000 N 
ATOM      6  C   UNL     1     -10.169  54.384  46.776  0.00  0.00    +0.000 A 
ATOM      7  C   UNL     1      -8.971  53.988  47.404  0.00  0.00    +0.000 A 
ATOM      8  C   UNL     1     -10.413  53.943  45.460  0.00  0.00    +0.000 A 
ATOM      9  C   UNL     1      -8.096  53.127  46.717  0.00  0.00    +0.000 A 
ATOM     10  F   UNL     1     -11.529  54.288  44.799  0.00  0.00    +0.000 F 
ATOM     11  C   UNL     1      -9.517  53.120  44.783  0.00  0.00    +0.000 A 
ATOM     12  C   UNL     1      -8.359  52.704  45.415  0.00  0.00    +0.000 A 
ENDROOT
BRANCH   1  18
ATOM     13  S   UNL     1     -13.613  56.422  51.507  0.00  0.00    +0.000 S 
ATOM     14  O   UNL     1     -13.032  56.760  52.791  0.00  0.00    +0.000 OA
ATOM     15  O   UNL     1     -14.796  55.586  51.436  0.00  0.00    +0.000 OA
ATOM     16  N   UNL     1     -12.459  55.726  50.609  0.00  0.00    +0.000 N 
ATOM     17  C   UNL     1     -14.054  57.947  50.758  0.00  0.00    +0.000 A 
ATOM     18  C   UNL     1     -11.932  56.344  49.592  0.00  0.00    +0.000 C 
ATOM     19  C   UNL     1     -13.314  58.367  49.665  0.00  0.00    +0.000 A 
ATOM     20  C   UNL     1     -15.128  58.689  51.257  0.00  0.00    +0.000 A 
ATOM     21  N   UNL     1     -12.240  57.624  49.184  0.00  0.00    +0.000 N 
ATOM     22  C   UNL     1     -13.622  59.611  49.100  0.00  0.00    +0.000 A 
ATOM     23  C   UNL     1     -15.447  59.907  50.662  0.00  0.00    +0.000 A 
ATOM     24  C   UNL     1     -14.687  60.372  49.588  0.00  0.00    +0.000 A 
ATOM     25  H   UNL     1     -12.149  54.820  50.836  0.00  0.00    +0.000 HD
ATOM     26  H   UNL     1     -11.661  58.041  48.506  0.00  0.00    +0.000 HD
ENDBRANCH   1  18
BRANCH   3  27
ATOM     27  O   UNL     1     -12.289  55.541  46.831  0.00  0.00    +0.000 OA
ATOM     28  H   UNL     1     -12.306  55.499  45.895  0.00  0.00    +0.000 HD
ENDBRANCH   3  27
BRANCH   5  29
ATOM     29  C   UNL     1      -7.434  54.082  49.412  0.00  0.00    +0.000 C 
BRANCH  29  30
ATOM     30  C   UNL     1      -6.327  55.150  49.419  0.00  0.00    +0.000 C 
BRANCH  30  31
ATOM     31  C   UNL     1      -4.874  54.648  49.444  0.00  0.00    +0.000 C 
ATOM     32  C   UNL     1      -4.499  54.003  50.776  0.00  0.00    +0.000 C 
ATOM     33  C   UNL     1      -4.686  53.631  48.309  0.00  0.00    +0.000 C 
ENDBRANCH  30  31
ENDBRANCH  29  30
ENDBRANCH   5  29
TORSDOF 5
ENDMDL
MODEL 8
REMARK VINA RESULT:      -7.8      4.101      6.537
REMARK  Name = 338222
REMARK  7 active torsions:
REMARK  status: ('A' for Active; 'I' for Inactive)
REMARK    1  A    between atoms: C_6  and  C_10
REMARK    2  A    between atoms: C_14  and  O_18
REMARK    3  A    between atoms: N_17  and  C_21
REMARK    4  A    between atoms: C_21  and  C_24
REMARK    5  A    between atoms: C_24  and  C_28
REMARK    6  A    between atoms: C_28  and  C_29
REMARK    7  A    between atoms: C_28  and  C_30
REMARK                            x       y       z     vdW  Elec       q    Type
REMARK                         _______ _______ _______ _____ _____    ______ ____
ROOT
ATOM      1  C   UNL     1     -10.457  54.837  50.550  0.00  0.00    +0.000 A 
ATOM      2  C   UNL     1     -10.106  54.811  49.098  0.00  0.00    +0.000 A 
ATOM      3  C   UNL     1     -11.597  55.422  50.957  0.00  0.00    +0.000 A 
ATOM      4  O   UNL     1      -9.108  54.171  48.753  0.00  0.00    +0.000 OA
ATOM      5  N   UNL     1     -10.924  55.484  48.199  0.00  0.00    +0.000 N 
ATOM      6  C   UNL     1     -12.521  56.031  49.983  0.00  0.00    +0.000 A 
ATOM      7  C   UNL     1     -12.184  56.027  48.615  0.00  0.00    +0.000 A 
ATOM      8  C   UNL     1     -13.752  56.597  50.368  0.00  0.00    +0.000 A 
ATOM      9  C   UNL     1     -13.109  56.536  47.685  0.00  0.00    +0.000 A 
ATOM     10  F   UNL     1     -14.134  56.640  51.654  0.00  0.00    +0.000 F 
ATOM     11  C   UNL     1     -14.640  57.129  49.437  0.00  0.00    +0.000 A 
ATOM     12  C   UNL     1     -14.321  57.093  48.090  0.00  0.00    +0.000 A 
ENDROOT
BRANCH   1  18
ATOM     13  S   UNL     1      -9.133  52.156  53.105  0.00  0.00    +0.000 S 
ATOM     14  O   UNL     1      -8.588  50.984  52.450  0.00  0.00    +0.000 OA
ATOM     15  O   UNL     1      -9.960  52.016  54.289  0.00  0.00    +0.000 OA
ATOM     16  N   UNL     1      -9.982  52.988  52.004  0.00  0.00    +0.000 N 
ATOM     17  C   UNL     1      -7.754  53.127  53.590  0.00  0.00    +0.000 A 
ATOM     18  C   UNL     1      -9.550  54.123  51.537  0.00  0.00    +0.000 C 
ATOM     19  C   UNL     1      -7.532  54.316  52.916  0.00  0.00    +0.000 A 
ATOM     20  C   UNL     1      -6.929  52.701  54.635  0.00  0.00    +0.000 A 
ATOM     21  N   UNL     1      -8.356  54.724  51.870  0.00  0.00    +0.000 N 
ATOM     22  C   UNL     1      -6.400  55.066  53.258  0.00  0.00    +0.000 A 
ATOM     23  C   UNL     1      -5.828  53.475  54.989  0.00  0.00    +0.000 A 
ATOM     24  C   UNL     1      -5.558  54.654  54.294  0.00  0.00    +0.000 A 
ATOM     25  H   UNL     1     -10.839  52.628  51.680  0.00  0.00    +0.000 HD
ATOM     26  H   UNL     1      -8.064  55.496  51.332  0.00  0.00    +0.000 HD
ENDBRANCH   1  18
BRANCH   3  27
ATOM     27  O   UNL     1     -12.016  55.453  52.273  0.00  0.00    +0.000 OA
ATOM     28  H   UNL     1     -12.863  55.792  52.488  0.00  0.00    +0.000 HD
ENDBRANCH   3  27
BRANCH   5  29
ATOM     29  C   UNL     1     -10.520  55.488  46.785  0.00  0.00    +0.000 C 
BRANCH  29  30
ATOM     30  C   UNL     1     -11.097  54.363  45.910  0.00  0.00    +0.000 C 
BRANCH  30  31
ATOM     31  C   UNL     1     -10.099  53.342  45.340  0.00  0.00    +0.000 C 
ATOM     32  C   UNL     1     -10.540  52.782  43.989  0.00  0.00    +0.000 C 
ATOM     33  C   UNL     1      -8.731  54.021  45.193  0.00  0.00    +0.000 C 
ENDBRANCH  30  31
ENDBRANCH  29  30
ENDBRANCH   5  29
TORSDOF 5
ENDMDL
MODEL 9
REMARK VINA RESULT:      -7.7      2.616      3.011
REMARK  Name = 338222
REMARK  7 active torsions:
REMARK  status: ('A' for Active; 'I' for Inactive)
REMARK    1  A    between atoms: C_6  and  C_10
REMARK    2  A    between atoms: C_14  and  O_18
REMARK    3  A    between atoms: N_17  and  C_21
REMARK    4  A    between atoms: C_21  and  C_24
REMARK    5  A    between atoms: C_24  and  C_28
REMARK    6  A    between atoms: C_28  and  C_29
REMARK    7  A    between atoms: C_28  and  C_30
REMARK                            x       y       z     vdW  Elec       q    Type
REMARK                         _______ _______ _______ _____ _____    ______ ____
ROOT
ATOM      1  C   UNL     1     -11.480  55.828  48.872  0.00  0.00    +0.000 A 
ATOM      2  C   UNL     1     -11.617  55.461  47.430  0.00  0.00    +0.000 A 
ATOM      3  C   UNL     1     -10.466  55.329  49.601  0.00  0.00    +0.000 A 
ATOM      4  O   UNL     1     -12.494  56.024  46.768  0.00  0.00    +0.000 OA
ATOM      5  N   UNL     1     -10.741  54.527  46.891  0.00  0.00    +0.000 N 
ATOM      6  C   UNL     1      -9.471  54.430  48.990  0.00  0.00    +0.000 A 
ATOM      7  C   UNL     1      -9.607  54.065  47.636  0.00  0.00    +0.000 A 
ATOM      8  C   UNL     1      -8.362  53.939  49.709  0.00  0.00    +0.000 A 
ATOM      9  C   UNL     1      -8.607  53.274  47.042  0.00  0.00    +0.000 A 
ATOM     10  F   UNL     1      -8.174  54.241  51.002  0.00  0.00    +0.000 F 
ATOM     11  C   UNL     1      -7.401  53.127  49.112  0.00  0.00    +0.000 A 
ATOM     12  C   UNL     1      -7.519  52.799  47.773  0.00  0.00    +0.000 A 
ENDROOT
BRANCH   1  18
ATOM     13  S   UNL     1     -13.508  59.151  49.431  0.00  0.00    +0.000 S 
ATOM     14  O   UNL     1     -14.642  59.270  48.535  0.00  0.00    +0.000 OA
ATOM     15  O   UNL     1     -12.676  60.305  49.717  0.00  0.00    +0.000 OA
ATOM     16  N   UNL     1     -12.549  57.977  48.861  0.00  0.00    +0.000 N 
ATOM     17  C   UNL     1     -14.162  58.631  50.975  0.00  0.00    +0.000 A 
ATOM     18  C   UNL     1     -12.452  56.831  49.469  0.00  0.00    +0.000 C 
ATOM     19  C   UNL     1     -13.891  57.338  51.388  0.00  0.00    +0.000 A 
ATOM     20  C   UNL     1     -14.916  59.516  51.750  0.00  0.00    +0.000 A 
ATOM     21  N   UNL     1     -13.146  56.463  50.602  0.00  0.00    +0.000 N 
ATOM     22  C   UNL     1     -14.458  56.898  52.591  0.00  0.00    +0.000 A 
ATOM     23  C   UNL     1     -15.444  59.077  52.961  0.00  0.00    +0.000 A 
ATOM     24  C   UNL     1     -15.222  57.764  53.377  0.00  0.00    +0.000 A 
ATOM     25  H   UNL     1     -12.030  58.132  48.039  0.00  0.00    +0.000 HD
ATOM     26  H   UNL     1     -13.113  55.517  50.873  0.00  0.00    +0.000 HD
ENDBRANCH   1  18
BRANCH   3  27
ATOM     27  O   UNL     1     -10.244  55.650  50.927  0.00  0.00    +0.000 OA
ATOM     28  H   UNL     1      -9.680  55.115  51.451  0.00  0.00    +0.000 HD
ENDBRANCH   3  27
BRANCH   5  29
ATOM     29  C   UNL     1     -10.937  54.145  45.485  0.00  0.00    +0.000 C 
BRANCH  29  30
ATOM     30  C   UNL     1     -11.668  52.815  45.237  0.00  0.00    +0.000 C 
BRANCH  30  31
ATOM     31  C   UNL     1     -11.070  51.878  44.175  0.00  0.00    +0.000 C 
ATOM     32  C   UNL     1      -9.855  52.484  43.476  0.00  0.00    +0.000 C 
ATOM     33  C   UNL     1     -10.670  50.560  44.852  0.00  0.00    +0.000 C 
ENDBRANCH  30  31
ENDBRANCH  29  30
ENDBRANCH   5  29
TORSDOF 5
ENDMDL
