MODEL 1
REMARK VINA RESULT:      -8.6      0.000      0.000
REMARK  Name = 338063
REMARK  8 active torsions:
REMARK  status: ('A' for Active; 'I' for Inactive)
REMARK    1  A    between atoms: C_6  and  C_10
REMARK    2  A    between atoms: C_14  and  O_18
REMARK    3  A    between atoms: N_17  and  C_21
REMARK    4  A    between atoms: C_21  and  C_24
REMARK    5  A    between atoms: C_24  and  C_27
REMARK    6  A    between atoms: C_25  and  C_28
REMARK    7  A    between atoms: C_27  and  C_29
REMARK    8  A    between atoms: C_27  and  C_30
REMARK                            x       y       z     vdW  Elec       q    Type
REMARK                         _______ _______ _______ _____ _____    ______ ____
ROOT
ATOM      1  C   UNL     1     -10.139  54.402  52.206  0.00  0.00    +0.000 A 
ATOM      2  C   UNL     1      -8.768  54.994  52.134  0.00  0.00    +0.000 A 
ATOM      3  C   UNL     1     -10.357  53.295  52.937  0.00  0.00    +0.000 A 
ATOM      4  O   UNL     1      -8.630  56.072  51.549  0.00  0.00    +0.000 OA
ATOM      5  N   UNL     1      -7.714  54.322  52.744  0.00  0.00    +0.000 N 
ATOM      6  C   UNL     1      -9.254  52.665  53.678  0.00  0.00    +0.000 A 
ATOM      7  C   UNL     1      -7.958  53.196  53.594  0.00  0.00    +0.000 A 
ATOM      8  C   UNL     1      -9.491  51.541  54.492  0.00  0.00    +0.000 A 
ATOM      9  C   UNL     1      -6.943  52.620  54.372  0.00  0.00    +0.000 A 
ATOM     10  C   UNL     1      -8.464  50.946  55.229  0.00  0.00    +0.000 A 
ATOM     11  C   UNL     1      -7.188  51.501  55.169  0.00  0.00    +0.000 A 
ATOM     12  C   UNL     1      -8.724  49.758  56.104  0.00  0.00    +0.000 C 
ENDROOT
BRANCH   1  18
ATOM     13  S   UNL     1     -12.395  55.876  49.344  0.00  0.00    +0.000 S 
ATOM     14  O   UNL     1     -13.237  54.877  48.715  0.00  0.00    +0.000 OA
ATOM     15  O   UNL     1     -11.731  56.884  48.540  0.00  0.00    +0.000 OA
ATOM     16  N   UNL     1     -11.266  55.099  50.207  0.00  0.00    +0.000 N 
ATOM     17  C   UNL     1     -13.432  56.755  50.456  0.00  0.00    +0.000 A 
ATOM     18  C   UNL     1     -11.286  55.108  51.507  0.00  0.00    +0.000 C 
ATOM     19  C   UNL     1     -13.226  56.574  51.814  0.00  0.00    +0.000 A 
ATOM     20  C   UNL     1     -14.419  57.616  49.965  0.00  0.00    +0.000 A 
ATOM     21  N   UNL     1     -12.247  55.706  52.290  0.00  0.00    +0.000 N 
ATOM     22  C   UNL     1     -14.085  57.224  52.706  0.00  0.00    +0.000 A 
ATOM     23  C   UNL     1     -15.243  58.285  50.866  0.00  0.00    +0.000 A 
ATOM     24  C   UNL     1     -15.083  58.082  52.236  0.00  0.00    +0.000 A 
ATOM     25  H   UNL     1     -10.551  54.611  49.738  0.00  0.00    +0.000 HD
ATOM     26  H   UNL     1     -12.243  55.505  53.254  0.00  0.00    +0.000 HD
ENDBRANCH   1  18
BRANCH   3  27
ATOM     27  O   UNL     1     -11.594  52.696  53.099  0.00  0.00    +0.000 OA
ATOM     28  H   UNL     1     -11.937  52.142  52.425  0.00  0.00    +0.000 HD
ENDBRANCH   3  27
BRANCH   5  29
ATOM     29  C   UNL     1      -6.366  54.883  52.592  0.00  0.00    +0.000 C 
BRANCH  29  30
ATOM     30  C   UNL     1      -5.563  54.393  51.374  0.00  0.00    +0.000 C 
BRANCH  30  31
ATOM     31  C   UNL     1      -4.231  53.681  51.663  0.00  0.00    +0.000 C 
ATOM     32  C   UNL     1      -3.847  53.737  53.139  0.00  0.00    +0.000 C 
ATOM     33  C   UNL     1      -4.349  52.218  51.214  0.00  0.00    +0.000 C 
ENDBRANCH  30  31
ENDBRANCH  29  30
ENDBRANCH   5  29
TORSDOF 5
ENDMDL
MODEL 2
REMARK VINA RESULT:      -8.3      3.661      5.414
REMARK  Name = 338063
REMARK  8 active torsions:
REMARK  status: ('A' for Active; 'I' for Inactive)
REMARK    1  A    between atoms: C_6  and  C_10
REMARK    2  A    between atoms: C_14  and  O_18
REMARK    3  A    between atoms: N_17  and  C_21
REMARK    4  A    between atoms: C_21  and  C_24
REMARK    5  A    between atoms: C_24  and  C_27
REMARK    6  A    between atoms: C_25  and  C_28
REMARK    7  A    between atoms: C_27  and  C_29
REMARK    8  A    between atoms: C_27  and  C_30
REMARK                            x       y       z     vdW  Elec       q    Type
REMARK                         _______ _______ _______ _____ _____    ______ ____
ROOT
ATOM      1  C   UNL     1     -11.339  56.141  48.731  0.00  0.00    +0.000 A 
ATOM      2  C   UNL     1     -10.146  55.707  49.521  0.00  0.00    +0.000 A 
ATOM      3  C   UNL     1     -11.528  55.673  47.486  0.00  0.00    +0.000 A 
ATOM      4  O   UNL     1     -10.067  56.066  50.700  0.00  0.00    +0.000 OA
ATOM      5  N   UNL     1      -9.192  54.902  48.908  0.00  0.00    +0.000 N 
ATOM      6  C   UNL     1     -10.572  54.723  46.895  0.00  0.00    +0.000 A 
ATOM      7  C   UNL     1      -9.435  54.331  47.618  0.00  0.00    +0.000 A 
ATOM      8  C   UNL     1     -10.799  54.184  45.615  0.00  0.00    +0.000 A 
ATOM      9  C   UNL     1      -8.583  53.368  47.060  0.00  0.00    +0.000 A 
ATOM     10  C   UNL     1      -9.920  53.258  45.049  0.00  0.00    +0.000 A 
ATOM     11  C   UNL     1      -8.814  52.847  45.786  0.00  0.00    +0.000 A 
ATOM     12  C   UNL     1     -10.173  52.678  43.690  0.00  0.00    +0.000 C 
ENDROOT
BRANCH   1  18
ATOM     13  S   UNL     1     -13.555  59.306  49.460  0.00  0.00    +0.000 S 
ATOM     14  O   UNL     1     -14.706  59.405  48.583  0.00  0.00    +0.000 OA
ATOM     15  O   UNL     1     -12.787  60.489  49.795  0.00  0.00    +0.000 OA
ATOM     16  N   UNL     1     -12.541  58.214  48.823  0.00  0.00    +0.000 N 
ATOM     17  C   UNL     1     -14.158  58.675  50.984  0.00  0.00    +0.000 A 
ATOM     18  C   UNL     1     -12.362  57.054  49.381  0.00  0.00    +0.000 C 
ATOM     19  C   UNL     1     -13.802  57.384  51.336  0.00  0.00    +0.000 A 
ATOM     20  C   UNL     1     -14.958  59.474  51.807  0.00  0.00    +0.000 A 
ATOM     21  N   UNL     1     -13.013  56.595  50.504  0.00  0.00    +0.000 N 
ATOM     22  C   UNL     1     -14.326  56.853  52.521  0.00  0.00    +0.000 A 
ATOM     23  C   UNL     1     -15.442  58.945  53.000  0.00  0.00    +0.000 A 
ATOM     24  C   UNL     1     -15.134  57.631  53.353  0.00  0.00    +0.000 A 
ATOM     25  H   UNL     1     -12.051  58.435  47.998  0.00  0.00    +0.000 HD
ATOM     26  H   UNL     1     -12.914  55.642  50.734  0.00  0.00    +0.000 HD
ENDBRANCH   1  18
BRANCH   3  27
ATOM     27  O   UNL     1     -12.618  55.982  46.690  0.00  0.00    +0.000 OA
ATOM     28  H   UNL     1     -12.703  56.842  46.326  0.00  0.00    +0.000 HD
ENDBRANCH   3  27
BRANCH   5  29
ATOM     29  C   UNL     1      -7.993  54.554  49.681  0.00  0.00    +0.000 C 
BRANCH  29  30
ATOM     30  C   UNL     1      -6.823  55.552  49.599  0.00  0.00    +0.000 C 
BRANCH  30  31
ATOM     31  C   UNL     1      -5.405  54.964  49.680  0.00  0.00    +0.000 C 
ATOM     32  C   UNL     1      -5.138  54.261  51.007  0.00  0.00    +0.000 C 
ATOM     33  C   UNL     1      -5.217  53.974  48.522  0.00  0.00    +0.000 C 
ENDBRANCH  30  31
ENDBRANCH  29  30
ENDBRANCH   5  29
TORSDOF 5
ENDMDL
MODEL 3
REMARK VINA RESULT:      -8.2      3.619      5.513
REMARK  Name = 338063
REMARK  8 active torsions:
REMARK  status: ('A' for Active; 'I' for Inactive)
REMARK    1  A    between atoms: C_6  and  C_10
REMARK    2  A    between atoms: C_14  and  O_18
REMARK    3  A    between atoms: N_17  and  C_21
REMARK    4  A    between atoms: C_21  and  C_24
REMARK    5  A    between atoms: C_24  and  C_27
REMARK    6  A    between atoms: C_25  and  C_28
REMARK    7  A    between atoms: C_27  and  C_29
REMARK    8  A    between atoms: C_27  and  C_30
REMARK                            x       y       z     vdW  Elec       q    Type
REMARK                         _______ _______ _______ _____ _____    ______ ____
ROOT
ATOM      1  C   UNL     1     -11.557  55.899  48.804  0.00  0.00    +0.000 A 
ATOM      2  C   UNL     1     -10.522  55.245  49.663  0.00  0.00    +0.000 A 
ATOM      3  C   UNL     1     -11.669  55.559  47.509  0.00  0.00    +0.000 A 
ATOM      4  O   UNL     1     -10.526  55.497  50.872  0.00  0.00    +0.000 OA
ATOM      5  N   UNL     1      -9.619  54.367  49.075  0.00  0.00    +0.000 N 
ATOM      6  C   UNL     1     -10.785  54.536  46.929  0.00  0.00    +0.000 A 
ATOM      7  C   UNL     1      -9.792  53.937  47.720  0.00  0.00    +0.000 A 
ATOM      8  C   UNL     1     -10.940  54.135  45.589  0.00  0.00    +0.000 A 
ATOM      9  C   UNL     1      -9.016  52.912  47.161  0.00  0.00    +0.000 A 
ATOM     10  C   UNL     1     -10.130  53.144  45.029  0.00  0.00    +0.000 A 
ATOM     11  C   UNL     1      -9.172  52.528  45.829  0.00  0.00    +0.000 A 
ATOM     12  C   UNL     1     -10.308  52.711  43.605  0.00  0.00    +0.000 C 
ENDROOT
BRANCH   1  18
ATOM     13  S   UNL     1     -13.567  59.214  49.459  0.00  0.00    +0.000 S 
ATOM     14  O   UNL     1     -14.710  59.365  48.580  0.00  0.00    +0.000 OA
ATOM     15  O   UNL     1     -12.725  60.354  49.766  0.00  0.00    +0.000 OA
ATOM     16  N   UNL     1     -12.625  58.046  48.848  0.00  0.00    +0.000 N 
ATOM     17  C   UNL     1     -14.205  58.660  50.997  0.00  0.00    +0.000 A 
ATOM     18  C   UNL     1     -12.520  56.890  49.433  0.00  0.00    +0.000 C 
ATOM     19  C   UNL     1     -13.931  57.357  51.381  0.00  0.00    +0.000 A 
ATOM     20  C   UNL     1     -14.951  59.526  51.802  0.00  0.00    +0.000 A 
ATOM     21  N   UNL     1     -13.196  56.500  50.567  0.00  0.00    +0.000 N 
ATOM     22  C   UNL     1     -14.485  56.888  52.577  0.00  0.00    +0.000 A 
ATOM     23  C   UNL     1     -15.466  59.058  53.008  0.00  0.00    +0.000 A 
ATOM     24  C   UNL     1     -15.241  57.736  53.391  0.00  0.00    +0.000 A 
ATOM     25  H   UNL     1     -12.124  58.215  48.017  0.00  0.00    +0.000 HD
ATOM     26  H   UNL     1     -13.157  55.549  50.819  0.00  0.00    +0.000 HD
ENDBRANCH   1  18
BRANCH   3  27
ATOM     27  O   UNL     1     -12.618  56.076  46.644  0.00  0.00    +0.000 OA
ATOM     28  H   UNL     1     -12.447  56.101  45.723  0.00  0.00    +0.000 HD
ENDBRANCH   3  27
BRANCH   5  29
ATOM     29  C   UNL     1      -8.565  53.799  49.925  0.00  0.00    +0.000 C 
BRANCH  29  30
ATOM     30  C   UNL     1      -7.226  54.557  49.938  0.00  0.00    +0.000 C 
BRANCH  30  31
ATOM     31  C   UNL     1      -6.932  55.424  51.174  0.00  0.00    +0.000 C 
ATOM     32  C   UNL     1      -7.487  56.839  51.040  0.00  0.00    +0.000 C 
ATOM     33  C   UNL     1      -7.542  54.743  52.407  0.00  0.00    +0.000 C 
ENDBRANCH  30  31
ENDBRANCH  29  30
ENDBRANCH   5  29
TORSDOF 5
ENDMDL
MODEL 4
REMARK VINA RESULT:      -8.1      1.649      2.425
REMARK  Name = 338063
REMARK  8 active torsions:
REMARK  status: ('A' for Active; 'I' for Inactive)
REMARK    1  A    between atoms: C_6  and  C_10
REMARK    2  A    between atoms: C_14  and  O_18
REMARK    3  A    between atoms: N_17  and  C_21
REMARK    4  A    between atoms: C_21  and  C_24
REMARK    5  A    between atoms: C_24  and  C_27
REMARK    6  A    between atoms: C_25  and  C_28
REMARK    7  A    between atoms: C_27  and  C_29
REMARK    8  A    between atoms: C_27  and  C_30
REMARK                            x       y       z     vdW  Elec       q    Type
REMARK                         _______ _______ _______ _____ _____    ______ ____
ROOT
ATOM      1  C   UNL     1     -10.112  54.568  52.128  0.00  0.00    +0.000 A 
ATOM      2  C   UNL     1      -8.712  55.090  52.068  0.00  0.00    +0.000 A 
ATOM      3  C   UNL     1     -10.389  53.465  52.844  0.00  0.00    +0.000 A 
ATOM      4  O   UNL     1      -8.517  56.168  51.497  0.00  0.00    +0.000 OA
ATOM      5  N   UNL     1      -7.697  54.358  52.673  0.00  0.00    +0.000 N 
ATOM      6  C   UNL     1      -9.322  52.770  53.581  0.00  0.00    +0.000 A 
ATOM      7  C   UNL     1      -8.000  53.236  53.508  0.00  0.00    +0.000 A 
ATOM      8  C   UNL     1      -9.619  51.650  54.380  0.00  0.00    +0.000 A 
ATOM      9  C   UNL     1      -7.020  52.599  54.281  0.00  0.00    +0.000 A 
ATOM     10  C   UNL     1      -8.626  50.994  55.111  0.00  0.00    +0.000 A 
ATOM     11  C   UNL     1      -7.324  51.484  55.063  0.00  0.00    +0.000 A 
ATOM     12  C   UNL     1      -8.950  49.810  55.971  0.00  0.00    +0.000 C 
ENDROOT
BRANCH   1  18
ATOM     13  S   UNL     1     -13.489  56.496  51.545  0.00  0.00    +0.000 S 
ATOM     14  O   UNL     1     -13.437  57.875  51.991  0.00  0.00    +0.000 OA
ATOM     15  O   UNL     1     -14.669  55.691  51.792  0.00  0.00    +0.000 OA
ATOM     16  N   UNL     1     -12.213  55.724  52.178  0.00  0.00    +0.000 N 
ATOM     17  C   UNL     1     -13.295  56.542  49.800  0.00  0.00    +0.000 A 
ATOM     18  C   UNL     1     -11.219  55.341  51.434  0.00  0.00    +0.000 C 
ATOM     19  C   UNL     1     -12.112  56.057  49.267  0.00  0.00    +0.000 A 
ATOM     20  C   UNL     1     -14.320  57.044  48.993  0.00  0.00    +0.000 A 
ATOM     21  N   UNL     1     -11.094  55.570  50.081  0.00  0.00    +0.000 N 
ATOM     22  C   UNL     1     -11.925  56.144  47.883  0.00  0.00    +0.000 A 
ATOM     23  C   UNL     1     -14.136  57.090  47.614  0.00  0.00    +0.000 A 
ATOM     24  C   UNL     1     -12.934  56.650  47.059  0.00  0.00    +0.000 A 
ATOM     25  H   UNL     1     -12.190  55.541  53.146  0.00  0.00    +0.000 HD
ATOM     26  H   UNL     1     -10.224  55.376  49.662  0.00  0.00    +0.000 HD
ENDBRANCH   1  18
BRANCH   3  27
ATOM     27  O   UNL     1     -11.655  52.927  52.994  0.00  0.00    +0.000 OA
ATOM     28  H   UNL     1     -12.397  53.368  52.629  0.00  0.00    +0.000 HD
ENDBRANCH   3  27
BRANCH   5  29
ATOM     29  C   UNL     1      -6.321  54.852  52.532  0.00  0.00    +0.000 C 
BRANCH  29  30
ATOM     30  C   UNL     1      -5.448  54.134  51.488  0.00  0.00    +0.000 C 
BRANCH  30  31
ATOM     31  C   UNL     1      -5.859  54.291  50.014  0.00  0.00    +0.000 C 
ATOM     32  C   UNL     1      -4.660  54.477  49.089  0.00  0.00    +0.000 C 
ATOM     33  C   UNL     1      -6.652  53.047  49.591  0.00  0.00    +0.000 C 
ENDBRANCH  30  31
ENDBRANCH  29  30
ENDBRANCH   5  29
TORSDOF 5
ENDMDL
MODEL 5
REMARK VINA RESULT:      -8.1      3.699      4.733
REMARK  Name = 338063
REMARK  8 active torsions:
REMARK  status: ('A' for Active; 'I' for Inactive)
REMARK    1  A    between atoms: C_6  and  C_10
REMARK    2  A    between atoms: C_14  and  O_18
REMARK    3  A    between atoms: N_17  and  C_21
REMARK    4  A    between atoms: C_21  and  C_24
REMARK    5  A    between atoms: C_24  and  C_27
REMARK    6  A    between atoms: C_25  and  C_28
REMARK    7  A    between atoms: C_27  and  C_29
REMARK    8  A    between atoms: C_27  and  C_30
REMARK                            x       y       z     vdW  Elec       q    Type
REMARK                         _______ _______ _______ _____ _____    ______ ____
ROOT
ATOM      1  C   UNL     1     -12.362  54.319  49.850  0.00  0.00    +0.000 A 
ATOM      2  C   UNL     1     -11.895  54.171  48.437  0.00  0.00    +0.000 A 
ATOM      3  C   UNL     1     -11.983  53.426  50.781  0.00  0.00    +0.000 A 
ATOM      4  O   UNL     1     -12.168  55.072  47.638  0.00  0.00    +0.000 OA
ATOM      5  N   UNL     1     -11.159  53.045  48.089  0.00  0.00    +0.000 N 
ATOM      6  C   UNL     1     -11.101  52.306  50.421  0.00  0.00    +0.000 A 
ATOM      7  C   UNL     1     -10.681  52.142  49.092  0.00  0.00    +0.000 A 
ATOM      8  C   UNL     1     -10.654  51.404  51.405  0.00  0.00    +0.000 A 
ATOM      9  C   UNL     1      -9.780  51.110  48.794  0.00  0.00    +0.000 A 
ATOM     10  C   UNL     1      -9.792  50.351  51.089  0.00  0.00    +0.000 A 
ATOM     11  C   UNL     1      -9.350  50.217  49.776  0.00  0.00    +0.000 A 
ATOM     12  C   UNL     1      -9.309  49.401  52.143  0.00  0.00    +0.000 C 
ENDROOT
BRANCH   1  18
ATOM     13  S   UNL     1     -15.336  56.479  51.246  0.00  0.00    +0.000 S 
ATOM     14  O   UNL     1     -15.294  56.635  52.686  0.00  0.00    +0.000 OA
ATOM     15  O   UNL     1     -16.597  56.237  50.572  0.00  0.00    +0.000 OA
ATOM     16  N   UNL     1     -14.318  55.283  50.849  0.00  0.00    +0.000 N 
ATOM     17  C   UNL     1     -14.714  57.978  50.575  0.00  0.00    +0.000 A 
ATOM     18  C   UNL     1     -13.202  55.525  50.229  0.00  0.00    +0.000 C 
ATOM     19  C   UNL     1     -13.475  57.945  49.956  0.00  0.00    +0.000 A 
ATOM     20  C   UNL     1     -15.467  59.153  50.663  0.00  0.00    +0.000 A 
ATOM     21  N   UNL     1     -12.729  56.772  49.884  0.00  0.00    +0.000 N 
ATOM     22  C   UNL     1     -12.945  59.147  49.471  0.00  0.00    +0.000 A 
ATOM     23  C   UNL     1     -14.943  60.334  50.144  0.00  0.00    +0.000 A 
ATOM     24  C   UNL     1     -13.678  60.333  49.557  0.00  0.00    +0.000 A 
ATOM     25  H   UNL     1     -14.550  54.354  51.082  0.00  0.00    +0.000 HD
ATOM     26  H   UNL     1     -11.800  56.838  49.566  0.00  0.00    +0.000 HD
ENDBRANCH   1  18
BRANCH   3  27
ATOM     27  O   UNL     1     -12.328  53.497  52.119  0.00  0.00    +0.000 OA
ATOM     28  H   UNL     1     -12.894  54.181  52.422  0.00  0.00    +0.000 HD
ENDBRANCH   3  27
BRANCH   5  29
ATOM     29  C   UNL     1     -10.780  52.886  46.679  0.00  0.00    +0.000 C 
BRANCH  29  30
ATOM     30  C   UNL     1      -9.318  53.216  46.330  0.00  0.00    +0.000 C 
BRANCH  30  31
ATOM     31  C   UNL     1      -8.958  54.704  46.188  0.00  0.00    +0.000 C 
ATOM     32  C   UNL     1      -8.523  55.328  47.511  0.00  0.00    +0.000 C 
ATOM     33  C   UNL     1      -7.830  54.840  45.156  0.00  0.00    +0.000 C 
ENDBRANCH  30  31
ENDBRANCH  29  30
ENDBRANCH   5  29
TORSDOF 5
ENDMDL
MODEL 6
REMARK VINA RESULT:      -8.1      3.837      5.539
REMARK  Name = 338063
REMARK  8 active torsions:
REMARK  status: ('A' for Active; 'I' for Inactive)
REMARK    1  A    between atoms: C_6  and  C_10
REMARK    2  A    between atoms: C_14  and  O_18
REMARK    3  A    between atoms: N_17  and  C_21
REMARK    4  A    between atoms: C_21  and  C_24
REMARK    5  A    between atoms: C_24  and  C_27
REMARK    6  A    between atoms: C_25  and  C_28
REMARK    7  A    between atoms: C_27  and  C_29
REMARK    8  A    between atoms: C_27  and  C_30
REMARK                            x       y       z     vdW  Elec       q    Type
REMARK                         _______ _______ _______ _____ _____    ______ ____
ROOT
ATOM      1  C   UNL     1     -10.894  55.535  48.721  0.00  0.00    +0.000 A 
ATOM      2  C   UNL     1      -9.618  55.107  49.373  0.00  0.00    +0.000 A 
ATOM      3  C   UNL     1     -11.152  55.181  47.450  0.00  0.00    +0.000 A 
ATOM      4  O   UNL     1      -9.469  55.351  50.575  0.00  0.00    +0.000 OA
ATOM      5  N   UNL     1      -8.669  54.434  48.613  0.00  0.00    +0.000 N 
ATOM      6  C   UNL     1     -10.189  54.363  46.696  0.00  0.00    +0.000 A 
ATOM      7  C   UNL     1      -8.977  53.980  47.290  0.00  0.00    +0.000 A 
ATOM      8  C   UNL     1     -10.483  53.940  45.386  0.00  0.00    +0.000 A 
ATOM      9  C   UNL     1      -8.114  53.137  46.575  0.00  0.00    +0.000 A 
ATOM     10  C   UNL     1      -9.596  53.137  44.665  0.00  0.00    +0.000 A 
ATOM     11  C   UNL     1      -8.412  52.731  45.273  0.00  0.00    +0.000 A 
ATOM     12  C   UNL     1      -9.919  52.679  43.275  0.00  0.00    +0.000 C 
ENDROOT
BRANCH   1  18
ATOM     13  S   UNL     1     -13.593  56.372  51.454  0.00  0.00    +0.000 S 
ATOM     14  O   UNL     1     -13.012  56.687  52.745  0.00  0.00    +0.000 OA
ATOM     15  O   UNL     1     -14.783  55.547  51.369  0.00  0.00    +0.000 OA
ATOM     16  N   UNL     1     -12.440  55.683  50.548  0.00  0.00    +0.000 N 
ATOM     17  C   UNL     1     -14.021  57.910  50.725  0.00  0.00    +0.000 A 
ATOM     18  C   UNL     1     -11.917  56.306  49.534  0.00  0.00    +0.000 C 
ATOM     19  C   UNL     1     -13.284  58.338  49.633  0.00  0.00    +0.000 A 
ATOM     20  C   UNL     1     -15.086  58.658  51.237  0.00  0.00    +0.000 A 
ATOM     21  N   UNL     1     -12.219  57.590  49.139  0.00  0.00    +0.000 N 
ATOM     22  C   UNL     1     -13.580  59.590  49.083  0.00  0.00    +0.000 A 
ATOM     23  C   UNL     1     -15.394  59.886  50.657  0.00  0.00    +0.000 A 
ATOM     24  C   UNL     1     -14.634  60.356  49.585  0.00  0.00    +0.000 A 
ATOM     25  H   UNL     1     -12.129  54.775  50.770  0.00  0.00    +0.000 HD
ATOM     26  H   UNL     1     -11.641  58.008  48.459  0.00  0.00    +0.000 HD
ENDBRANCH   1  18
BRANCH   3  27
ATOM     27  O   UNL     1     -12.317  55.493  46.772  0.00  0.00    +0.000 OA
ATOM     28  H   UNL     1     -12.850  56.208  47.061  0.00  0.00    +0.000 HD
ENDBRANCH   3  27
BRANCH   5  29
ATOM     29  C   UNL     1      -7.393  54.094  49.257  0.00  0.00    +0.000 C 
BRANCH  29  30
ATOM     30  C   UNL     1      -6.266  55.132  49.113  0.00  0.00    +0.000 C 
BRANCH  30  31
ATOM     31  C   UNL     1      -4.829  54.628  49.327  0.00  0.00    +0.000 C 
ATOM     32  C   UNL     1      -4.638  53.967  50.689  0.00  0.00    +0.000 C 
ATOM     33  C   UNL     1      -4.489  53.628  48.214  0.00  0.00    +0.000 C 
ENDBRANCH  30  31
ENDBRANCH  29  30
ENDBRANCH   5  29
TORSDOF 5
ENDMDL
MODEL 7
REMARK VINA RESULT:      -7.8      3.182      7.490
REMARK  Name = 338063
REMARK  8 active torsions:
REMARK  status: ('A' for Active; 'I' for Inactive)
REMARK    1  A    between atoms: C_6  and  C_10
REMARK    2  A    between atoms: C_14  and  O_18
REMARK    3  A    between atoms: N_17  and  C_21
REMARK    4  A    between atoms: C_21  and  C_24
REMARK    5  A    between atoms: C_24  and  C_27
REMARK    6  A    between atoms: C_25  and  C_28
REMARK    7  A    between atoms: C_27  and  C_29
REMARK    8  A    between atoms: C_27  and  C_30
REMARK                            x       y       z     vdW  Elec       q    Type
REMARK                         _______ _______ _______ _____ _____    ______ ____
ROOT
ATOM      1  C   UNL     1     -10.049  55.146  51.010  0.00  0.00    +0.000 A 
ATOM      2  C   UNL     1      -9.769  55.149  49.541  0.00  0.00    +0.000 A 
ATOM      3  C   UNL     1     -11.262  55.504  51.464  0.00  0.00    +0.000 A 
ATOM      4  O   UNL     1      -8.684  54.704  49.155  0.00  0.00    +0.000 OA
ATOM      5  N   UNL     1     -10.744  55.628  48.673  0.00  0.00    +0.000 N 
ATOM      6  C   UNL     1     -12.324  55.892  50.523  0.00  0.00    +0.000 A 
ATOM      7  C   UNL     1     -12.063  55.925  49.145  0.00  0.00    +0.000 A 
ATOM      8  C   UNL     1     -13.613  56.210  50.992  0.00  0.00    +0.000 A 
ATOM      9  C   UNL     1     -13.115  56.224  48.268  0.00  0.00    +0.000 A 
ATOM     10  C   UNL     1     -14.643  56.550  50.113  0.00  0.00    +0.000 A 
ATOM     11  C   UNL     1     -14.386  56.546  48.745  0.00  0.00    +0.000 A 
ATOM     12  C   UNL     1     -16.017  56.876  50.616  0.00  0.00    +0.000 C 
ENDROOT
BRANCH   1  18
ATOM     13  S   UNL     1      -6.579  54.809  52.826  0.00  0.00    +0.000 S 
ATOM     14  O   UNL     1      -6.366  55.830  53.833  0.00  0.00    +0.000 OA
ATOM     15  O   UNL     1      -5.497  54.413  51.945  0.00  0.00    +0.000 OA
ATOM     16  N   UNL     1      -7.829  55.274  51.907  0.00  0.00    +0.000 N 
ATOM     17  C   UNL     1      -7.045  53.357  53.697  0.00  0.00    +0.000 A 
ATOM     18  C   UNL     1      -8.974  54.663  51.966  0.00  0.00    +0.000 C 
ATOM     19  C   UNL     1      -8.355  52.921  53.575  0.00  0.00    +0.000 A 
ATOM     20  C   UNL     1      -6.105  52.669  54.471  0.00  0.00    +0.000 A 
ATOM     21  N   UNL     1      -9.284  53.619  52.810  0.00  0.00    +0.000 N 
ATOM     22  C   UNL     1      -8.750  51.799  54.312  0.00  0.00    +0.000 A 
ATOM     23  C   UNL     1      -6.504  51.533  55.170  0.00  0.00    +0.000 A 
ATOM     24  C   UNL     1      -7.829  51.103  55.098  0.00  0.00    +0.000 A 
ATOM     25  H   UNL     1      -7.719  56.035  51.292  0.00  0.00    +0.000 HD
ATOM     26  H   UNL     1     -10.229  53.349  52.876  0.00  0.00    +0.000 HD
ENDBRANCH   1  18
BRANCH   3  27
ATOM     27  O   UNL     1     -11.632  55.496  52.798  0.00  0.00    +0.000 OA
ATOM     28  H   UNL     1     -12.251  56.123  53.116  0.00  0.00    +0.000 HD
ENDBRANCH   3  27
BRANCH   5  29
ATOM     29  C   UNL     1     -10.414  55.694  47.244  0.00  0.00    +0.000 C 
BRANCH  29  30
ATOM     30  C   UNL     1     -10.669  54.412  46.431  0.00  0.00    +0.000 C 
BRANCH  30  31
ATOM     31  C   UNL     1      -9.441  53.735  45.801  0.00  0.00    +0.000 C 
ATOM     32  C   UNL     1      -9.743  53.138  44.429  0.00  0.00    +0.000 C 
ATOM     33  C   UNL     1      -8.318  54.773  45.677  0.00  0.00    +0.000 C 
ENDBRANCH  30  31
ENDBRANCH  29  30
ENDBRANCH   5  29
TORSDOF 5
ENDMDL
MODEL 8
REMARK VINA RESULT:      -7.8      4.488      7.117
REMARK  Name = 338063
REMARK  8 active torsions:
REMARK  status: ('A' for Active; 'I' for Inactive)
REMARK    1  A    between atoms: C_6  and  C_10
REMARK    2  A    between atoms: C_14  and  O_18
REMARK    3  A    between atoms: N_17  and  C_21
REMARK    4  A    between atoms: C_21  and  C_24
REMARK    5  A    between atoms: C_24  and  C_27
REMARK    6  A    between atoms: C_25  and  C_28
REMARK    7  A    between atoms: C_27  and  C_29
REMARK    8  A    between atoms: C_27  and  C_30
REMARK                            x       y       z     vdW  Elec       q    Type
REMARK                         _______ _______ _______ _____ _____    ______ ____
ROOT
ATOM      1  C   UNL     1     -10.807  54.483  48.678  0.00  0.00    +0.000 A 
ATOM      2  C   UNL     1     -10.336  54.033  50.025  0.00  0.00    +0.000 A 
ATOM      3  C   UNL     1     -11.800  55.383  48.578  0.00  0.00    +0.000 A 
ATOM      4  O   UNL     1      -9.348  53.295  50.079  0.00  0.00    +0.000 OA
ATOM      5  N   UNL     1     -11.012  54.480  51.155  0.00  0.00    +0.000 N 
ATOM      6  C   UNL     1     -12.423  55.940  49.788  0.00  0.00    +0.000 A 
ATOM      7  C   UNL     1     -12.008  55.504  51.056  0.00  0.00    +0.000 A 
ATOM      8  C   UNL     1     -13.422  56.927  49.688  0.00  0.00    +0.000 A 
ATOM      9  C   UNL     1     -12.567  56.108  52.191  0.00  0.00    +0.000 A 
ATOM     10  C   UNL     1     -14.005  57.491  50.825  0.00  0.00    +0.000 A 
ATOM     11  C   UNL     1     -13.562  57.080  52.080  0.00  0.00    +0.000 A 
ATOM     12  C   UNL     1     -15.058  58.551  50.713  0.00  0.00    +0.000 C 
ENDROOT
BRANCH   1  18
ATOM     13  S   UNL     1      -8.049  53.963  45.925  0.00  0.00    +0.000 S 
ATOM     14  O   UNL     1      -7.001  53.051  46.339  0.00  0.00    +0.000 OA
ATOM     15  O   UNL     1      -7.720  55.172  45.196  0.00  0.00    +0.000 OA
ATOM     16  N   UNL     1      -8.886  54.387  47.246  0.00  0.00    +0.000 N 
ATOM     17  C   UNL     1      -9.109  53.041  44.873  0.00  0.00    +0.000 A 
ATOM     18  C   UNL     1     -10.100  53.966  47.438  0.00  0.00    +0.000 C 
ATOM     19  C   UNL     1     -10.375  52.728  45.342  0.00  0.00    +0.000 A 
ATOM     20  C   UNL     1      -8.675  52.656  43.600  0.00  0.00    +0.000 A 
ATOM     21  N   UNL     1     -10.792  53.106  46.614  0.00  0.00    +0.000 N 
ATOM     22  C   UNL     1     -11.205  51.942  44.533  0.00  0.00    +0.000 A 
ATOM     23  C   UNL     1      -9.525  51.907  42.792  0.00  0.00    +0.000 A 
ATOM     24  C   UNL     1     -10.787  51.541  43.262  0.00  0.00    +0.000 A 
ATOM     25  H   UNL     1      -8.466  54.974  47.916  0.00  0.00    +0.000 HD
ATOM     26  H   UNL     1     -11.640  52.733  46.949  0.00  0.00    +0.000 HD
ENDBRANCH   1  18
BRANCH   3  27
ATOM     27  O   UNL     1     -12.278  55.890  47.383  0.00  0.00    +0.000 OA
ATOM     28  H   UNL     1     -12.441  55.315  46.661  0.00  0.00    +0.000 HD
ENDBRANCH   3  27
BRANCH   5  29
ATOM     29  C   UNL     1     -10.579  53.962  52.459  0.00  0.00    +0.000 C 
BRANCH  29  30
ATOM     30  C   UNL     1      -9.686  54.896  53.294  0.00  0.00    +0.000 C 
BRANCH  30  31
ATOM     31  C   UNL     1      -8.183  54.892  52.969  0.00  0.00    +0.000 C 
ATOM     32  C   UNL     1      -7.815  55.910  51.894  0.00  0.00    +0.000 C 
ATOM     33  C   UNL     1      -7.402  55.191  54.255  0.00  0.00    +0.000 C 
ENDBRANCH  30  31
ENDBRANCH  29  30
ENDBRANCH   5  29
TORSDOF 5
ENDMDL
MODEL 9
REMARK VINA RESULT:      -7.6      1.646      3.975
REMARK  Name = 338063
REMARK  8 active torsions:
REMARK  status: ('A' for Active; 'I' for Inactive)
REMARK    1  A    between atoms: C_6  and  C_10
REMARK    2  A    between atoms: C_14  and  O_18
REMARK    3  A    between atoms: N_17  and  C_21
REMARK    4  A    between atoms: C_21  and  C_24
REMARK    5  A    between atoms: C_24  and  C_27
REMARK    6  A    between atoms: C_25  and  C_28
REMARK    7  A    between atoms: C_27  and  C_29
REMARK    8  A    between atoms: C_27  and  C_30
REMARK                            x       y       z     vdW  Elec       q    Type
REMARK                         _______ _______ _______ _____ _____    ______ ____
ROOT
ATOM      1  C   UNL     1     -10.676  55.029  50.936  0.00  0.00    +0.000 A 
ATOM      2  C   UNL     1     -10.791  53.712  51.635  0.00  0.00    +0.000 A 
ATOM      3  C   UNL     1      -9.509  55.395  50.378  0.00  0.00    +0.000 A 
ATOM      4  O   UNL     1     -11.906  53.360  52.033  0.00  0.00    +0.000 OA
ATOM      5  N   UNL     1      -9.650  52.931  51.786  0.00  0.00    +0.000 N 
ATOM      6  C   UNL     1      -8.342  54.502  50.440  0.00  0.00    +0.000 A 
ATOM      7  C   UNL     1      -8.432  53.276  51.118  0.00  0.00    +0.000 A 
ATOM      8  C   UNL     1      -7.137  54.856  49.806  0.00  0.00    +0.000 A 
ATOM      9  C   UNL     1      -7.327  52.413  51.095  0.00  0.00    +0.000 A 
ATOM     10  C   UNL     1      -6.027  54.008  49.827  0.00  0.00    +0.000 A 
ATOM     11  C   UNL     1      -6.135  52.778  50.470  0.00  0.00    +0.000 A 
ATOM     12  C   UNL     1      -4.750  54.384  49.139  0.00  0.00    +0.000 C 
ENDROOT
BRANCH   1  18
ATOM     13  S   UNL     1     -13.491  57.253  49.330  0.00  0.00    +0.000 S 
ATOM     14  O   UNL     1     -14.547  56.473  48.715  0.00  0.00    +0.000 OA
ATOM     15  O   UNL     1     -12.989  58.447  48.677  0.00  0.00    +0.000 OA
ATOM     16  N   UNL     1     -12.237  56.263  49.599  0.00  0.00    +0.000 N 
ATOM     17  C   UNL     1     -14.119  57.782  50.882  0.00  0.00    +0.000 A 
ATOM     18  C   UNL     1     -11.908  55.905  50.804  0.00  0.00    +0.000 C 
ATOM     19  C   UNL     1     -13.572  57.225  52.026  0.00  0.00    +0.000 A 
ATOM     20  C   UNL     1     -15.130  58.747  50.939  0.00  0.00    +0.000 A 
ATOM     21  N   UNL     1     -12.574  56.257  51.957  0.00  0.00    +0.000 N 
ATOM     22  C   UNL     1     -14.107  57.597  53.264  0.00  0.00    +0.000 A 
ATOM     23  C   UNL     1     -15.627  59.135  52.180  0.00  0.00    +0.000 A 
ATOM     24  C   UNL     1     -15.123  58.553  53.343  0.00  0.00    +0.000 A 
ATOM     25  H   UNL     1     -11.715  55.927  48.835  0.00  0.00    +0.000 HD
ATOM     26  H   UNL     1     -12.327  55.793  52.789  0.00  0.00    +0.000 HD
ENDBRANCH   1  18
BRANCH   3  27
ATOM     27  O   UNL     1      -9.313  56.572  49.678  0.00  0.00    +0.000 OA
ATOM     28  H   UNL     1      -9.945  56.852  49.045  0.00  0.00    +0.000 HD
ENDBRANCH   3  27
BRANCH   5  29
ATOM     29  C   UNL     1      -9.775  51.679  52.544  0.00  0.00    +0.000 C 
BRANCH  29  30
ATOM     30  C   UNL     1      -9.500  51.774  54.055  0.00  0.00    +0.000 C 
BRANCH  30  31
ATOM     31  C   UNL     1      -8.311  50.962  54.595  0.00  0.00    +0.000 C 
ATOM     32  C   UNL     1      -7.077  51.825  54.842  0.00  0.00    +0.000 C 
ATOM     33  C   UNL     1      -8.736  50.281  55.903  0.00  0.00    +0.000 C 
ENDBRANCH  30  31
ENDBRANCH  29  30
ENDBRANCH   5  29
TORSDOF 5
ENDMDL
