MODEL 1
REMARK VINA RESULT:      -8.6      0.000      0.000
REMARK  Name = 338168
REMARK  5 active torsions:
REMARK  status: ('A' for Active; 'I' for Inactive)
REMARK    1  A    between atoms: C_6  and  C_10
REMARK    2  A    between atoms: C_14  and  O_18
REMARK    3  A    between atoms: N_17  and  C_21
REMARK    4  A    between atoms: C_21  and  C_24
REMARK    5  A    between atoms: C_24  and  C_27
REMARK                            x       y       z     vdW  Elec       q    Type
REMARK                         _______ _______ _______ _____ _____    ______ ____
ROOT
ATOM      1  C   UNL     1      -9.980  54.564  52.385  0.00  0.00    +0.000 A 
ATOM      2  C   UNL     1      -8.586  55.067  52.271  0.00  0.00    +0.000 A 
ATOM      3  C   UNL     1     -10.234  53.431  53.062  0.00  0.00    +0.000 A 
ATOM      4  O   UNL     1      -8.383  56.010  51.502  0.00  0.00    +0.000 OA
ATOM      5  N   UNL     1      -7.590  54.483  53.056  0.00  0.00    +0.000 N 
ATOM      6  C   UNL     1      -9.152  52.713  53.745  0.00  0.00    +0.000 A 
ATOM      7  C   UNL     1      -7.848  53.252  53.759  0.00  0.00    +0.000 A 
ATOM      8  C   UNL     1      -9.431  51.512  54.424  0.00  0.00    +0.000 A 
ATOM      9  C   UNL     1      -6.853  52.551  54.465  0.00  0.00    +0.000 A 
ATOM     10  C   UNL     1      -8.434  50.863  55.131  0.00  0.00    +0.000 A 
ATOM     11  C   UNL     1      -7.149  51.371  55.160  0.00  0.00    +0.000 A 
ATOM     12  F   UNL     1      -8.719  49.738  55.800  0.00  0.00    +0.000 F 
ENDROOT
BRANCH   1  18
ATOM     13  S   UNL     1     -12.371  55.830  49.454  0.00  0.00    +0.000 S 
ATOM     14  O   UNL     1     -13.052  54.594  49.157  0.00  0.00    +0.000 OA
ATOM     15  O   UNL     1     -11.928  56.737  48.418  0.00  0.00    +0.000 OA
ATOM     16  N   UNL     1     -11.049  55.480  50.381  0.00  0.00    +0.000 N 
ATOM     17  C   UNL     1     -13.357  56.729  50.576  0.00  0.00    +0.000 A 
ATOM     18  C   UNL     1     -11.120  55.299  51.760  0.00  0.00    +0.000 C 
ATOM     19  C   UNL     1     -13.091  56.579  51.934  0.00  0.00    +0.000 A 
ATOM     20  C   UNL     1     -14.352  57.587  50.099  0.00  0.00    +0.000 A 
ATOM     21  N   UNL     1     -12.104  55.745  52.477  0.00  0.00    +0.000 N 
ATOM     22  C   UNL     1     -13.850  57.337  52.830  0.00  0.00    +0.000 A 
ATOM     23  C   UNL     1     -15.105  58.323  51.010  0.00  0.00    +0.000 A 
ATOM     24  C   UNL     1     -14.848  58.205  52.376  0.00  0.00    +0.000 A 
ATOM     25  H   UNL     1     -10.174  55.398  49.940  0.00  0.00    +0.000 HD
ATOM     26  H   UNL     1     -12.158  55.492  53.426  0.00  0.00    +0.000 HD
ENDBRANCH   1  18
BRANCH   3  27
ATOM     27  O   UNL     1     -11.490  52.861  53.202  0.00  0.00    +0.000 OA
ATOM     28  H   UNL     1     -11.772  52.552  54.040  0.00  0.00    +0.000 HD
ENDBRANCH   3  27
BRANCH   5  29
ATOM     29  C   UNL     1      -6.212  55.025  52.987  0.00  0.00    +0.000 C 
BRANCH  29  30
ATOM     30  C   UNL     1      -5.205  54.235  52.130  0.00  0.00    +0.000 C 
BRANCH  30  31
ATOM     31  C   UNL     1      -5.315  54.532  50.663  0.00  0.00    +0.000 C 
ATOM     32  C   UNL     1      -6.114  53.689  49.702  0.00  0.00    +0.000 C 
ATOM     33  C   UNL     1      -4.614  53.615  49.692  0.00  0.00    +0.000 C 
ENDBRANCH  30  31
ENDBRANCH  29  30
ENDBRANCH   5  29
TORSDOF 5
ENDMDL
MODEL 2
REMARK VINA RESULT:      -8.3      3.876      7.427
REMARK  Name = 338168
REMARK  5 active torsions:
REMARK  status: ('A' for Active; 'I' for Inactive)
REMARK    1  A    between atoms: C_6  and  C_10
REMARK    2  A    between atoms: C_14  and  O_18
REMARK    3  A    between atoms: N_17  and  C_21
REMARK    4  A    between atoms: C_21  and  C_24
REMARK    5  A    between atoms: C_24  and  C_27
REMARK                            x       y       z     vdW  Elec       q    Type
REMARK                         _______ _______ _______ _____ _____    ______ ____
ROOT
ATOM      1  C   UNL     1     -10.188  55.101  50.823  0.00  0.00    +0.000 A 
ATOM      2  C   UNL     1      -9.838  55.169  49.380  0.00  0.00    +0.000 A 
ATOM      3  C   UNL     1     -11.382  55.546  51.248  0.00  0.00    +0.000 A 
ATOM      4  O   UNL     1      -8.674  54.908  49.064  0.00  0.00    +0.000 OA
ATOM      5  N   UNL     1     -10.837  55.482  48.456  0.00  0.00    +0.000 N 
ATOM      6  C   UNL     1     -12.375  56.045  50.290  0.00  0.00    +0.000 A 
ATOM      7  C   UNL     1     -12.109  55.989  48.905  0.00  0.00    +0.000 A 
ATOM      8  C   UNL     1     -13.610  56.536  50.755  0.00  0.00    +0.000 A 
ATOM      9  C   UNL     1     -13.109  56.437  48.023  0.00  0.00    +0.000 A 
ATOM     10  C   UNL     1     -14.581  56.944  49.858  0.00  0.00    +0.000 A 
ATOM     11  C   UNL     1     -14.344  56.897  48.497  0.00  0.00    +0.000 A 
ATOM     12  F   UNL     1     -15.764  57.379  50.312  0.00  0.00    +0.000 F 
ENDROOT
BRANCH   1  18
ATOM     13  S   UNL     1      -6.869  54.905  53.026  0.00  0.00    +0.000 S 
ATOM     14  O   UNL     1      -7.128  55.993  53.937  0.00  0.00    +0.000 OA
ATOM     15  O   UNL     1      -5.562  54.671  52.454  0.00  0.00    +0.000 OA
ATOM     16  N   UNL     1      -7.929  55.026  51.764  0.00  0.00    +0.000 N 
ATOM     17  C   UNL     1      -7.400  53.430  53.789  0.00  0.00    +0.000 A 
ATOM     18  C   UNL     1      -9.232  54.540  51.824  0.00  0.00    +0.000 C 
ATOM     19  C   UNL     1      -8.691  52.988  53.512  0.00  0.00    +0.000 A 
ATOM     20  C   UNL     1      -6.528  52.720  54.620  0.00  0.00    +0.000 A 
ATOM     21  N   UNL     1      -9.609  53.645  52.682  0.00  0.00    +0.000 N 
ATOM     22  C   UNL     1      -9.098  51.780  54.086  0.00  0.00    +0.000 A 
ATOM     23  C   UNL     1      -6.959  51.527  55.191  0.00  0.00    +0.000 A 
ATOM     24  C   UNL     1      -8.241  51.051  54.917  0.00  0.00    +0.000 A 
ATOM     25  H   UNL     1      -7.624  55.459  50.935  0.00  0.00    +0.000 HD
ATOM     26  H   UNL     1     -10.565  53.421  52.752  0.00  0.00    +0.000 HD
ENDBRANCH   1  18
BRANCH   3  27
ATOM     27  O   UNL     1     -11.795  55.556  52.571  0.00  0.00    +0.000 OA
ATOM     28  H   UNL     1     -11.387  56.136  53.184  0.00  0.00    +0.000 HD
ENDBRANCH   3  27
BRANCH   5  29
ATOM     29  C   UNL     1     -10.502  55.490  47.012  0.00  0.00    +0.000 C 
BRANCH  29  30
ATOM     30  C   UNL     1     -10.320  54.115  46.342  0.00  0.00    +0.000 C 
BRANCH  30  31
ATOM     31  C   UNL     1     -11.264  53.885  45.197  0.00  0.00    +0.000 C 
ATOM     32  C   UNL     1     -12.081  52.629  45.033  0.00  0.00    +0.000 C 
ATOM     33  C   UNL     1     -10.886  52.863  44.152  0.00  0.00    +0.000 C 
ENDBRANCH  30  31
ENDBRANCH  29  30
ENDBRANCH   5  29
TORSDOF 5
ENDMDL
MODEL 3
REMARK VINA RESULT:      -8.3      3.854      5.426
REMARK  Name = 338168
REMARK  5 active torsions:
REMARK  status: ('A' for Active; 'I' for Inactive)
REMARK    1  A    between atoms: C_6  and  C_10
REMARK    2  A    between atoms: C_14  and  O_18
REMARK    3  A    between atoms: N_17  and  C_21
REMARK    4  A    between atoms: C_21  and  C_24
REMARK    5  A    between atoms: C_24  and  C_27
REMARK                            x       y       z     vdW  Elec       q    Type
REMARK                         _______ _______ _______ _____ _____    ______ ____
ROOT
ATOM      1  C   UNL     1     -11.530  55.740  48.964  0.00  0.00    +0.000 A 
ATOM      2  C   UNL     1     -10.468  55.034  49.727  0.00  0.00    +0.000 A 
ATOM      3  C   UNL     1     -11.694  55.496  47.653  0.00  0.00    +0.000 A 
ATOM      4  O   UNL     1     -10.246  55.415  50.879  0.00  0.00    +0.000 OA
ATOM      5  N   UNL     1      -9.803  53.963  49.127  0.00  0.00    +0.000 N 
ATOM      6  C   UNL     1     -10.870  54.490  46.975  0.00  0.00    +0.000 A 
ATOM      7  C   UNL     1      -9.951  53.716  47.714  0.00  0.00    +0.000 A 
ATOM      8  C   UNL     1     -11.034  54.268  45.594  0.00  0.00    +0.000 A 
ATOM      9  C   UNL     1      -9.216  52.731  47.029  0.00  0.00    +0.000 A 
ATOM     10  C   UNL     1     -10.314  53.273  44.957  0.00  0.00    +0.000 A 
ATOM     11  C   UNL     1      -9.408  52.502  45.660  0.00  0.00    +0.000 A 
ATOM     12  F   UNL     1     -10.503  53.050  43.649  0.00  0.00    +0.000 F 
ENDROOT
BRANCH   1  18
ATOM     13  S   UNL     1     -13.513  59.168  49.448  0.00  0.00    +0.000 S 
ATOM     14  O   UNL     1     -14.505  59.012  48.412  0.00  0.00    +0.000 OA
ATOM     15  O   UNL     1     -12.849  60.428  49.699  0.00  0.00    +0.000 OA
ATOM     16  N   UNL     1     -12.327  58.044  49.198  0.00  0.00    +0.000 N 
ATOM     17  C   UNL     1     -14.210  58.614  50.946  0.00  0.00    +0.000 A 
ATOM     18  C   UNL     1     -12.434  56.726  49.631  0.00  0.00    +0.000 C 
ATOM     19  C   UNL     1     -13.984  57.290  51.314  0.00  0.00    +0.000 A 
ATOM     20  C   UNL     1     -14.940  59.498  51.746  0.00  0.00    +0.000 A 
ATOM     21  N   UNL     1     -13.255  56.357  50.564  0.00  0.00    +0.000 N 
ATOM     22  C   UNL     1     -14.503  56.860  52.538  0.00  0.00    +0.000 A 
ATOM     23  C   UNL     1     -15.459  59.045  52.955  0.00  0.00    +0.000 A 
ATOM     24  C   UNL     1     -15.233  57.729  53.357  0.00  0.00    +0.000 A 
ATOM     25  H   UNL     1     -11.510  58.320  48.724  0.00  0.00    +0.000 HD
ATOM     26  H   UNL     1     -13.368  55.397  50.751  0.00  0.00    +0.000 HD
ENDBRANCH   1  18
BRANCH   3  27
ATOM     27  O   UNL     1     -12.632  56.121  46.846  0.00  0.00    +0.000 OA
ATOM     28  H   UNL     1     -13.525  56.180  47.125  0.00  0.00    +0.000 HD
ENDBRANCH   3  27
BRANCH   5  29
ATOM     29  C   UNL     1      -8.786  53.221  49.908  0.00  0.00    +0.000 C 
BRANCH  29  30
ATOM     30  C   UNL     1      -7.536  54.012  50.336  0.00  0.00    +0.000 C 
BRANCH  30  31
ATOM     31  C   UNL     1      -6.902  54.774  49.208  0.00  0.00    +0.000 C 
ATOM     32  C   UNL     1      -5.927  54.161  48.236  0.00  0.00    +0.000 C 
ATOM     33  C   UNL     1      -5.431  55.099  49.300  0.00  0.00    +0.000 C 
ENDBRANCH  30  31
ENDBRANCH  29  30
ENDBRANCH   5  29
TORSDOF 5
ENDMDL
MODEL 4
REMARK VINA RESULT:      -8.2      3.690      7.284
REMARK  Name = 338168
REMARK  5 active torsions:
REMARK  status: ('A' for Active; 'I' for Inactive)
REMARK    1  A    between atoms: C_6  and  C_10
REMARK    2  A    between atoms: C_14  and  O_18
REMARK    3  A    between atoms: N_17  and  C_21
REMARK    4  A    between atoms: C_21  and  C_24
REMARK    5  A    between atoms: C_24  and  C_27
REMARK                            x       y       z     vdW  Elec       q    Type
REMARK                         _______ _______ _______ _____ _____    ______ ____
ROOT
ATOM      1  C   UNL     1     -10.168  55.444  50.468  0.00  0.00    +0.000 A 
ATOM      2  C   UNL     1     -10.339  55.697  49.014  0.00  0.00    +0.000 A 
ATOM      3  C   UNL     1     -11.202  55.616  51.309  0.00  0.00    +0.000 A 
ATOM      4  O   UNL     1      -9.324  55.691  48.312  0.00  0.00    +0.000 OA
ATOM      5  N   UNL     1     -11.626  55.891  48.508  0.00  0.00    +0.000 N 
ATOM      6  C   UNL     1     -12.523  55.995  50.796  0.00  0.00    +0.000 A 
ATOM      7  C   UNL     1     -12.733  56.106  49.405  0.00  0.00    +0.000 A 
ATOM      8  C   UNL     1     -13.588  56.200  51.693  0.00  0.00    +0.000 A 
ATOM      9  C   UNL     1     -14.028  56.428  48.958  0.00  0.00    +0.000 A 
ATOM     10  C   UNL     1     -14.855  56.489  51.218  0.00  0.00    +0.000 A 
ATOM     11  C   UNL     1     -15.086  56.603  49.860  0.00  0.00    +0.000 A 
ATOM     12  F   UNL     1     -15.867  56.650  52.080  0.00  0.00    +0.000 F 
ENDROOT
BRANCH   1  18
ATOM     13  S   UNL     1      -6.564  53.733  50.459  0.00  0.00    +0.000 S 
ATOM     14  O   UNL     1      -5.852  54.692  49.652  0.00  0.00    +0.000 OA
ATOM     15  O   UNL     1      -6.375  52.306  50.312  0.00  0.00    +0.000 OA
ATOM     16  N   UNL     1      -8.183  54.020  50.292  0.00  0.00    +0.000 N 
ATOM     17  C   UNL     1      -6.307  54.144  52.133  0.00  0.00    +0.000 A 
ATOM     18  C   UNL     1      -8.856  54.993  51.025  0.00  0.00    +0.000 C 
ATOM     19  C   UNL     1      -7.255  54.954  52.753  0.00  0.00    +0.000 A 
ATOM     20  C   UNL     1      -5.195  53.640  52.814  0.00  0.00    +0.000 A 
ATOM     21  N   UNL     1      -8.394  55.484  52.132  0.00  0.00    +0.000 N 
ATOM     22  C   UNL     1      -7.072  55.244  54.108  0.00  0.00    +0.000 A 
ATOM     23  C   UNL     1      -5.026  53.951  54.159  0.00  0.00    +0.000 A 
ATOM     24  C   UNL     1      -5.970  54.746  54.810  0.00  0.00    +0.000 A 
ATOM     25  H   UNL     1      -8.693  53.478  49.648  0.00  0.00    +0.000 HD
ATOM     26  H   UNL     1      -8.856  56.247  52.548  0.00  0.00    +0.000 HD
ENDBRANCH   1  18
BRANCH   3  27
ATOM     27  O   UNL     1     -11.140  55.436  52.682  0.00  0.00    +0.000 OA
ATOM     28  H   UNL     1     -11.790  55.823  53.234  0.00  0.00    +0.000 HD
ENDBRANCH   3  27
BRANCH   5  29
ATOM     29  C   UNL     1     -11.802  56.083  47.049  0.00  0.00    +0.000 C 
BRANCH  29  30
ATOM     30  C   UNL     1     -12.092  54.818  46.220  0.00  0.00    +0.000 C 
BRANCH  30  31
ATOM     31  C   UNL     1     -10.865  54.232  45.585  0.00  0.00    +0.000 C 
ATOM     32  C   UNL     1     -10.905  53.116  44.572  0.00  0.00    +0.000 C 
ATOM     33  C   UNL     1     -10.454  52.833  45.977  0.00  0.00    +0.000 C 
ENDBRANCH  30  31
ENDBRANCH  29  30
ENDBRANCH   5  29
TORSDOF 5
ENDMDL
MODEL 5
REMARK VINA RESULT:      -8.2      4.078      5.813
REMARK  Name = 338168
REMARK  5 active torsions:
REMARK  status: ('A' for Active; 'I' for Inactive)
REMARK    1  A    between atoms: C_6  and  C_10
REMARK    2  A    between atoms: C_14  and  O_18
REMARK    3  A    between atoms: N_17  and  C_21
REMARK    4  A    between atoms: C_21  and  C_24
REMARK    5  A    between atoms: C_24  and  C_27
REMARK                            x       y       z     vdW  Elec       q    Type
REMARK                         _______ _______ _______ _____ _____    ______ ____
ROOT
ATOM      1  C   UNL     1     -11.542  55.785  48.918  0.00  0.00    +0.000 A 
ATOM      2  C   UNL     1     -10.437  55.112  49.649  0.00  0.00    +0.000 A 
ATOM      3  C   UNL     1     -11.751  55.518  47.618  0.00  0.00    +0.000 A 
ATOM      4  O   UNL     1     -10.180  55.514  50.787  0.00  0.00    +0.000 OA
ATOM      5  N   UNL     1      -9.774  54.045  49.039  0.00  0.00    +0.000 N 
ATOM      6  C   UNL     1     -10.933  54.518  46.923  0.00  0.00    +0.000 A 
ATOM      7  C   UNL     1      -9.971  53.774  47.637  0.00  0.00    +0.000 A 
ATOM      8  C   UNL     1     -11.145  54.273  45.553  0.00  0.00    +0.000 A 
ATOM      9  C   UNL     1      -9.242  52.794  46.938  0.00  0.00    +0.000 A 
ATOM     10  C   UNL     1     -10.429  53.283  44.902  0.00  0.00    +0.000 A 
ATOM     11  C   UNL     1      -9.482  52.540  45.581  0.00  0.00    +0.000 A 
ATOM     12  F   UNL     1     -10.663  53.037  43.606  0.00  0.00    +0.000 F 
ENDROOT
BRANCH   1  18
ATOM     13  S   UNL     1     -13.522  59.205  49.461  0.00  0.00    +0.000 S 
ATOM     14  O   UNL     1     -14.524  59.060  48.433  0.00  0.00    +0.000 OA
ATOM     15  O   UNL     1     -12.857  60.463  49.719  0.00  0.00    +0.000 OA
ATOM     16  N   UNL     1     -12.338  58.086  49.186  0.00  0.00    +0.000 N 
ATOM     17  C   UNL     1     -14.204  58.633  50.959  0.00  0.00    +0.000 A 
ATOM     18  C   UNL     1     -12.440  56.762  49.605  0.00  0.00    +0.000 C 
ATOM     19  C   UNL     1     -13.973  57.306  51.310  0.00  0.00    +0.000 A 
ATOM     20  C   UNL     1     -14.926  59.508  51.777  0.00  0.00    +0.000 A 
ATOM     21  N   UNL     1     -13.251  56.382  50.542  0.00  0.00    +0.000 N 
ATOM     22  C   UNL     1     -14.479  56.862  52.534  0.00  0.00    +0.000 A 
ATOM     23  C   UNL     1     -15.432  59.041  52.986  0.00  0.00    +0.000 A 
ATOM     24  C   UNL     1     -15.201  57.720  53.370  0.00  0.00    +0.000 A 
ATOM     25  H   UNL     1     -11.526  58.367  48.707  0.00  0.00    +0.000 HD
ATOM     26  H   UNL     1     -13.361  55.420  50.720  0.00  0.00    +0.000 HD
ENDBRANCH   1  18
BRANCH   3  27
ATOM     27  O   UNL     1     -12.731  56.112  46.838  0.00  0.00    +0.000 OA
ATOM     28  H   UNL     1     -13.367  56.674  47.234  0.00  0.00    +0.000 HD
ENDBRANCH   3  27
BRANCH   5  29
ATOM     29  C   UNL     1      -8.713  53.334  49.792  0.00  0.00    +0.000 C 
BRANCH  29  30
ATOM     30  C   UNL     1      -9.183  52.285  50.816  0.00  0.00    +0.000 C 
BRANCH  30  31
ATOM     31  C   UNL     1      -9.677  51.017  50.180  0.00  0.00    +0.000 C 
ATOM     32  C   UNL     1     -11.098  50.817  49.721  0.00  0.00    +0.000 C 
ATOM     33  C   UNL     1     -10.615  50.138  50.971  0.00  0.00    +0.000 C 
ENDBRANCH  30  31
ENDBRANCH  29  30
ENDBRANCH   5  29
TORSDOF 5
ENDMDL
MODEL 6
REMARK VINA RESULT:      -8.0      3.503      7.963
REMARK  Name = 338168
REMARK  5 active torsions:
REMARK  status: ('A' for Active; 'I' for Inactive)
REMARK    1  A    between atoms: C_6  and  C_10
REMARK    2  A    between atoms: C_14  and  O_18
REMARK    3  A    between atoms: N_17  and  C_21
REMARK    4  A    between atoms: C_21  and  C_24
REMARK    5  A    between atoms: C_24  and  C_27
REMARK                            x       y       z     vdW  Elec       q    Type
REMARK                         _______ _______ _______ _____ _____    ______ ____
ROOT
ATOM      1  C   UNL     1      -9.992  54.491  50.756  0.00  0.00    +0.000 A 
ATOM      2  C   UNL     1     -11.136  55.394  51.042  0.00  0.00    +0.000 A 
ATOM      3  C   UNL     1      -9.772  54.057  49.503  0.00  0.00    +0.000 A 
ATOM      4  O   UNL     1     -11.396  55.626  52.226  0.00  0.00    +0.000 OA
ATOM      5  N   UNL     1     -11.834  55.962  49.974  0.00  0.00    +0.000 N 
ATOM      6  C   UNL     1     -10.620  54.517  48.397  0.00  0.00    +0.000 A 
ATOM      7  C   UNL     1     -11.625  55.479  48.632  0.00  0.00    +0.000 A 
ATOM      8  C   UNL     1     -10.395  54.029  47.096  0.00  0.00    +0.000 A 
ATOM      9  C   UNL     1     -12.382  55.923  47.532  0.00  0.00    +0.000 A 
ATOM     10  C   UNL     1     -11.141  54.508  46.033  0.00  0.00    +0.000 A 
ATOM     11  C   UNL     1     -12.130  55.451  46.238  0.00  0.00    +0.000 A 
ATOM     12  F   UNL     1     -10.896  54.060  44.795  0.00  0.00    +0.000 F 
ENDROOT
BRANCH   1  18
ATOM     13  S   UNL     1      -6.776  54.602  53.113  0.00  0.00    +0.000 S 
ATOM     14  O   UNL     1      -7.115  55.751  53.917  0.00  0.00    +0.000 OA
ATOM     15  O   UNL     1      -5.436  54.371  52.621  0.00  0.00    +0.000 OA
ATOM     16  N   UNL     1      -7.778  54.579  51.800  0.00  0.00    +0.000 N 
ATOM     17  C   UNL     1      -7.291  53.176  53.972  0.00  0.00    +0.000 A 
ATOM     18  C   UNL     1      -9.065  54.050  51.842  0.00  0.00    +0.000 C 
ATOM     19  C   UNL     1      -8.552  52.663  53.676  0.00  0.00    +0.000 A 
ATOM     20  C   UNL     1      -6.436  52.570  54.897  0.00  0.00    +0.000 A 
ATOM     21  N   UNL     1      -9.452  53.215  52.754  0.00  0.00    +0.000 N 
ATOM     22  C   UNL     1      -8.944  51.492  54.330  0.00  0.00    +0.000 A 
ATOM     23  C   UNL     1      -6.853  51.412  55.546  0.00  0.00    +0.000 A 
ATOM     24  C   UNL     1      -8.103  50.867  55.257  0.00  0.00    +0.000 A 
ATOM     25  H   UNL     1      -7.450  54.954  50.951  0.00  0.00    +0.000 HD
ATOM     26  H   UNL     1     -10.402  52.961  52.801  0.00  0.00    +0.000 HD
ENDBRANCH   1  18
BRANCH   3  27
ATOM     27  O   UNL     1      -8.754  53.192  49.135  0.00  0.00    +0.000 OA
ATOM     28  H   UNL     1      -8.883  52.592  48.427  0.00  0.00    +0.000 HD
ENDBRANCH   3  27
BRANCH   5  29
ATOM     29  C   UNL     1     -12.936  56.910  50.259  0.00  0.00    +0.000 C 
BRANCH  29  30
ATOM     30  C   UNL     1     -14.307  56.291  50.591  0.00  0.00    +0.000 C 
BRANCH  30  31
ATOM     31  C   UNL     1     -15.244  57.252  51.264  0.00  0.00    +0.000 C 
ATOM     32  C   UNL     1     -14.807  58.237  52.318  0.00  0.00    +0.000 C 
ATOM     33  C   UNL     1     -15.590  57.018  52.714  0.00  0.00    +0.000 C 
ENDBRANCH  30  31
ENDBRANCH  29  30
ENDBRANCH   5  29
TORSDOF 5
ENDMDL
MODEL 7
REMARK VINA RESULT:      -8.0      3.257      4.340
REMARK  Name = 338168
REMARK  5 active torsions:
REMARK  status: ('A' for Active; 'I' for Inactive)
REMARK    1  A    between atoms: C_6  and  C_10
REMARK    2  A    between atoms: C_14  and  O_18
REMARK    3  A    between atoms: N_17  and  C_21
REMARK    4  A    between atoms: C_21  and  C_24
REMARK    5  A    between atoms: C_24  and  C_27
REMARK                            x       y       z     vdW  Elec       q    Type
REMARK                         _______ _______ _______ _____ _____    ______ ____
ROOT
ATOM      1  C   UNL     1     -12.128  54.375  50.286  0.00  0.00    +0.000 A 
ATOM      2  C   UNL     1     -11.941  53.874  48.900  0.00  0.00    +0.000 A 
ATOM      3  C   UNL     1     -11.617  53.693  51.324  0.00  0.00    +0.000 A 
ATOM      4  O   UNL     1     -12.569  54.438  48.000  0.00  0.00    +0.000 OA
ATOM      5  N   UNL     1     -11.046  52.825  48.675  0.00  0.00    +0.000 N 
ATOM      6  C   UNL     1     -10.819  52.483  51.100  0.00  0.00    +0.000 A 
ATOM      7  C   UNL     1     -10.519  52.071  49.784  0.00  0.00    +0.000 A 
ATOM      8  C   UNL     1     -10.316  51.764  52.200  0.00  0.00    +0.000 A 
ATOM      9  C   UNL     1      -9.712  50.930  49.618  0.00  0.00    +0.000 A 
ATOM     10  C   UNL     1      -9.504  50.661  52.001  0.00  0.00    +0.000 A 
ATOM     11  C   UNL     1      -9.195  50.239  50.722  0.00  0.00    +0.000 A 
ATOM     12  F   UNL     1      -9.005  50.004  53.056  0.00  0.00    +0.000 F 
ENDROOT
BRANCH   1  18
ATOM     13  S   UNL     1     -14.428  56.922  52.319  0.00  0.00    +0.000 S 
ATOM     14  O   UNL     1     -13.503  57.292  53.362  0.00  0.00    +0.000 OA
ATOM     15  O   UNL     1     -15.829  56.674  52.582  0.00  0.00    +0.000 OA
ATOM     16  N   UNL     1     -13.839  55.578  51.561  0.00  0.00    +0.000 N 
ATOM     17  C   UNL     1     -14.316  58.115  51.054  0.00  0.00    +0.000 A 
ATOM     18  C   UNL     1     -12.879  55.639  50.555  0.00  0.00    +0.000 C 
ATOM     19  C   UNL     1     -13.451  57.855  49.995  0.00  0.00    +0.000 A 
ATOM     20  C   UNL     1     -15.103  59.270  51.111  0.00  0.00    +0.000 A 
ATOM     21  N   UNL     1     -12.644  56.716  49.873  0.00  0.00    +0.000 N 
ATOM     22  C   UNL     1     -13.398  58.790  48.957  0.00  0.00    +0.000 A 
ATOM     23  C   UNL     1     -15.025  60.193  50.073  0.00  0.00    +0.000 A 
ATOM     24  C   UNL     1     -14.179  59.950  48.991  0.00  0.00    +0.000 A 
ATOM     25  H   UNL     1     -14.183  54.696  51.831  0.00  0.00    +0.000 HD
ATOM     26  H   UNL     1     -11.880  56.733  49.252  0.00  0.00    +0.000 HD
ENDBRANCH   1  18
BRANCH   3  27
ATOM     27  O   UNL     1     -11.760  54.058  52.654  0.00  0.00    +0.000 OA
ATOM     28  H   UNL     1     -11.376  54.854  52.965  0.00  0.00    +0.000 HD
ENDBRANCH   3  27
BRANCH   5  29
ATOM     29  C   UNL     1     -10.813  52.366  47.285  0.00  0.00    +0.000 C 
BRANCH  29  30
ATOM     30  C   UNL     1      -9.482  52.786  46.636  0.00  0.00    +0.000 C 
BRANCH  30  31
ATOM     31  C   UNL     1      -9.473  54.215  46.174  0.00  0.00    +0.000 C 
ATOM     32  C   UNL     1      -8.229  54.933  45.718  0.00  0.00    +0.000 C 
ATOM     33  C   UNL     1      -8.825  55.251  47.059  0.00  0.00    +0.000 C 
ENDBRANCH  30  31
ENDBRANCH  29  30
ENDBRANCH   5  29
TORSDOF 5
ENDMDL
MODEL 8
REMARK VINA RESULT:      -7.9      3.793      7.362
REMARK  Name = 338168
REMARK  5 active torsions:
REMARK  status: ('A' for Active; 'I' for Inactive)
REMARK    1  A    between atoms: C_6  and  C_10
REMARK    2  A    between atoms: C_14  and  O_18
REMARK    3  A    between atoms: N_17  and  C_21
REMARK    4  A    between atoms: C_21  and  C_24
REMARK    5  A    between atoms: C_24  and  C_27
REMARK                            x       y       z     vdW  Elec       q    Type
REMARK                         _______ _______ _______ _____ _____    ______ ____
ROOT
ATOM      1  C   UNL     1     -10.399  55.001  50.660  0.00  0.00    +0.000 A 
ATOM      2  C   UNL     1     -10.095  55.080  49.208  0.00  0.00    +0.000 A 
ATOM      3  C   UNL     1     -11.539  55.526  51.140  0.00  0.00    +0.000 A 
ATOM      4  O   UNL     1      -8.966  54.738  48.843  0.00  0.00    +0.000 OA
ATOM      5  N   UNL     1     -11.096  55.496  48.328  0.00  0.00    +0.000 N 
ATOM      6  C   UNL     1     -12.521  56.127  50.231  0.00  0.00    +0.000 A 
ATOM      7  C   UNL     1     -12.308  56.088  48.836  0.00  0.00    +0.000 A 
ATOM      8  C   UNL     1     -13.697  56.700  50.753  0.00  0.00    +0.000 A 
ATOM      9  C   UNL     1     -13.300  56.637  48.002  0.00  0.00    +0.000 A 
ATOM     10  C   UNL     1     -14.663  57.206  49.902  0.00  0.00    +0.000 A 
ATOM     11  C   UNL     1     -14.478  57.179  48.533  0.00  0.00    +0.000 A 
ATOM     12  F   UNL     1     -15.792  57.719  50.410  0.00  0.00    +0.000 F 
ENDROOT
BRANCH   1  18
ATOM     13  S   UNL     1      -8.779  52.013  52.748  0.00  0.00    +0.000 S 
ATOM     14  O   UNL     1      -8.141  51.295  51.672  0.00  0.00    +0.000 OA
ATOM     15  O   UNL     1      -9.476  51.338  53.820  0.00  0.00    +0.000 OA
ATOM     16  N   UNL     1      -9.844  53.090  52.088  0.00  0.00    +0.000 N 
ATOM     17  C   UNL     1      -7.596  53.080  53.456  0.00  0.00    +0.000 A 
ATOM     18  C   UNL     1      -9.456  54.339  51.612  0.00  0.00    +0.000 C 
ATOM     19  C   UNL     1      -7.542  54.389  52.986  0.00  0.00    +0.000 A 
ATOM     20  C   UNL     1      -6.765  52.619  54.481  0.00  0.00    +0.000 A 
ATOM     21  N   UNL     1      -8.352  54.916  51.970  0.00  0.00    +0.000 N 
ATOM     22  C   UNL     1      -6.627  55.256  53.588  0.00  0.00    +0.000 A 
ATOM     23  C   UNL     1      -5.852  53.496  55.058  0.00  0.00    +0.000 A 
ATOM     24  C   UNL     1      -5.788  54.818  54.618  0.00  0.00    +0.000 A 
ATOM     25  H   UNL     1     -10.793  52.837  52.031  0.00  0.00    +0.000 HD
ATOM     26  H   UNL     1      -8.075  55.745  51.518  0.00  0.00    +0.000 HD
ENDBRANCH   1  18
BRANCH   3  27
ATOM     27  O   UNL     1     -11.904  55.531  52.477  0.00  0.00    +0.000 OA
ATOM     28  H   UNL     1     -12.163  56.332  52.888  0.00  0.00    +0.000 HD
ENDBRANCH   3  27
BRANCH   5  29
ATOM     29  C   UNL     1     -10.812  55.517  46.874  0.00  0.00    +0.000 C 
BRANCH  29  30
ATOM     30  C   UNL     1     -11.346  54.329  46.052  0.00  0.00    +0.000 C 
BRANCH  30  31
ATOM     31  C   UNL     1     -10.282  53.335  45.688  0.00  0.00    +0.000 C 
ATOM     32  C   UNL     1      -9.009  53.706  44.970  0.00  0.00    +0.000 C 
ATOM     33  C   UNL     1     -10.099  52.982  44.232  0.00  0.00    +0.000 C 
ENDBRANCH  30  31
ENDBRANCH  29  30
ENDBRANCH   5  29
TORSDOF 5
ENDMDL
MODEL 9
REMARK VINA RESULT:      -7.9      4.892      7.810
REMARK  Name = 338168
REMARK  5 active torsions:
REMARK  status: ('A' for Active; 'I' for Inactive)
REMARK    1  A    between atoms: C_6  and  C_10
REMARK    2  A    between atoms: C_14  and  O_18
REMARK    3  A    between atoms: N_17  and  C_21
REMARK    4  A    between atoms: C_21  and  C_24
REMARK    5  A    between atoms: C_24  and  C_27
REMARK                            x       y       z     vdW  Elec       q    Type
REMARK                         _______ _______ _______ _____ _____    ______ ____
ROOT
ATOM      1  C   UNL     1     -11.374  54.432  47.916  0.00  0.00    +0.000 A 
ATOM      2  C   UNL     1     -11.467  53.618  49.156  0.00  0.00    +0.000 A 
ATOM      3  C   UNL     1     -12.040  55.595  47.821  0.00  0.00    +0.000 A 
ATOM      4  O   UNL     1     -10.980  52.485  49.130  0.00  0.00    +0.000 OA
ATOM      5  N   UNL     1     -12.059  54.178  50.289  0.00  0.00    +0.000 N 
ATOM      6  C   UNL     1     -12.813  56.104  48.959  0.00  0.00    +0.000 A 
ATOM      7  C   UNL     1     -12.800  55.410  50.188  0.00  0.00    +0.000 A 
ATOM      8  C   UNL     1     -13.529  57.310  48.833  0.00  0.00    +0.000 A 
ATOM      9  C   UNL     1     -13.520  55.961  51.264  0.00  0.00    +0.000 A 
ATOM     10  C   UNL     1     -14.205  57.837  49.920  0.00  0.00    +0.000 A 
ATOM     11  C   UNL     1     -14.206  57.176  51.134  0.00  0.00    +0.000 A 
ATOM     12  F   UNL     1     -14.855  59.002  49.797  0.00  0.00    +0.000 F 
ENDROOT
BRANCH   1  18
ATOM     13  S   UNL     1      -8.160  54.204  45.565  0.00  0.00    +0.000 S 
ATOM     14  O   UNL     1      -7.286  53.456  46.435  0.00  0.00    +0.000 OA
ATOM     15  O   UNL     1      -7.690  55.317  44.770  0.00  0.00    +0.000 OA
ATOM     16  N   UNL     1      -9.429  54.760  46.464  0.00  0.00    +0.000 N 
ATOM     17  C   UNL     1      -8.953  53.074  44.501  0.00  0.00    +0.000 A 
ATOM     18  C   UNL     1     -10.545  53.982  46.757  0.00  0.00    +0.000 C 
ATOM     19  C   UNL     1     -10.203  52.594  44.883  0.00  0.00    +0.000 A 
ATOM     20  C   UNL     1      -8.347  52.705  43.297  0.00  0.00    +0.000 A 
ATOM     21  N   UNL     1     -10.869  52.931  46.070  0.00  0.00    +0.000 N 
ATOM     22  C   UNL     1     -10.859  51.726  44.007  0.00  0.00    +0.000 A 
ATOM     23  C   UNL     1      -9.013  51.829  42.444  0.00  0.00    +0.000 A 
ATOM     24  C   UNL     1     -10.274  51.346  42.794  0.00  0.00    +0.000 A 
ATOM     25  H   UNL     1      -9.395  55.683  46.806  0.00  0.00    +0.000 HD
ATOM     26  H   UNL     1     -11.601  52.357  46.388  0.00  0.00    +0.000 HD
ENDBRANCH   1  18
BRANCH   3  27
ATOM     27  O   UNL     1     -12.044  56.413  46.702  0.00  0.00    +0.000 OA
ATOM     28  H   UNL     1     -11.255  56.546  46.216  0.00  0.00    +0.000 HD
ENDBRANCH   3  27
BRANCH   5  29
ATOM     29  C   UNL     1     -12.097  53.390  51.544  0.00  0.00    +0.000 C 
BRANCH  29  30
ATOM     30  C   UNL     1     -10.824  53.415  52.410  0.00  0.00    +0.000 C 
BRANCH  30  31
ATOM     31  C   UNL     1     -10.283  54.799  52.627  0.00  0.00    +0.000 C 
ATOM     32  C   UNL     1      -9.049  55.325  51.941  0.00  0.00    +0.000 C 
ATOM     33  C   UNL     1      -8.992  54.950  53.394  0.00  0.00    +0.000 C 
ENDBRANCH  30  31
ENDBRANCH  29  30
ENDBRANCH   5  29
TORSDOF 5
ENDMDL
