MODEL 1
REMARK VINA RESULT:      -7.7      0.000      0.000
REMARK  Name = 300958
REMARK  6 active torsions:
REMARK  status: ('A' for Active; 'I' for Inactive)
REMARK    1  A    between atoms: C_6  and  C_10
REMARK    2  A    between atoms: C_14  and  O_18
REMARK    3  A    between atoms: N_17  and  C_21
REMARK    4  A    between atoms: C_21  and  C_24
REMARK    5  A    between atoms: C_24  and  C_27
REMARK    6  A    between atoms: C_27  and  C_28
REMARK                            x       y       z     vdW  Elec       q    Type
REMARK                         _______ _______ _______ _____ _____    ______ ____
ROOT
ATOM      1  C   UNL     1     -10.518  55.093  51.020  0.00  0.00    +0.000 A 
ATOM      2  C   UNL     1     -11.773  55.684  51.576  0.00  0.00    +0.000 A 
ATOM      3  C   UNL     1     -10.340  55.022  49.689  0.00  0.00    +0.000 A 
ATOM      4  O   UNL     1     -11.860  55.824  52.800  0.00  0.00    +0.000 OA
ATOM      5  N   UNL     1     -12.787  56.062  50.697  0.00  0.00    +0.000 N 
ATOM      6  C   UNL     1     -11.365  55.543  48.772  0.00  0.00    +0.000 A 
ATOM      7  C   UNL     1     -12.562  56.075  49.284  0.00  0.00    +0.000 A 
ATOM      8  C   UNL     1     -11.146  55.540  47.382  0.00  0.00    +0.000 A 
ATOM      9  C   UNL     1     -13.486  56.631  48.385  0.00  0.00    +0.000 A 
ATOM     10  C   UNL     1     -12.091  56.064  46.504  0.00  0.00    +0.000 A 
ATOM     11  C   UNL     1     -13.262  56.613  47.008  0.00  0.00    +0.000 A 
ENDROOT
BRANCH   1  17
ATOM     12  S   UNL     1      -7.059  54.936  52.889  0.00  0.00    +0.000 S 
ATOM     13  O   UNL     1      -6.940  55.931  53.935  0.00  0.00    +0.000 OA
ATOM     14  O   UNL     1      -5.938  54.654  52.014  0.00  0.00    +0.000 OA
ATOM     15  N   UNL     1      -8.325  55.345  51.960  0.00  0.00    +0.000 N 
ATOM     16  C   UNL     1      -7.431  53.422  53.696  0.00  0.00    +0.000 A 
ATOM     17  C   UNL     1      -9.423  54.650  51.976  0.00  0.00    +0.000 C 
ATOM     18  C   UNL     1      -8.705  52.900  53.536  0.00  0.00    +0.000 A 
ATOM     19  C   UNL     1      -6.454  52.775  54.457  0.00  0.00    +0.000 A 
ATOM     20  N   UNL     1      -9.670  53.555  52.776  0.00  0.00    +0.000 N 
ATOM     21  C   UNL     1      -9.027  51.728  54.229  0.00  0.00    +0.000 A 
ATOM     22  C   UNL     1      -6.777  51.587  55.109  0.00  0.00    +0.000 A 
ATOM     23  C   UNL     1      -8.068  51.070  55.004  0.00  0.00    +0.000 A 
ATOM     24  H   UNL     1      -8.260  56.133  51.376  0.00  0.00    +0.000 HD
ATOM     25  H   UNL     1     -10.592  53.213  52.812  0.00  0.00    +0.000 HD
ENDBRANCH   1  17
BRANCH   3  26
ATOM     26  O   UNL     1      -9.204  54.522  49.077  0.00  0.00    +0.000 OA
ATOM     27  H   UNL     1      -9.283  53.924  48.360  0.00  0.00    +0.000 HD
ENDBRANCH   3  26
BRANCH   5  28
ATOM     28  C   UNL     1     -14.032  56.583  51.276  0.00  0.00    +0.000 C 
BRANCH  28  29
ATOM     29  C   UNL     1     -14.029  58.067  51.671  0.00  0.00    +0.000 C 
BRANCH  29  30
ATOM     30  C   UNL     1     -14.968  58.955  50.858  0.00  0.00    +0.000 C 
ATOM     31  C   UNL     1     -14.157  59.906  49.984  0.00  0.00    +0.000 C 
ENDBRANCH  29  30
ENDBRANCH  28  29
ENDBRANCH   5  28
TORSDOF 5
ENDMDL
MODEL 2
REMARK VINA RESULT:      -7.7      4.020      7.602
REMARK  Name = 300958
REMARK  6 active torsions:
REMARK  status: ('A' for Active; 'I' for Inactive)
REMARK    1  A    between atoms: C_6  and  C_10
REMARK    2  A    between atoms: C_14  and  O_18
REMARK    3  A    between atoms: N_17  and  C_21
REMARK    4  A    between atoms: C_21  and  C_24
REMARK    5  A    between atoms: C_24  and  C_27
REMARK    6  A    between atoms: C_27  and  C_28
REMARK                            x       y       z     vdW  Elec       q    Type
REMARK                         _______ _______ _______ _____ _____    ______ ____
ROOT
ATOM      1  C   UNL     1     -12.521  54.268  49.632  0.00  0.00    +0.000 A 
ATOM      2  C   UNL     1     -11.972  54.222  48.242  0.00  0.00    +0.000 A 
ATOM      3  C   UNL     1     -12.250  53.272  50.493  0.00  0.00    +0.000 A 
ATOM      4  O   UNL     1     -12.158  55.200  47.510  0.00  0.00    +0.000 OA
ATOM      5  N   UNL     1     -11.267  53.093  47.832  0.00  0.00    +0.000 N 
ATOM      6  C   UNL     1     -11.396  52.146  50.086  0.00  0.00    +0.000 A 
ATOM      7  C   UNL     1     -10.898  52.080  48.773  0.00  0.00    +0.000 A 
ATOM      8  C   UNL     1     -11.049  51.143  51.011  0.00  0.00    +0.000 A 
ATOM      9  C   UNL     1     -10.027  51.030  48.438  0.00  0.00    +0.000 A 
ATOM     10  C   UNL     1     -10.211  50.091  50.649  0.00  0.00    +0.000 A 
ATOM     11  C   UNL     1      -9.698  50.037  49.362  0.00  0.00    +0.000 A 
ENDROOT
BRANCH   1  17
ATOM     12  S   UNL     1     -15.392  56.461  51.188  0.00  0.00    +0.000 S 
ATOM     13  O   UNL     1     -15.302  56.562  52.631  0.00  0.00    +0.000 OA
ATOM     14  O   UNL     1     -16.679  56.277  50.545  0.00  0.00    +0.000 OA
ATOM     15  N   UNL     1     -14.421  55.250  50.717  0.00  0.00    +0.000 N 
ATOM     16  C   UNL     1     -14.747  57.966  50.553  0.00  0.00    +0.000 A 
ATOM     17  C   UNL     1     -13.318  55.484  50.074  0.00  0.00    +0.000 C 
ATOM     18  C   UNL     1     -13.527  57.921  49.899  0.00  0.00    +0.000 A 
ATOM     19  C   UNL     1     -15.468  59.154  50.701  0.00  0.00    +0.000 A 
ATOM     20  N   UNL     1     -12.819  56.730  49.760  0.00  0.00    +0.000 N 
ATOM     21  C   UNL     1     -12.978  59.126  49.448  0.00  0.00    +0.000 A 
ATOM     22  C   UNL     1     -14.927  60.340  50.210  0.00  0.00    +0.000 A 
ATOM     23  C   UNL     1     -13.677  60.328  49.595  0.00  0.00    +0.000 A 
ATOM     24  H   UNL     1     -14.673  54.321  50.924  0.00  0.00    +0.000 HD
ATOM     25  H   UNL     1     -11.899  56.781  49.413  0.00  0.00    +0.000 HD
ENDBRANCH   1  17
BRANCH   3  26
ATOM     26  O   UNL     1     -12.683  53.234  51.807  0.00  0.00    +0.000 OA
ATOM     27  H   UNL     1     -13.093  52.462  52.144  0.00  0.00    +0.000 HD
ENDBRANCH   3  26
BRANCH   5  28
ATOM     28  C   UNL     1     -10.793  53.052  46.443  0.00  0.00    +0.000 C 
BRANCH  28  29
ATOM     29  C   UNL     1      -9.315  53.406  46.218  0.00  0.00    +0.000 C 
BRANCH  29  30
ATOM     30  C   UNL     1      -8.990  54.896  46.275  0.00  0.00    +0.000 C 
ATOM     31  C   UNL     1      -8.417  55.250  47.644  0.00  0.00    +0.000 C 
ENDBRANCH  29  30
ENDBRANCH  28  29
ENDBRANCH   5  28
TORSDOF 5
ENDMDL
MODEL 3
REMARK VINA RESULT:      -7.6      1.793      2.103
REMARK  Name = 300958
REMARK  6 active torsions:
REMARK  status: ('A' for Active; 'I' for Inactive)
REMARK    1  A    between atoms: C_6  and  C_10
REMARK    2  A    between atoms: C_14  and  O_18
REMARK    3  A    between atoms: N_17  and  C_21
REMARK    4  A    between atoms: C_21  and  C_24
REMARK    5  A    between atoms: C_24  and  C_27
REMARK    6  A    between atoms: C_27  and  C_28
REMARK                            x       y       z     vdW  Elec       q    Type
REMARK                         _______ _______ _______ _____ _____    ______ ____
ROOT
ATOM      1  C   UNL     1     -10.584  55.044  50.542  0.00  0.00    +0.000 A 
ATOM      2  C   UNL     1     -11.671  55.433  51.493  0.00  0.00    +0.000 A 
ATOM      3  C   UNL     1     -10.736  55.259  49.224  0.00  0.00    +0.000 A 
ATOM      4  O   UNL     1     -11.457  55.312  52.703  0.00  0.00    +0.000 OA
ATOM      5  N   UNL     1     -12.870  55.925  50.980  0.00  0.00    +0.000 N 
ATOM      6  C   UNL     1     -11.956  55.898  48.709  0.00  0.00    +0.000 A 
ATOM      7  C   UNL     1     -12.996  56.242  49.591  0.00  0.00    +0.000 A 
ATOM      8  C   UNL     1     -12.083  56.194  47.339  0.00  0.00    +0.000 A 
ATOM      9  C   UNL     1     -14.115  56.917  49.077  0.00  0.00    +0.000 A 
ATOM     10  C   UNL     1     -13.217  56.832  46.843  0.00  0.00    +0.000 A 
ATOM     11  C   UNL     1     -14.233  57.197  47.715  0.00  0.00    +0.000 A 
ENDROOT
BRANCH   1  17
ATOM     12  S   UNL     1      -7.472  52.687  51.031  0.00  0.00    +0.000 S 
ATOM     13  O   UNL     1      -6.421  52.936  50.065  0.00  0.00    +0.000 OA
ATOM     14  O   UNL     1      -7.823  51.329  51.399  0.00  0.00    +0.000 OA
ATOM     15  N   UNL     1      -8.817  53.423  50.499  0.00  0.00    +0.000 N 
ATOM     16  C   UNL     1      -6.964  53.471  52.517  0.00  0.00    +0.000 A 
ATOM     17  C   UNL     1      -9.287  54.477  51.094  0.00  0.00    +0.000 C 
ATOM     18  C   UNL     1      -7.658  54.600  52.922  0.00  0.00    +0.000 A 
ATOM     19  C   UNL     1      -5.902  52.946  53.258  0.00  0.00    +0.000 A 
ATOM     20  N   UNL     1      -8.713  55.114  52.174  0.00  0.00    +0.000 N 
ATOM     21  C   UNL     1      -7.216  55.266  54.071  0.00  0.00    +0.000 A 
ATOM     22  C   UNL     1      -5.499  53.597  54.422  0.00  0.00    +0.000 A 
ATOM     23  C   UNL     1      -6.149  54.764  54.821  0.00  0.00    +0.000 A 
ATOM     24  H   UNL     1      -9.284  53.064  49.711  0.00  0.00    +0.000 HD
ATOM     25  H   UNL     1      -9.075  55.992  52.434  0.00  0.00    +0.000 HD
ENDBRANCH   1  17
BRANCH   3  26
ATOM     26  O   UNL     1      -9.780  54.963  48.268  0.00  0.00    +0.000 OA
ATOM     27  H   UNL     1      -9.845  55.334  47.409  0.00  0.00    +0.000 HD
ENDBRANCH   3  26
BRANCH   5  28
ATOM     28  C   UNL     1     -13.939  56.243  51.936  0.00  0.00    +0.000 C 
BRANCH  28  29
ATOM     29  C   UNL     1     -13.797  57.566  52.702  0.00  0.00    +0.000 C 
BRANCH  29  30
ATOM     30  C   UNL     1     -15.044  58.445  52.713  0.00  0.00    +0.000 C 
ATOM     31  C   UNL     1     -15.029  59.382  51.509  0.00  0.00    +0.000 C 
ENDBRANCH  29  30
ENDBRANCH  28  29
ENDBRANCH   5  28
TORSDOF 5
ENDMDL
MODEL 4
REMARK VINA RESULT:      -7.6      2.196      7.941
REMARK  Name = 300958
REMARK  6 active torsions:
REMARK  status: ('A' for Active; 'I' for Inactive)
REMARK    1  A    between atoms: C_6  and  C_10
REMARK    2  A    between atoms: C_14  and  O_18
REMARK    3  A    between atoms: N_17  and  C_21
REMARK    4  A    between atoms: C_21  and  C_24
REMARK    5  A    between atoms: C_24  and  C_27
REMARK    6  A    between atoms: C_27  and  C_28
REMARK                            x       y       z     vdW  Elec       q    Type
REMARK                         _______ _______ _______ _____ _____    ______ ____
ROOT
ATOM      1  C   UNL     1     -10.138  54.442  52.238  0.00  0.00    +0.000 A 
ATOM      2  C   UNL     1      -8.735  54.958  52.226  0.00  0.00    +0.000 A 
ATOM      3  C   UNL     1     -10.438  53.329  52.929  0.00  0.00    +0.000 A 
ATOM      4  O   UNL     1      -8.514  56.036  51.665  0.00  0.00    +0.000 OA
ATOM      5  N   UNL     1      -7.738  54.214  52.855  0.00  0.00    +0.000 N 
ATOM      6  C   UNL     1      -9.400  52.624  53.694  0.00  0.00    +0.000 A 
ATOM      7  C   UNL     1      -8.071  53.084  53.667  0.00  0.00    +0.000 A 
ATOM      8  C   UNL     1      -9.729  51.503  54.479  0.00  0.00    +0.000 A 
ATOM      9  C   UNL     1      -7.119  52.433  54.468  0.00  0.00    +0.000 A 
ATOM     10  C   UNL     1      -8.762  50.848  55.239  0.00  0.00    +0.000 A 
ATOM     11  C   UNL     1      -7.456  51.317  55.235  0.00  0.00    +0.000 A 
ENDROOT
BRANCH   1  17
ATOM     12  S   UNL     1     -13.465  56.445  51.607  0.00  0.00    +0.000 S 
ATOM     13  O   UNL     1     -13.383  57.823  52.046  0.00  0.00    +0.000 OA
ATOM     14  O   UNL     1     -14.666  55.668  51.849  0.00  0.00    +0.000 OA
ATOM     15  N   UNL     1     -12.214  55.644  52.259  0.00  0.00    +0.000 N 
ATOM     16  C   UNL     1     -13.255  56.475  49.864  0.00  0.00    +0.000 A 
ATOM     17  C   UNL     1     -11.223  55.233  51.527  0.00  0.00    +0.000 C 
ATOM     18  C   UNL     1     -12.076  55.961  49.346  0.00  0.00    +0.000 A 
ATOM     19  C   UNL     1     -14.263  56.991  49.045  0.00  0.00    +0.000 A 
ATOM     20  N   UNL     1     -11.079  55.452  50.173  0.00  0.00    +0.000 N 
ATOM     21  C   UNL     1     -11.876  56.042  47.964  0.00  0.00    +0.000 A 
ATOM     22  C   UNL     1     -14.066  57.027  47.667  0.00  0.00    +0.000 A 
ATOM     23  C   UNL     1     -12.867  56.564  47.128  0.00  0.00    +0.000 A 
ATOM     24  H   UNL     1     -12.206  55.466  53.227  0.00  0.00    +0.000 HD
ATOM     25  H   UNL     1     -10.211  55.231  49.763  0.00  0.00    +0.000 HD
ENDBRANCH   1  17
BRANCH   3  26
ATOM     26  O   UNL     1     -11.708  52.788  53.027  0.00  0.00    +0.000 OA
ATOM     27  H   UNL     1     -12.432  53.211  52.608  0.00  0.00    +0.000 HD
ENDBRANCH   3  26
BRANCH   5  28
ATOM     28  C   UNL     1      -6.360  54.717  52.775  0.00  0.00    +0.000 C 
BRANCH  28  29
ATOM     29  C   UNL     1      -5.529  54.236  51.577  0.00  0.00    +0.000 C 
BRANCH  29  30
ATOM     30  C   UNL     1      -4.076  53.892  51.893  0.00  0.00    +0.000 C 
ATOM     31  C   UNL     1      -3.847  53.940  53.401  0.00  0.00    +0.000 C 
ENDBRANCH  29  30
ENDBRANCH  28  29
ENDBRANCH   5  28
TORSDOF 5
ENDMDL
MODEL 5
REMARK VINA RESULT:      -7.6      2.892      7.149
REMARK  Name = 300958
REMARK  6 active torsions:
REMARK  status: ('A' for Active; 'I' for Inactive)
REMARK    1  A    between atoms: C_6  and  C_10
REMARK    2  A    between atoms: C_14  and  O_18
REMARK    3  A    between atoms: N_17  and  C_21
REMARK    4  A    between atoms: C_21  and  C_24
REMARK    5  A    between atoms: C_24  and  C_27
REMARK    6  A    between atoms: C_27  and  C_28
REMARK                            x       y       z     vdW  Elec       q    Type
REMARK                         _______ _______ _______ _____ _____    ______ ____
ROOT
ATOM      1  C   UNL     1     -11.596  54.059  51.160  0.00  0.00    +0.000 A 
ATOM      2  C   UNL     1     -10.681  54.065  52.342  0.00  0.00    +0.000 A 
ATOM      3  C   UNL     1     -11.685  52.963  50.386  0.00  0.00    +0.000 A 
ATOM      4  O   UNL     1     -10.698  55.051  53.087  0.00  0.00    +0.000 OA
ATOM      5  N   UNL     1      -9.857  52.963  52.563  0.00  0.00    +0.000 N 
ATOM      6  C   UNL     1     -10.904  51.759  50.706  0.00  0.00    +0.000 A 
ATOM      7  C   UNL     1     -10.019  51.765  51.799  0.00  0.00    +0.000 A 
ATOM      8  C   UNL     1     -11.055  50.586  49.942  0.00  0.00    +0.000 A 
ATOM      9  C   UNL     1      -9.345  50.576  52.121  0.00  0.00    +0.000 A 
ATOM     10  C   UNL     1     -10.350  49.428  50.257  0.00  0.00    +0.000 A 
ATOM     11  C   UNL     1      -9.496  49.423  51.350  0.00  0.00    +0.000 A 
ENDROOT
BRANCH   1  17
ATOM     12  S   UNL     1     -13.304  57.071  49.294  0.00  0.00    +0.000 S 
ATOM     13  O   UNL     1     -14.410  56.657  48.453  0.00  0.00    +0.000 OA
ATOM     14  O   UNL     1     -12.366  58.075  48.830  0.00  0.00    +0.000 OA
ATOM     15  N   UNL     1     -12.459  55.743  49.687  0.00  0.00    +0.000 N 
ATOM     16  C   UNL     1     -14.023  57.723  50.757  0.00  0.00    +0.000 A 
ATOM     17  C   UNL     1     -12.473  55.271  50.897  0.00  0.00    +0.000 C 
ATOM     18  C   UNL     1     -13.881  56.995  51.927  0.00  0.00    +0.000 A 
ATOM     19  C   UNL     1     -14.697  58.947  50.721  0.00  0.00    +0.000 A 
ATOM     20  N   UNL     1     -13.208  55.777  51.948  0.00  0.00    +0.000 N 
ATOM     21  C   UNL     1     -14.506  57.477  53.082  0.00  0.00    +0.000 A 
ATOM     22  C   UNL     1     -15.280  59.435  51.888  0.00  0.00    +0.000 A 
ATOM     23  C   UNL     1     -15.194  58.694  53.066  0.00  0.00    +0.000 A 
ATOM     24  H   UNL     1     -11.927  55.287  48.996  0.00  0.00    +0.000 HD
ATOM     25  H   UNL     1     -13.259  55.238  52.772  0.00  0.00    +0.000 HD
ENDBRANCH   1  17
BRANCH   3  26
ATOM     26  O   UNL     1     -12.522  52.845  49.291  0.00  0.00    +0.000 OA
ATOM     27  H   UNL     1     -12.187  52.524  48.476  0.00  0.00    +0.000 HD
ENDBRANCH   3  26
BRANCH   5  28
ATOM     28  C   UNL     1      -8.926  53.025  53.698  0.00  0.00    +0.000 C 
BRANCH  28  29
ATOM     29  C   UNL     1      -7.531  53.595  53.403  0.00  0.00    +0.000 C 
BRANCH  29  30
ATOM     30  C   UNL     1      -7.196  54.894  54.130  0.00  0.00    +0.000 C 
ATOM     31  C   UNL     1      -7.210  56.059  53.145  0.00  0.00    +0.000 C 
ENDBRANCH  29  30
ENDBRANCH  28  29
ENDBRANCH   5  28
TORSDOF 5
ENDMDL
MODEL 6
REMARK VINA RESULT:      -7.5      1.289      3.555
REMARK  Name = 300958
REMARK  6 active torsions:
REMARK  status: ('A' for Active; 'I' for Inactive)
REMARK    1  A    between atoms: C_6  and  C_10
REMARK    2  A    between atoms: C_14  and  O_18
REMARK    3  A    between atoms: N_17  and  C_21
REMARK    4  A    between atoms: C_21  and  C_24
REMARK    5  A    between atoms: C_24  and  C_27
REMARK    6  A    between atoms: C_27  and  C_28
REMARK                            x       y       z     vdW  Elec       q    Type
REMARK                         _______ _______ _______ _____ _____    ______ ____
ROOT
ATOM      1  C   UNL     1     -10.129  55.151  50.687  0.00  0.00    +0.000 A 
ATOM      2  C   UNL     1      -9.723  55.000  49.257  0.00  0.00    +0.000 A 
ATOM      3  C   UNL     1     -11.321  55.692  50.994  0.00  0.00    +0.000 A 
ATOM      4  O   UNL     1      -8.667  54.410  49.009  0.00  0.00    +0.000 OA
ATOM      5  N   UNL     1     -10.552  55.518  48.263  0.00  0.00    +0.000 N 
ATOM      6  C   UNL     1     -12.242  56.117  49.930  0.00  0.00    +0.000 A 
ATOM      7  C   UNL     1     -11.858  56.007  48.581  0.00  0.00    +0.000 A 
ATOM      8  C   UNL     1     -13.521  56.612  50.248  0.00  0.00    +0.000 A 
ATOM      9  C   UNL     1     -12.789  56.353  47.589  0.00  0.00    +0.000 A 
ATOM     10  C   UNL     1     -14.417  56.984  49.250  0.00  0.00    +0.000 A 
ATOM     11  C   UNL     1     -14.051  56.851  47.918  0.00  0.00    +0.000 A 
ENDROOT
BRANCH   1  17
ATOM     12  S   UNL     1      -6.973  54.687  52.990  0.00  0.00    +0.000 S 
ATOM     13  O   UNL     1      -6.898  55.676  54.046  0.00  0.00    +0.000 OA
ATOM     14  O   UNL     1      -5.779  54.293  52.268  0.00  0.00    +0.000 OA
ATOM     15  N   UNL     1      -8.063  55.204  51.906  0.00  0.00    +0.000 N 
ATOM     16  C   UNL     1      -7.588  53.222  53.738  0.00  0.00    +0.000 A 
ATOM     17  C   UNL     1      -9.214  54.616  51.776  0.00  0.00    +0.000 C 
ATOM     18  C   UNL     1      -8.873  52.820  53.411  0.00  0.00    +0.000 A 
ATOM     19  C   UNL     1      -6.783  52.494  54.618  0.00  0.00    +0.000 A 
ATOM     20  N   UNL     1      -9.665  53.556  52.535  0.00  0.00    +0.000 N 
ATOM     21  C   UNL     1      -9.392  51.690  54.053  0.00  0.00    +0.000 A 
ATOM     22  C   UNL     1      -7.298  51.347  55.218  0.00  0.00    +0.000 A 
ATOM     23  C   UNL     1      -8.607  50.953  54.945  0.00  0.00    +0.000 A 
ATOM     24  H   UNL     1      -7.849  55.978  51.337  0.00  0.00    +0.000 HD
ATOM     25  H   UNL     1     -10.613  53.302  52.449  0.00  0.00    +0.000 HD
ENDBRANCH   1  17
BRANCH   3  26
ATOM     26  O   UNL     1     -11.802  55.847  52.283  0.00  0.00    +0.000 OA
ATOM     27  H   UNL     1     -11.366  56.423  52.879  0.00  0.00    +0.000 HD
ENDBRANCH   3  26
BRANCH   5  28
ATOM     28  C   UNL     1     -10.097  55.408  46.871  0.00  0.00    +0.000 C 
BRANCH  28  29
ATOM     29  C   UNL     1     -10.283  54.039  46.200  0.00  0.00    +0.000 C 
BRANCH  29  30
ATOM     30  C   UNL     1     -11.440  53.956  45.208  0.00  0.00    +0.000 C 
ATOM     31  C   UNL     1     -12.029  52.548  45.213  0.00  0.00    +0.000 C 
ENDBRANCH  29  30
ENDBRANCH  28  29
ENDBRANCH   5  28
TORSDOF 5
ENDMDL
MODEL 7
REMARK VINA RESULT:      -7.4      3.572      7.251
REMARK  Name = 300958
REMARK  6 active torsions:
REMARK  status: ('A' for Active; 'I' for Inactive)
REMARK    1  A    between atoms: C_6  and  C_10
REMARK    2  A    between atoms: C_14  and  O_18
REMARK    3  A    between atoms: N_17  and  C_21
REMARK    4  A    between atoms: C_21  and  C_24
REMARK    5  A    between atoms: C_24  and  C_27
REMARK    6  A    between atoms: C_27  and  C_28
REMARK                            x       y       z     vdW  Elec       q    Type
REMARK                         _______ _______ _______ _____ _____    ______ ____
ROOT
ATOM      1  C   UNL     1     -11.424  55.830  48.928  0.00  0.00    +0.000 A 
ATOM      2  C   UNL     1     -11.555  55.422  47.496  0.00  0.00    +0.000 A 
ATOM      3  C   UNL     1     -10.400  55.368  49.666  0.00  0.00    +0.000 A 
ATOM      4  O   UNL     1     -12.450  55.942  46.821  0.00  0.00    +0.000 OA
ATOM      5  N   UNL     1     -10.663  54.485  46.977  0.00  0.00    +0.000 N 
ATOM      6  C   UNL     1      -9.391  54.480  49.069  0.00  0.00    +0.000 A 
ATOM      7  C   UNL     1      -9.521  54.067  47.731  0.00  0.00    +0.000 A 
ATOM      8  C   UNL     1      -8.277  54.058  49.819  0.00  0.00    +0.000 A 
ATOM      9  C   UNL     1      -8.503  53.280  47.170  0.00  0.00    +0.000 A 
ATOM     10  C   UNL     1      -7.296  53.248  49.255  0.00  0.00    +0.000 A 
ATOM     11  C   UNL     1      -7.408  52.861  47.928  0.00  0.00    +0.000 A 
ENDROOT
BRANCH   1  17
ATOM     12  S   UNL     1     -13.502  59.131  49.437  0.00  0.00    +0.000 S 
ATOM     13  O   UNL     1     -14.628  59.231  48.530  0.00  0.00    +0.000 OA
ATOM     14  O   UNL     1     -12.685  60.295  49.723  0.00  0.00    +0.000 OA
ATOM     15  N   UNL     1     -12.526  57.960  48.883  0.00  0.00    +0.000 N 
ATOM     16  C   UNL     1     -14.163  58.617  50.980  0.00  0.00    +0.000 A 
ATOM     17  C   UNL     1     -12.414  56.827  49.507  0.00  0.00    +0.000 C 
ATOM     18  C   UNL     1     -13.878  57.330  51.408  0.00  0.00    +0.000 A 
ATOM     19  C   UNL     1     -14.936  59.499  51.740  0.00  0.00    +0.000 A 
ATOM     20  N   UNL     1     -13.109  56.461  50.640  0.00  0.00    +0.000 N 
ATOM     21  C   UNL     1     -14.455  56.893  52.606  0.00  0.00    +0.000 A 
ATOM     22  C   UNL     1     -15.470  59.063  52.950  0.00  0.00    +0.000 A 
ATOM     23  C   UNL     1     -15.239  57.756  53.377  0.00  0.00    +0.000 A 
ATOM     24  H   UNL     1     -12.010  58.111  48.059  0.00  0.00    +0.000 HD
ATOM     25  H   UNL     1     -13.056  55.520  50.926  0.00  0.00    +0.000 HD
ENDBRANCH   1  17
BRANCH   3  26
ATOM     26  O   UNL     1     -10.172  55.708  50.988  0.00  0.00    +0.000 OA
ATOM     27  H   UNL     1     -10.505  55.166  51.676  0.00  0.00    +0.000 HD
ENDBRANCH   3  26
BRANCH   5  28
ATOM     28  C   UNL     1     -10.855  54.060  45.584  0.00  0.00    +0.000 C 
BRANCH  28  29
ATOM     29  C   UNL     1     -11.707  52.800  45.369  0.00  0.00    +0.000 C 
BRANCH  29  30
ATOM     30  C   UNL     1     -11.174  51.831  44.317  0.00  0.00    +0.000 C 
ATOM     31  C   UNL     1      -9.840  52.335  43.775  0.00  0.00    +0.000 C 
ENDBRANCH  29  30
ENDBRANCH  28  29
ENDBRANCH   5  28
TORSDOF 5
ENDMDL
MODEL 8
REMARK VINA RESULT:      -7.4      3.211      7.227
REMARK  Name = 300958
REMARK  6 active torsions:
REMARK  status: ('A' for Active; 'I' for Inactive)
REMARK    1  A    between atoms: C_6  and  C_10
REMARK    2  A    between atoms: C_14  and  O_18
REMARK    3  A    between atoms: N_17  and  C_21
REMARK    4  A    between atoms: C_21  and  C_24
REMARK    5  A    between atoms: C_24  and  C_27
REMARK    6  A    between atoms: C_27  and  C_28
REMARK                            x       y       z     vdW  Elec       q    Type
REMARK                         _______ _______ _______ _____ _____    ______ ____
ROOT
ATOM      1  C   UNL     1     -10.992  55.356  48.439  0.00  0.00    +0.000 A 
ATOM      2  C   UNL     1      -9.691  54.873  48.994  0.00  0.00    +0.000 A 
ATOM      3  C   UNL     1     -11.342  55.043  47.179  0.00  0.00    +0.000 A 
ATOM      4  O   UNL     1      -9.447  55.095  50.185  0.00  0.00    +0.000 OA
ATOM      5  N   UNL     1      -8.814  54.185  48.157  0.00  0.00    +0.000 N 
ATOM      6  C   UNL     1     -10.463  54.207  46.347  0.00  0.00    +0.000 A 
ATOM      7  C   UNL     1      -9.224  53.771  46.850  0.00  0.00    +0.000 A 
ATOM      8  C   UNL     1     -10.864  53.815  45.056  0.00  0.00    +0.000 A 
ATOM      9  C   UNL     1      -8.443  52.914  46.058  0.00  0.00    +0.000 A 
ATOM     10  C   UNL     1     -10.058  52.994  44.272  0.00  0.00    +0.000 A 
ATOM     11  C   UNL     1      -8.848  52.540  44.776  0.00  0.00    +0.000 A 
ENDROOT
BRANCH   1  17
ATOM     12  S   UNL     1     -13.451  56.208  51.389  0.00  0.00    +0.000 S 
ATOM     13  O   UNL     1     -12.761  56.497  52.630  0.00  0.00    +0.000 OA
ATOM     14  O   UNL     1     -14.658  55.403  51.391  0.00  0.00    +0.000 OA
ATOM     15  N   UNL     1     -12.387  55.508  50.384  0.00  0.00    +0.000 N 
ATOM     16  C   UNL     1     -13.911  57.762  50.713  0.00  0.00    +0.000 A 
ATOM     17  C   UNL     1     -11.937  56.134  49.339  0.00  0.00    +0.000 C 
ATOM     18  C   UNL     1     -13.253  58.190  49.571  0.00  0.00    +0.000 A 
ATOM     19  C   UNL     1     -14.921  58.516  51.316  0.00  0.00    +0.000 A 
ATOM     20  N   UNL     1     -12.248  57.429  48.982  0.00  0.00    +0.000 N 
ATOM     21  C   UNL     1     -13.570  59.456  49.066  0.00  0.00    +0.000 A 
ATOM     22  C   UNL     1     -15.255  59.757  50.777  0.00  0.00    +0.000 A 
ATOM     23  C   UNL     1     -14.570  60.231  49.659  0.00  0.00    +0.000 A 
ATOM     24  H   UNL     1     -12.076  54.593  50.570  0.00  0.00    +0.000 HD
ATOM     25  H   UNL     1     -11.721  57.844  48.260  0.00  0.00    +0.000 HD
ENDBRANCH   1  17
BRANCH   3  26
ATOM     26  O   UNL     1     -12.534  55.415  46.583  0.00  0.00    +0.000 OA
ATOM     27  H   UNL     1     -12.534  56.037  45.881  0.00  0.00    +0.000 HD
ENDBRANCH   3  26
BRANCH   5  28
ATOM     28  C   UNL     1      -7.519  53.776  48.715  0.00  0.00    +0.000 C 
BRANCH  28  29
ATOM     29  C   UNL     1      -6.324  54.689  48.403  0.00  0.00    +0.000 C 
BRANCH  29  30
ATOM     30  C   UNL     1      -5.641  55.301  49.623  0.00  0.00    +0.000 C 
ATOM     31  C   UNL     1      -5.870  54.417  50.845  0.00  0.00    +0.000 C 
ENDBRANCH  29  30
ENDBRANCH  28  29
ENDBRANCH   5  28
TORSDOF 5
ENDMDL
MODEL 9
REMARK VINA RESULT:      -7.3      1.602      2.197
REMARK  Name = 300958
REMARK  6 active torsions:
REMARK  status: ('A' for Active; 'I' for Inactive)
REMARK    1  A    between atoms: C_6  and  C_10
REMARK    2  A    between atoms: C_14  and  O_18
REMARK    3  A    between atoms: N_17  and  C_21
REMARK    4  A    between atoms: C_21  and  C_24
REMARK    5  A    between atoms: C_24  and  C_27
REMARK    6  A    between atoms: C_27  and  C_28
REMARK                            x       y       z     vdW  Elec       q    Type
REMARK                         _______ _______ _______ _____ _____    ______ ____
ROOT
ATOM      1  C   UNL     1     -10.938  54.998  50.827  0.00  0.00    +0.000 A 
ATOM      2  C   UNL     1     -12.054  55.740  51.490  0.00  0.00    +0.000 A 
ATOM      3  C   UNL     1     -10.857  54.966  49.486  0.00  0.00    +0.000 A 
ATOM      4  O   UNL     1     -12.041  55.833  52.722  0.00  0.00    +0.000 OA
ATOM      5  N   UNL     1     -13.052  56.304  50.699  0.00  0.00    +0.000 N 
ATOM      6  C   UNL     1     -11.848  55.675  48.662  0.00  0.00    +0.000 A 
ATOM      7  C   UNL     1     -12.918  56.351  49.275  0.00  0.00    +0.000 A 
ATOM      8  C   UNL     1     -11.720  55.705  47.261  0.00  0.00    +0.000 A 
ATOM      9  C   UNL     1     -13.803  57.079  48.464  0.00  0.00    +0.000 A 
ATOM     10  C   UNL     1     -12.630  56.403  46.471  0.00  0.00    +0.000 A 
ATOM     11  C   UNL     1     -13.671  57.094  47.075  0.00  0.00    +0.000 A 
ENDROOT
BRANCH   1  17
ATOM     12  S   UNL     1      -9.019  52.337  52.998  0.00  0.00    +0.000 S 
ATOM     13  O   UNL     1      -8.326  51.351  52.195  0.00  0.00    +0.000 OA
ATOM     14  O   UNL     1      -9.736  51.937  54.195  0.00  0.00    +0.000 OA
ATOM     15  N   UNL     1     -10.062  53.117  52.031  0.00  0.00    +0.000 N 
ATOM     16  C   UNL     1      -7.797  53.479  53.531  0.00  0.00    +0.000 A 
ATOM     17  C   UNL     1      -9.864  54.354  51.687  0.00  0.00    +0.000 C 
ATOM     18  C   UNL     1      -7.823  54.754  52.987  0.00  0.00    +0.000 A 
ATOM     19  C   UNL     1      -6.848  53.098  54.483  0.00  0.00    +0.000 A 
ATOM     20  N   UNL     1      -8.773  55.121  52.038  0.00  0.00    +0.000 N 
ATOM     21  C   UNL     1      -6.813  55.648  53.359  0.00  0.00    +0.000 A 
ATOM     22  C   UNL     1      -5.873  54.012  54.874  0.00  0.00    +0.000 A 
ATOM     23  C   UNL     1      -5.848  55.283  54.302  0.00  0.00    +0.000 A 
ATOM     24  H   UNL     1     -10.858  52.645  51.698  0.00  0.00    +0.000 HD
ATOM     25  H   UNL     1      -8.658  55.988  51.586  0.00  0.00    +0.000 HD
ENDBRANCH   1  17
BRANCH   3  26
ATOM     26  O   UNL     1      -9.850  54.334  48.778  0.00  0.00    +0.000 OA
ATOM     27  H   UNL     1      -9.994  54.071  47.890  0.00  0.00    +0.000 HD
ENDBRANCH   3  26
BRANCH   5  28
ATOM     28  C   UNL     1     -14.166  56.974  51.382  0.00  0.00    +0.000 C 
BRANCH  28  29
ATOM     29  C   UNL     1     -14.005  58.481  51.631  0.00  0.00    +0.000 C 
BRANCH  29  30
ATOM     30  C   UNL     1     -15.070  59.362  50.984  0.00  0.00    +0.000 C 
ATOM     31  C   UNL     1     -14.446  60.202  49.874  0.00  0.00    +0.000 C 
ENDBRANCH  29  30
ENDBRANCH  28  29
ENDBRANCH   5  28
TORSDOF 5
ENDMDL
