MODEL 1
REMARK VINA RESULT:      -8.4      0.000      0.000
REMARK  Name = 338321
REMARK  4 active torsions:
REMARK  status: ('A' for Active; 'I' for Inactive)
REMARK    1  A    between atoms: C_6  and  C_10
REMARK    2  A    between atoms: C_14  and  O_18
REMARK    3  A    between atoms: N_17  and  C_21
REMARK    4  A    between atoms: C_21  and  C_24
REMARK                            x       y       z     vdW  Elec       q    Type
REMARK                         _______ _______ _______ _____ _____    ______ ____
ROOT
ATOM      1  C   UNL     1     -10.166  54.408  52.194  0.00  0.00    +0.000 A 
ATOM      2  C   UNL     1      -8.790  54.953  52.022  0.00  0.00    +0.000 A 
ATOM      3  C   UNL     1     -10.363  53.330  52.967  0.00  0.00    +0.000 A 
ATOM      4  O   UNL     1      -8.666  56.072  51.509  0.00  0.00    +0.000 OA
ATOM      5  N   UNL     1      -7.705  54.205  52.452  0.00  0.00    +0.000 N 
ATOM      6  C   UNL     1      -9.218  52.672  53.620  0.00  0.00    +0.000 A 
ATOM      7  C   UNL     1      -7.901  53.082  53.317  0.00  0.00    +0.000 A 
ATOM      8  C   UNL     1      -9.426  51.641  54.553  0.00  0.00    +0.000 A 
ATOM      9  C   UNL     1      -6.829  52.419  53.934  0.00  0.00    +0.000 A 
ATOM     10  C   UNL     1      -8.351  51.028  55.192  0.00  0.00    +0.000 A 
ATOM     11  C   UNL     1      -7.054  51.416  54.880  0.00  0.00    +0.000 A 
ENDROOT
BRANCH   1  17
ATOM     12  S   UNL     1     -12.465  56.065  49.471  0.00  0.00    +0.000 S 
ATOM     13  O   UNL     1     -13.393  55.158  48.825  0.00  0.00    +0.000 OA
ATOM     14  O   UNL     1     -11.765  57.071  48.697  0.00  0.00    +0.000 OA
ATOM     15  N   UNL     1     -11.356  55.173  50.251  0.00  0.00    +0.000 N 
ATOM     16  C   UNL     1     -13.410  56.956  50.662  0.00  0.00    +0.000 A 
ATOM     17  C   UNL     1     -11.314  55.156  51.549  0.00  0.00    +0.000 C 
ATOM     18  C   UNL     1     -13.147  56.719  51.998  0.00  0.00    +0.000 A 
ATOM     19  C   UNL     1     -14.373  57.886  50.259  0.00  0.00    +0.000 A 
ATOM     20  N   UNL     1     -12.203  55.779  52.394  0.00  0.00    +0.000 N 
ATOM     21  C   UNL     1     -13.914  57.385  52.960  0.00  0.00    +0.000 A 
ATOM     22  C   UNL     1     -15.109  58.568  51.226  0.00  0.00    +0.000 A 
ATOM     23  C   UNL     1     -14.883  58.310  52.579  0.00  0.00    +0.000 A 
ATOM     24  H   UNL     1     -10.709  54.638  49.735  0.00  0.00    +0.000 HD
ATOM     25  H   UNL     1     -12.169  55.541  53.349  0.00  0.00    +0.000 HD
ENDBRANCH   1  17
BRANCH   3  26
ATOM     26  O   UNL     1     -11.604  52.780  53.240  0.00  0.00    +0.000 OA
ATOM     27  H   UNL     1     -11.672  51.881  53.493  0.00  0.00    +0.000 HD
ENDBRANCH   3  26
BRANCH   5  28
ATOM     28  C   UNL     1      -6.371  54.742  52.155  0.00  0.00    +0.000 C 
BRANCH  28  29
ATOM     29  C   UNL     1      -5.732  54.211  50.860  0.00  0.00    +0.000 C 
ATOM     30  C   UNL     1      -5.795  55.267  49.765  0.00  0.00    +0.000 C 
ATOM     31  C   UNL     1      -6.412  53.008  50.226  0.00  0.00    +0.000 C 
ATOM     32  O   UNL     1      -5.944  54.603  48.513  0.00  0.00    +0.000 OA
ATOM     33  C   UNL     1      -6.432  53.282  48.736  0.00  0.00    +0.000 C 
ENDBRANCH  28  29
ENDBRANCH   5  28
TORSDOF 4
ENDMDL
MODEL 2
REMARK VINA RESULT:      -8.4      3.161      6.940
REMARK  Name = 338321
REMARK  4 active torsions:
REMARK  status: ('A' for Active; 'I' for Inactive)
REMARK    1  A    between atoms: C_6  and  C_10
REMARK    2  A    between atoms: C_14  and  O_18
REMARK    3  A    between atoms: N_17  and  C_21
REMARK    4  A    between atoms: C_21  and  C_24
REMARK                            x       y       z     vdW  Elec       q    Type
REMARK                         _______ _______ _______ _____ _____    ______ ____
ROOT
ATOM      1  C   UNL     1     -10.297  55.176  50.877  0.00  0.00    +0.000 A 
ATOM      2  C   UNL     1      -9.915  55.022  49.444  0.00  0.00    +0.000 A 
ATOM      3  C   UNL     1     -11.504  55.667  51.195  0.00  0.00    +0.000 A 
ATOM      4  O   UNL     1      -8.909  54.353  49.178  0.00  0.00    +0.000 OA
ATOM      5  N   UNL     1     -10.699  55.613  48.467  0.00  0.00    +0.000 N 
ATOM      6  C   UNL     1     -12.435  56.077  50.131  0.00  0.00    +0.000 A 
ATOM      7  C   UNL     1     -12.008  56.095  48.785  0.00  0.00    +0.000 A 
ATOM      8  C   UNL     1     -13.756  56.446  50.444  0.00  0.00    +0.000 A 
ATOM      9  C   UNL     1     -12.910  56.517  47.796  0.00  0.00    +0.000 A 
ATOM     10  C   UNL     1     -14.652  56.815  49.443  0.00  0.00    +0.000 A 
ATOM     11  C   UNL     1     -14.227  56.853  48.121  0.00  0.00    +0.000 A 
ENDROOT
BRANCH   1  17
ATOM     12  S   UNL     1      -7.026  54.751  53.014  0.00  0.00    +0.000 S 
ATOM     13  O   UNL     1      -6.869  55.717  54.084  0.00  0.00    +0.000 OA
ATOM     14  O   UNL     1      -5.886  54.362  52.206  0.00  0.00    +0.000 OA
ATOM     15  N   UNL     1      -8.184  55.296  52.016  0.00  0.00    +0.000 N 
ATOM     16  C   UNL     1      -7.593  53.269  53.779  0.00  0.00    +0.000 A 
ATOM     17  C   UNL     1      -9.325  54.684  51.929  0.00  0.00    +0.000 C 
ATOM     18  C   UNL     1      -8.884  52.859  53.504  0.00  0.00    +0.000 A 
ATOM     19  C   UNL     1      -6.751  52.528  54.614  0.00  0.00    +0.000 A 
ATOM     20  N   UNL     1      -9.725  53.609  52.690  0.00  0.00    +0.000 N 
ATOM     21  C   UNL     1      -9.369  51.707  54.134  0.00  0.00    +0.000 A 
ATOM     22  C   UNL     1      -7.235  51.365  55.210  0.00  0.00    +0.000 A 
ATOM     23  C   UNL     1      -8.549  50.960  54.975  0.00  0.00    +0.000 A 
ATOM     24  H   UNL     1      -8.019  56.100  51.470  0.00  0.00    +0.000 HD
ATOM     25  H   UNL     1     -10.675  53.353  52.656  0.00  0.00    +0.000 HD
ENDBRANCH   1  17
BRANCH   3  26
ATOM     26  O   UNL     1     -11.979  55.795  52.489  0.00  0.00    +0.000 OA
ATOM     27  H   UNL     1     -11.690  56.506  53.026  0.00  0.00    +0.000 HD
ENDBRANCH   3  26
BRANCH   5  28
ATOM     28  C   UNL     1     -10.213  55.522  47.084  0.00  0.00    +0.000 C 
BRANCH  28  29
ATOM     29  C   UNL     1     -10.368  54.137  46.432  0.00  0.00    +0.000 C 
ATOM     30  C   UNL     1      -9.178  53.840  45.529  0.00  0.00    +0.000 C 
ATOM     31  C   UNL     1     -11.562  53.965  45.508  0.00  0.00    +0.000 C 
ATOM     32  O   UNL     1      -9.636  53.049  44.435  0.00  0.00    +0.000 OA
ATOM     33  C   UNL     1     -11.049  53.194  44.308  0.00  0.00    +0.000 C 
ENDBRANCH  28  29
ENDBRANCH   5  28
TORSDOF 4
ENDMDL
MODEL 3
REMARK VINA RESULT:      -8.3      2.714      7.827
REMARK  Name = 338321
REMARK  4 active torsions:
REMARK  status: ('A' for Active; 'I' for Inactive)
REMARK    1  A    between atoms: C_6  and  C_10
REMARK    2  A    between atoms: C_14  and  O_18
REMARK    3  A    between atoms: N_17  and  C_21
REMARK    4  A    between atoms: C_21  and  C_24
REMARK                            x       y       z     vdW  Elec       q    Type
REMARK                         _______ _______ _______ _____ _____    ______ ____
ROOT
ATOM      1  C   UNL     1     -10.042  54.725  51.060  0.00  0.00    +0.000 A 
ATOM      2  C   UNL     1     -11.343  55.294  51.515  0.00  0.00    +0.000 A 
ATOM      3  C   UNL     1      -9.758  54.678  49.750  0.00  0.00    +0.000 A 
ATOM      4  O   UNL     1     -11.480  55.546  52.719  0.00  0.00    +0.000 OA
ATOM      5  N   UNL     1     -12.340  55.536  50.584  0.00  0.00    +0.000 N 
ATOM      6  C   UNL     1     -10.740  55.162  48.766  0.00  0.00    +0.000 A 
ATOM      7  C   UNL     1     -12.036  55.536  49.186  0.00  0.00    +0.000 A 
ATOM      8  C   UNL     1     -10.396  55.263  47.406  0.00  0.00    +0.000 A 
ATOM      9  C   UNL     1     -12.960  55.967  48.221  0.00  0.00    +0.000 A 
ATOM     10  C   UNL     1     -11.311  55.739  46.470  0.00  0.00    +0.000 A 
ATOM     11  C   UNL     1     -12.592  56.088  46.878  0.00  0.00    +0.000 A 
ENDROOT
BRANCH   1  17
ATOM     12  S   UNL     1      -6.717  54.422  53.135  0.00  0.00    +0.000 S 
ATOM     13  O   UNL     1      -6.531  55.452  54.138  0.00  0.00    +0.000 OA
ATOM     14  O   UNL     1      -5.600  53.977  52.325  0.00  0.00    +0.000 OA
ATOM     15  N   UNL     1      -7.899  54.908  52.134  0.00  0.00    +0.000 N 
ATOM     16  C   UNL     1      -7.269  52.993  54.007  0.00  0.00    +0.000 A 
ATOM     17  C   UNL     1      -9.044  54.297  52.116  0.00  0.00    +0.000 C 
ATOM     18  C   UNL     1      -8.568  52.573  53.791  0.00  0.00    +0.000 A 
ATOM     19  C   UNL     1      -6.408  52.303  54.865  0.00  0.00    +0.000 A 
ATOM     20  N   UNL     1      -9.427  53.274  52.953  0.00  0.00    +0.000 N 
ATOM     21  C   UNL     1      -9.040  51.465  54.505  0.00  0.00    +0.000 A 
ATOM     22  C   UNL     1      -6.879  51.182  55.545  0.00  0.00    +0.000 A 
ATOM     23  C   UNL     1      -8.200  50.769  55.369  0.00  0.00    +0.000 A 
ATOM     24  H   UNL     1      -7.746  55.675  51.535  0.00  0.00    +0.000 HD
ATOM     25  H   UNL     1     -10.379  53.020  52.959  0.00  0.00    +0.000 HD
ENDBRANCH   1  17
BRANCH   3  26
ATOM     26  O   UNL     1      -8.559  54.226  49.227  0.00  0.00    +0.000 OA
ATOM     27  H   UNL     1      -8.554  53.524  48.606  0.00  0.00    +0.000 HD
ENDBRANCH   3  26
BRANCH   5  28
ATOM     28  C   UNL     1     -13.635  55.990  51.104  0.00  0.00    +0.000 C 
BRANCH  28  29
ATOM     29  C   UNL     1     -13.683  57.471  51.521  0.00  0.00    +0.000 C 
ATOM     30  C   UNL     1     -14.497  57.636  52.798  0.00  0.00    +0.000 C 
ATOM     31  C   UNL     1     -14.364  58.416  50.546  0.00  0.00    +0.000 C 
ATOM     32  O   UNL     1     -15.155  58.899  52.746  0.00  0.00    +0.000 OA
ATOM     33  C   UNL     1     -15.208  59.347  51.393  0.00  0.00    +0.000 C 
ENDBRANCH  28  29
ENDBRANCH   5  28
TORSDOF 4
ENDMDL
MODEL 4
REMARK VINA RESULT:      -8.3      2.245      2.971
REMARK  Name = 338321
REMARK  4 active torsions:
REMARK  status: ('A' for Active; 'I' for Inactive)
REMARK    1  A    between atoms: C_6  and  C_10
REMARK    2  A    between atoms: C_14  and  O_18
REMARK    3  A    between atoms: N_17  and  C_21
REMARK    4  A    between atoms: C_21  and  C_24
REMARK                            x       y       z     vdW  Elec       q    Type
REMARK                         _______ _______ _______ _____ _____    ______ ____
ROOT
ATOM      1  C   UNL     1     -11.475  54.006  51.347  0.00  0.00    +0.000 A 
ATOM      2  C   UNL     1     -10.547  54.154  52.505  0.00  0.00    +0.000 A 
ATOM      3  C   UNL     1     -11.569  52.826  50.717  0.00  0.00    +0.000 A 
ATOM      4  O   UNL     1     -10.653  55.164  53.212  0.00  0.00    +0.000 OA
ATOM      5  N   UNL     1      -9.617  53.159  52.761  0.00  0.00    +0.000 N 
ATOM      6  C   UNL     1     -10.738  51.690  51.151  0.00  0.00    +0.000 A 
ATOM      7  C   UNL     1      -9.738  51.880  52.130  0.00  0.00    +0.000 A 
ATOM      8  C   UNL     1     -10.938  50.411  50.604  0.00  0.00    +0.000 A 
ATOM      9  C   UNL     1      -8.944  50.785  52.505  0.00  0.00    +0.000 A 
ATOM     10  C   UNL     1     -10.173  49.325  51.023  0.00  0.00    +0.000 A 
ATOM     11  C   UNL     1      -9.175  49.514  51.971  0.00  0.00    +0.000 A 
ENDROOT
BRANCH   1  17
ATOM     12  S   UNL     1     -13.049  56.981  49.319  0.00  0.00    +0.000 S 
ATOM     13  O   UNL     1     -14.098  56.598  48.393  0.00  0.00    +0.000 OA
ATOM     14  O   UNL     1     -12.062  57.972  48.937  0.00  0.00    +0.000 OA
ATOM     15  N   UNL     1     -12.261  55.634  49.764  0.00  0.00    +0.000 N 
ATOM     16  C   UNL     1     -13.869  57.647  50.729  0.00  0.00    +0.000 A 
ATOM     17  C   UNL     1     -12.348  55.187  50.980  0.00  0.00    +0.000 C 
ATOM     18  C   UNL     1     -13.797  56.930  51.910  0.00  0.00    +0.000 A 
ATOM     19  C   UNL     1     -14.544  58.868  50.653  0.00  0.00    +0.000 A 
ATOM     20  N   UNL     1     -13.143  55.706  51.976  0.00  0.00    +0.000 N 
ATOM     21  C   UNL     1     -14.476  57.420  53.031  0.00  0.00    +0.000 A 
ATOM     22  C   UNL     1     -15.188  59.362  51.786  0.00  0.00    +0.000 A 
ATOM     23  C   UNL     1     -15.159  58.631  52.974  0.00  0.00    +0.000 A 
ATOM     24  H   UNL     1     -11.711  55.150  49.105  0.00  0.00    +0.000 HD
ATOM     25  H   UNL     1     -13.257  55.171  52.795  0.00  0.00    +0.000 HD
ENDBRANCH   1  17
BRANCH   3  26
ATOM     26  O   UNL     1     -12.439  52.566  49.672  0.00  0.00    +0.000 OA
ATOM     27  H   UNL     1     -12.182  51.986  48.982  0.00  0.00    +0.000 HD
ENDBRANCH   3  26
BRANCH   5  28
ATOM     28  C   UNL     1      -8.659  53.411  53.844  0.00  0.00    +0.000 C 
BRANCH  28  29
ATOM     29  C   UNL     1      -7.294  53.954  53.388  0.00  0.00    +0.000 C 
ATOM     30  C   UNL     1      -6.177  53.014  53.823  0.00  0.00    +0.000 C 
ATOM     31  C   UNL     1      -6.876  55.290  53.979  0.00  0.00    +0.000 C 
ATOM     32  O   UNL     1      -5.019  53.796  54.102  0.00  0.00    +0.000 OA
ATOM     33  C   UNL     1      -5.408  55.149  54.326  0.00  0.00    +0.000 C 
ENDBRANCH  28  29
ENDBRANCH   5  28
TORSDOF 4
ENDMDL
MODEL 5
REMARK VINA RESULT:      -8.2      3.384      4.461
REMARK  Name = 338321
REMARK  4 active torsions:
REMARK  status: ('A' for Active; 'I' for Inactive)
REMARK    1  A    between atoms: C_6  and  C_10
REMARK    2  A    between atoms: C_14  and  O_18
REMARK    3  A    between atoms: N_17  and  C_21
REMARK    4  A    between atoms: C_21  and  C_24
REMARK                            x       y       z     vdW  Elec       q    Type
REMARK                         _______ _______ _______ _____ _____    ______ ____
ROOT
ATOM      1  C   UNL     1     -12.355  54.234  50.208  0.00  0.00    +0.000 A 
ATOM      2  C   UNL     1     -12.165  53.871  48.774  0.00  0.00    +0.000 A 
ATOM      3  C   UNL     1     -11.742  53.520  51.162  0.00  0.00    +0.000 A 
ATOM      4  O   UNL     1     -12.539  54.677  47.914  0.00  0.00    +0.000 OA
ATOM      5  N   UNL     1     -11.567  52.663  48.454  0.00  0.00    +0.000 N 
ATOM      6  C   UNL     1     -10.906  52.364  50.795  0.00  0.00    +0.000 A 
ATOM      7  C   UNL     1     -10.867  51.917  49.456  0.00  0.00    +0.000 A 
ATOM      8  C   UNL     1     -10.135  51.704  51.768  0.00  0.00    +0.000 A 
ATOM      9  C   UNL     1     -10.083  50.797  49.140  0.00  0.00    +0.000 A 
ATOM     10  C   UNL     1      -9.324  50.624  51.427  0.00  0.00    +0.000 A 
ATOM     11  C   UNL     1      -9.301  50.170  50.115  0.00  0.00    +0.000 A 
ENDROOT
BRANCH   1  17
ATOM     12  S   UNL     1     -15.316  56.525  51.404  0.00  0.00    +0.000 S 
ATOM     13  O   UNL     1     -15.340  56.792  52.829  0.00  0.00    +0.000 OA
ATOM     14  O   UNL     1     -16.547  56.253  50.689  0.00  0.00    +0.000 OA
ATOM     15  N   UNL     1     -14.303  55.284  51.147  0.00  0.00    +0.000 N 
ATOM     16  C   UNL     1     -14.640  57.969  50.653  0.00  0.00    +0.000 A 
ATOM     17  C   UNL     1     -13.177  55.466  50.527  0.00  0.00    +0.000 C 
ATOM     18  C   UNL     1     -13.392  57.863  50.068  0.00  0.00    +0.000 A 
ATOM     19  C   UNL     1     -15.359  59.168  50.634  0.00  0.00    +0.000 A 
ATOM     20  N   UNL     1     -12.672  56.675  50.108  0.00  0.00    +0.000 N 
ATOM     21  C   UNL     1     -12.819  59.008  49.503  0.00  0.00    +0.000 A 
ATOM     22  C   UNL     1     -14.792  60.293  50.039  0.00  0.00    +0.000 A 
ATOM     23  C   UNL     1     -13.516  60.213  49.480  0.00  0.00    +0.000 A 
ATOM     24  H   UNL     1     -14.544  54.383  51.464  0.00  0.00    +0.000 HD
ATOM     25  H   UNL     1     -11.732  56.701  49.815  0.00  0.00    +0.000 HD
ENDBRANCH   1  17
BRANCH   3  26
ATOM     26  O   UNL     1     -11.804  53.807  52.515  0.00  0.00    +0.000 OA
ATOM     27  H   UNL     1     -12.000  53.128  53.129  0.00  0.00    +0.000 HD
ENDBRANCH   3  26
BRANCH   5  28
ATOM     28  C   UNL     1     -11.507  52.310  47.031  0.00  0.00    +0.000 C 
BRANCH  28  29
ATOM     29  C   UNL     1     -10.397  53.016  46.234  0.00  0.00    +0.000 C 
ATOM     30  C   UNL     1     -10.844  53.254  44.797  0.00  0.00    +0.000 C 
ATOM     31  C   UNL     1      -9.098  52.244  46.073  0.00  0.00    +0.000 C 
ATOM     32  O   UNL     1      -9.699  53.162  43.953  0.00  0.00    +0.000 OA
ATOM     33  C   UNL     1      -8.668  52.452  44.635  0.00  0.00    +0.000 C 
ENDBRANCH  28  29
ENDBRANCH   5  28
TORSDOF 4
ENDMDL
MODEL 6
REMARK VINA RESULT:      -8.0      1.563      2.267
REMARK  Name = 338321
REMARK  4 active torsions:
REMARK  status: ('A' for Active; 'I' for Inactive)
REMARK    1  A    between atoms: C_6  and  C_10
REMARK    2  A    between atoms: C_14  and  O_18
REMARK    3  A    between atoms: N_17  and  C_21
REMARK    4  A    between atoms: C_21  and  C_24
REMARK                            x       y       z     vdW  Elec       q    Type
REMARK                         _______ _______ _______ _____ _____    ______ ____
ROOT
ATOM      1  C   UNL     1     -10.167  54.546  52.085  0.00  0.00    +0.000 A 
ATOM      2  C   UNL     1      -8.762  55.030  51.975  0.00  0.00    +0.000 A 
ATOM      3  C   UNL     1     -10.444  53.471  52.838  0.00  0.00    +0.000 A 
ATOM      4  O   UNL     1      -8.567  56.147  51.480  0.00  0.00    +0.000 OA
ATOM      5  N   UNL     1      -7.730  54.231  52.441  0.00  0.00    +0.000 N 
ATOM      6  C   UNL     1      -9.357  52.757  53.529  0.00  0.00    +0.000 A 
ATOM      7  C   UNL     1      -8.012  53.110  53.285  0.00  0.00    +0.000 A 
ATOM      8  C   UNL     1      -9.648  51.728  54.442  0.00  0.00    +0.000 A 
ATOM      9  C   UNL     1      -6.996  52.394  53.938  0.00  0.00    +0.000 A 
ATOM     10  C   UNL     1      -8.629  51.061  55.118  0.00  0.00    +0.000 A 
ATOM     11  C   UNL     1      -7.305  51.393  54.863  0.00  0.00    +0.000 A 
ENDROOT
BRANCH   1  17
ATOM     12  S   UNL     1     -13.524  56.494  51.464  0.00  0.00    +0.000 S 
ATOM     13  O   UNL     1     -13.513  57.878  51.899  0.00  0.00    +0.000 OA
ATOM     14  O   UNL     1     -14.692  55.665  51.687  0.00  0.00    +0.000 OA
ATOM     15  N   UNL     1     -12.246  55.751  52.135  0.00  0.00    +0.000 N 
ATOM     16  C   UNL     1     -13.298  56.536  49.717  0.00  0.00    +0.000 A 
ATOM     17  C   UNL     1     -11.253  55.350  51.402  0.00  0.00    +0.000 C 
ATOM     18  C   UNL     1     -12.110  56.040  49.212  0.00  0.00    +0.000 A 
ATOM     19  C   UNL     1     -14.300  57.032  48.879  0.00  0.00    +0.000 A 
ATOM     20  N   UNL     1     -11.108  55.567  50.051  0.00  0.00    +0.000 N 
ATOM     21  C   UNL     1     -11.893  56.102  47.831  0.00  0.00    +0.000 A 
ATOM     22  C   UNL     1     -14.086  57.058  47.502  0.00  0.00    +0.000 A 
ATOM     23  C   UNL     1     -12.876  56.599  46.980  0.00  0.00    +0.000 A 
ATOM     24  H   UNL     1     -12.225  55.601  53.109  0.00  0.00    +0.000 HD
ATOM     25  H   UNL     1     -10.230  55.374  49.648  0.00  0.00    +0.000 HD
ENDBRANCH   1  17
BRANCH   3  26
ATOM     26  O   UNL     1     -11.718  52.975  53.054  0.00  0.00    +0.000 OA
ATOM     27  H   UNL     1     -11.864  52.335  53.722  0.00  0.00    +0.000 HD
ENDBRANCH   3  26
BRANCH   5  28
ATOM     28  C   UNL     1      -6.363  54.710  52.204  0.00  0.00    +0.000 C 
BRANCH  28  29
ATOM     29  C   UNL     1      -5.696  54.165  50.930  0.00  0.00    +0.000 C 
ATOM     30  C   UNL     1      -5.714  55.218  49.830  0.00  0.00    +0.000 C 
ATOM     31  C   UNL     1      -6.375  52.969  50.282  0.00  0.00    +0.000 C 
ATOM     32  O   UNL     1      -5.838  54.551  48.576  0.00  0.00    +0.000 OA
ATOM     33  C   UNL     1      -6.351  53.238  48.790  0.00  0.00    +0.000 C 
ENDBRANCH  28  29
ENDBRANCH   5  28
TORSDOF 4
ENDMDL
MODEL 7
REMARK VINA RESULT:      -7.9      3.039      5.088
REMARK  Name = 338321
REMARK  4 active torsions:
REMARK  status: ('A' for Active; 'I' for Inactive)
REMARK    1  A    between atoms: C_6  and  C_10
REMARK    2  A    between atoms: C_14  and  O_18
REMARK    3  A    between atoms: N_17  and  C_21
REMARK    4  A    between atoms: C_21  and  C_24
REMARK                            x       y       z     vdW  Elec       q    Type
REMARK                         _______ _______ _______ _____ _____    ______ ____
ROOT
ATOM      1  C   UNL     1     -10.786  55.673  48.405  0.00  0.00    +0.000 A 
ATOM      2  C   UNL     1      -9.380  55.491  48.867  0.00  0.00    +0.000 A 
ATOM      3  C   UNL     1     -11.165  55.183  47.216  0.00  0.00    +0.000 A 
ATOM      4  O   UNL     1      -9.119  55.735  50.051  0.00  0.00    +0.000 OA
ATOM      5  N   UNL     1      -8.424  55.043  47.969  0.00  0.00    +0.000 N 
ATOM      6  C   UNL     1     -10.187  54.491  46.359  0.00  0.00    +0.000 A 
ATOM      7  C   UNL     1      -8.821  54.473  46.718  0.00  0.00    +0.000 A 
ATOM      8  C   UNL     1     -10.604  53.839  45.185  0.00  0.00    +0.000 A 
ATOM      9  C   UNL     1      -7.908  53.829  45.867  0.00  0.00    +0.000 A 
ATOM     10  C   UNL     1      -9.691  53.163  44.379  0.00  0.00    +0.000 A 
ATOM     11  C   UNL     1      -8.344  53.162  44.720  0.00  0.00    +0.000 A 
ENDROOT
BRANCH   1  17
ATOM     12  S   UNL     1     -13.328  56.222  51.352  0.00  0.00    +0.000 S 
ATOM     13  O   UNL     1     -12.718  56.501  52.637  0.00  0.00    +0.000 OA
ATOM     14  O   UNL     1     -14.475  55.340  51.262  0.00  0.00    +0.000 OA
ATOM     15  N   UNL     1     -12.174  55.645  50.367  0.00  0.00    +0.000 N 
ATOM     16  C   UNL     1     -13.875  57.776  50.729  0.00  0.00    +0.000 A 
ATOM     17  C   UNL     1     -11.764  56.339  49.350  0.00  0.00    +0.000 C 
ATOM     18  C   UNL     1     -13.230  58.285  49.617  0.00  0.00    +0.000 A 
ATOM     19  C   UNL     1     -14.942  58.452  51.330  0.00  0.00    +0.000 A 
ATOM     20  N   UNL     1     -12.157  57.620  49.035  0.00  0.00    +0.000 N 
ATOM     21  C   UNL     1     -13.621  59.537  49.131  0.00  0.00    +0.000 A 
ATOM     22  C   UNL     1     -15.344  59.683  50.817  0.00  0.00    +0.000 A 
ATOM     23  C   UNL     1     -14.676  60.229  49.720  0.00  0.00    +0.000 A 
ATOM     24  H   UNL     1     -11.781  54.758  50.543  0.00  0.00    +0.000 HD
ATOM     25  H   UNL     1     -11.640  58.101  48.349  0.00  0.00    +0.000 HD
ENDBRANCH   1  17
BRANCH   3  26
ATOM     26  O   UNL     1     -12.456  55.246  46.721  0.00  0.00    +0.000 OA
ATOM     27  H   UNL     1     -13.151  55.559  47.264  0.00  0.00    +0.000 HD
ENDBRANCH   3  26
BRANCH   5  28
ATOM     28  C   UNL     1      -7.038  54.990  48.450  0.00  0.00    +0.000 C 
BRANCH  28  29
ATOM     29  C   UNL     1      -6.625  53.652  49.088  0.00  0.00    +0.000 C 
ATOM     30  C   UNL     1      -6.218  53.861  50.541  0.00  0.00    +0.000 C 
ATOM     31  C   UNL     1      -5.412  52.969  48.479  0.00  0.00    +0.000 C 
ATOM     32  O   UNL     1      -5.192  52.923  50.855  0.00  0.00    +0.000 OA
ATOM     33  C   UNL     1      -4.595  52.455  49.648  0.00  0.00    +0.000 C 
ENDBRANCH  28  29
ENDBRANCH   5  28
TORSDOF 4
ENDMDL
MODEL 8
REMARK VINA RESULT:      -7.7      3.647      7.394
REMARK  Name = 338321
REMARK  4 active torsions:
REMARK  status: ('A' for Active; 'I' for Inactive)
REMARK    1  A    between atoms: C_6  and  C_10
REMARK    2  A    between atoms: C_14  and  O_18
REMARK    3  A    between atoms: N_17  and  C_21
REMARK    4  A    between atoms: C_21  and  C_24
REMARK                            x       y       z     vdW  Elec       q    Type
REMARK                         _______ _______ _______ _____ _____    ______ ____
ROOT
ATOM      1  C   UNL     1     -10.869  54.984  48.221  0.00  0.00    +0.000 A 
ATOM      2  C   UNL     1     -10.358  54.886  49.618  0.00  0.00    +0.000 A 
ATOM      3  C   UNL     1     -11.973  55.701  47.965  0.00  0.00    +0.000 A 
ATOM      4  O   UNL     1      -9.223  54.428  49.793  0.00  0.00    +0.000 OA
ATOM      5  N   UNL     1     -11.156  55.322  50.664  0.00  0.00    +0.000 N 
ATOM      6  C   UNL     1     -12.691  56.366  49.066  0.00  0.00    +0.000 A 
ATOM      7  C   UNL     1     -12.308  56.130  50.404  0.00  0.00    +0.000 A 
ATOM      8  C   UNL     1     -13.755  57.245  48.794  0.00  0.00    +0.000 A 
ATOM      9  C   UNL     1     -13.029  56.756  51.433  0.00  0.00    +0.000 A 
ATOM     10  C   UNL     1     -14.427  57.896  49.826  0.00  0.00    +0.000 A 
ATOM     11  C   UNL     1     -14.065  57.648  51.144  0.00  0.00    +0.000 A 
ENDROOT
BRANCH   1  17
ATOM     12  S   UNL     1      -7.936  54.188  45.729  0.00  0.00    +0.000 S 
ATOM     13  O   UNL     1      -6.892  53.339  46.270  0.00  0.00    +0.000 OA
ATOM     14  O   UNL     1      -7.597  55.325  44.895  0.00  0.00    +0.000 OA
ATOM     15  N   UNL     1      -8.834  54.727  46.970  0.00  0.00    +0.000 N 
ATOM     16  C   UNL     1      -8.936  53.143  44.722  0.00  0.00    +0.000 A 
ATOM     17  C   UNL     1     -10.061  54.331  47.120  0.00  0.00    +0.000 C 
ATOM     18  C   UNL     1     -10.224  52.883  45.150  0.00  0.00    +0.000 A 
ATOM     19  C   UNL     1      -8.442  52.621  43.523  0.00  0.00    +0.000 A 
ATOM     20  N   UNL     1     -10.704  53.388  46.353  0.00  0.00    +0.000 N 
ATOM     21  C   UNL     1     -11.021  52.022  44.387  0.00  0.00    +0.000 A 
ATOM     22  C   UNL     1      -9.256  51.792  42.755  0.00  0.00    +0.000 A 
ATOM     23  C   UNL     1     -10.546  51.486  43.194  0.00  0.00    +0.000 A 
ATOM     24  H   UNL     1      -8.443  55.362  47.615  0.00  0.00    +0.000 HD
ATOM     25  H   UNL     1     -11.568  53.044  46.679  0.00  0.00    +0.000 HD
ENDBRANCH   1  17
BRANCH   3  26
ATOM     26  O   UNL     1     -12.497  55.905  46.700  0.00  0.00    +0.000 OA
ATOM     27  H   UNL     1     -11.953  55.794  45.945  0.00  0.00    +0.000 HD
ENDBRANCH   3  26
BRANCH   5  28
ATOM     28  C   UNL     1     -10.646  55.098  52.023  0.00  0.00    +0.000 C 
BRANCH  28  29
ATOM     29  C   UNL     1     -10.972  53.717  52.617  0.00  0.00    +0.000 C 
ATOM     30  C   UNL     1      -9.689  52.966  52.949  0.00  0.00    +0.000 C 
ATOM     31  C   UNL     1     -11.714  52.756  51.703  0.00  0.00    +0.000 C 
ATOM     32  O   UNL     1      -9.922  51.575  52.749  0.00  0.00    +0.000 OA
ATOM     33  C   UNL     1     -11.057  51.405  51.902  0.00  0.00    +0.000 C 
ENDBRANCH  28  29
ENDBRANCH   5  28
TORSDOF 4
ENDMDL
MODEL 9
REMARK VINA RESULT:      -7.6      3.411      7.193
REMARK  Name = 338321
REMARK  4 active torsions:
REMARK  status: ('A' for Active; 'I' for Inactive)
REMARK    1  A    between atoms: C_6  and  C_10
REMARK    2  A    between atoms: C_14  and  O_18
REMARK    3  A    between atoms: N_17  and  C_21
REMARK    4  A    between atoms: C_21  and  C_24
REMARK                            x       y       z     vdW  Elec       q    Type
REMARK                         _______ _______ _______ _____ _____    ______ ____
ROOT
ATOM      1  C   UNL     1     -10.429  54.689  50.333  0.00  0.00    +0.000 A 
ATOM      2  C   UNL     1     -10.208  54.367  48.894  0.00  0.00    +0.000 A 
ATOM      3  C   UNL     1     -11.449  55.484  50.688  0.00  0.00    +0.000 A 
ATOM      4  O   UNL     1      -9.422  53.453  48.615  0.00  0.00    +0.000 OA
ATOM      5  N   UNL     1     -10.894  55.082  47.926  0.00  0.00    +0.000 N 
ATOM      6  C   UNL     1     -12.330  56.057  49.656  0.00  0.00    +0.000 A 
ATOM      7  C   UNL     1     -12.015  55.894  48.289  0.00  0.00    +0.000 A 
ATOM      8  C   UNL     1     -13.491  56.762  50.021  0.00  0.00    +0.000 A 
ATOM      9  C   UNL     1     -12.858  56.476  47.328  0.00  0.00    +0.000 A 
ATOM     10  C   UNL     1     -14.341  57.290  49.052  0.00  0.00    +0.000 A 
ATOM     11  C   UNL     1     -14.023  57.148  47.708  0.00  0.00    +0.000 A 
ENDROOT
BRANCH   1  17
ATOM     12  S   UNL     1      -9.117  52.198  53.075  0.00  0.00    +0.000 S 
ATOM     13  O   UNL     1      -8.533  50.976  52.557  0.00  0.00    +0.000 OA
ATOM     14  O   UNL     1      -9.975  52.161  54.243  0.00  0.00    +0.000 OA
ATOM     15  N   UNL     1      -9.942  52.907  51.870  0.00  0.00    +0.000 N 
ATOM     16  C   UNL     1      -7.761  53.233  53.515  0.00  0.00    +0.000 A 
ATOM     17  C   UNL     1      -9.531  54.026  51.356  0.00  0.00    +0.000 C 
ATOM     18  C   UNL     1      -7.559  54.377  52.767  0.00  0.00    +0.000 A 
ATOM     19  C   UNL     1      -6.939  52.911  54.600  0.00  0.00    +0.000 A 
ATOM     20  N   UNL     1      -8.365  54.682  51.677  0.00  0.00    +0.000 N 
ATOM     21  C   UNL     1      -6.463  55.192  53.073  0.00  0.00    +0.000 A 
ATOM     22  C   UNL     1      -5.870  53.747  54.916  0.00  0.00    +0.000 A 
ATOM     23  C   UNL     1      -5.628  54.885  54.144  0.00  0.00    +0.000 A 
ATOM     24  H   UNL     1     -10.761  52.483  51.524  0.00  0.00    +0.000 HD
ATOM     25  H   UNL     1      -8.080  55.421  51.091  0.00  0.00    +0.000 HD
ENDBRANCH   1  17
BRANCH   3  26
ATOM     26  O   UNL     1     -11.778  55.797  51.995  0.00  0.00    +0.000 OA
ATOM     27  H   UNL     1     -12.326  56.534  52.177  0.00  0.00    +0.000 HD
ENDBRANCH   3  26
BRANCH   5  28
ATOM     28  C   UNL     1     -10.553  54.797  46.527  0.00  0.00    +0.000 C 
BRANCH  28  29
ATOM     29  C   UNL     1     -11.566  53.912  45.780  0.00  0.00    +0.000 C 
ATOM     30  C   UNL     1     -12.009  52.753  46.663  0.00  0.00    +0.000 C 
ATOM     31  C   UNL     1     -11.051  53.221  44.528  0.00  0.00    +0.000 C 
ATOM     32  O   UNL     1     -12.264  51.627  45.827  0.00  0.00    +0.000 OA
ATOM     33  C   UNL     1     -11.602  51.810  44.577  0.00  0.00    +0.000 C 
ENDBRANCH  28  29
ENDBRANCH   5  28
TORSDOF 4
ENDMDL
