MODEL 1
REMARK VINA RESULT:      -8.2      0.000      0.000
REMARK  Name = 338298
REMARK  5 active torsions:
REMARK  status: ('A' for Active; 'I' for Inactive)
REMARK    1  A    between atoms: C_6  and  C_10
REMARK    2  A    between atoms: C_14  and  O_18
REMARK    3  A    between atoms: N_17  and  C_21
REMARK    4  A    between atoms: C_21  and  C_24
REMARK    5  A    between atoms: C_24  and  C_27
REMARK                            x       y       z     vdW  Elec       q    Type
REMARK                         _______ _______ _______ _____ _____    ______ ____
ROOT
ATOM      1  C   UNL     1     -10.104  54.402  52.300  0.00  0.00    +0.000 A 
ATOM      2  C   UNL     1      -8.727  54.953  52.155  0.00  0.00    +0.000 A 
ATOM      3  C   UNL     1     -10.317  53.304  53.039  0.00  0.00    +0.000 A 
ATOM      4  O   UNL     1      -8.608  55.955  51.448  0.00  0.00    +0.000 OA
ATOM      5  N   UNL     1      -7.667  54.348  52.823  0.00  0.00    +0.000 N 
ATOM      6  C   UNL     1      -9.200  52.657  53.742  0.00  0.00    +0.000 A 
ATOM      7  C   UNL     1      -7.889  53.164  53.613  0.00  0.00    +0.000 A 
ATOM      8  C   UNL     1      -9.440  51.533  54.555  0.00  0.00    +0.000 A 
ATOM      9  C   UNL     1      -6.854  52.495  54.289  0.00  0.00    +0.000 A 
ATOM     10  C   UNL     1      -8.406  50.912  55.247  0.00  0.00    +0.000 A 
ATOM     11  C   UNL     1      -7.112  51.391  55.109  0.00  0.00    +0.000 A 
ENDROOT
BRANCH   1  17
ATOM     12  S   UNL     1     -12.404  55.960  49.518  0.00  0.00    +0.000 S 
ATOM     13  O   UNL     1     -13.310  54.996  48.921  0.00  0.00    +0.000 OA
ATOM     14  O   UNL     1     -11.726  56.939  48.685  0.00  0.00    +0.000 OA
ATOM     15  N   UNL     1     -11.274  55.131  50.335  0.00  0.00    +0.000 N 
ATOM     16  C   UNL     1     -13.360  56.882  50.665  0.00  0.00    +0.000 A 
ATOM     17  C   UNL     1     -11.248  55.144  51.633  0.00  0.00    +0.000 C 
ATOM     18  C   UNL     1     -13.109  56.696  52.013  0.00  0.00    +0.000 A 
ATOM     19  C   UNL     1     -14.329  57.781  50.212  0.00  0.00    +0.000 A 
ATOM     20  N   UNL     1     -12.158  55.779  52.453  0.00  0.00    +0.000 N 
ATOM     21  C   UNL     1     -13.902  57.385  52.938  0.00  0.00    +0.000 A 
ATOM     22  C   UNL     1     -15.087  58.487  51.144  0.00  0.00    +0.000 A 
ATOM     23  C   UNL     1     -14.880  58.284  52.507  0.00  0.00    +0.000 A 
ATOM     24  H   UNL     1     -10.599  54.612  49.840  0.00  0.00    +0.000 HD
ATOM     25  H   UNL     1     -12.133  55.569  53.416  0.00  0.00    +0.000 HD
ENDBRANCH   1  17
BRANCH   3  26
ATOM     26  O   UNL     1     -11.558  52.719  53.224  0.00  0.00    +0.000 OA
ATOM     27  H   UNL     1     -11.634  51.786  53.269  0.00  0.00    +0.000 HD
ENDBRANCH   3  26
BRANCH   5  28
ATOM     28  C   UNL     1      -6.293  54.849  52.578  0.00  0.00    +0.000 C 
BRANCH  28  29
ATOM     29  C   UNL     1      -5.513  54.171  51.435  0.00  0.00    +0.000 C 
BRANCH  29  30
ATOM     30  C   UNL     1      -5.532  54.953  50.152  0.00  0.00    +0.000 C 
ATOM     31  C   UNL     1      -6.382  54.579  48.967  0.00  0.00    +0.000 C 
ATOM     32  C   UNL     1      -4.900  54.331  48.933  0.00  0.00    +0.000 C 
ENDBRANCH  29  30
ENDBRANCH  28  29
ENDBRANCH   5  28
TORSDOF 5
ENDMDL
MODEL 2
REMARK VINA RESULT:      -8.0      2.589      7.811
REMARK  Name = 338298
REMARK  5 active torsions:
REMARK  status: ('A' for Active; 'I' for Inactive)
REMARK    1  A    between atoms: C_6  and  C_10
REMARK    2  A    between atoms: C_14  and  O_18
REMARK    3  A    between atoms: N_17  and  C_21
REMARK    4  A    between atoms: C_21  and  C_24
REMARK    5  A    between atoms: C_24  and  C_27
REMARK                            x       y       z     vdW  Elec       q    Type
REMARK                         _______ _______ _______ _____ _____    ______ ____
ROOT
ATOM      1  C   UNL     1     -10.034  54.818  50.888  0.00  0.00    +0.000 A 
ATOM      2  C   UNL     1     -11.355  55.354  51.323  0.00  0.00    +0.000 A 
ATOM      3  C   UNL     1      -9.738  54.731  49.584  0.00  0.00    +0.000 A 
ATOM      4  O   UNL     1     -11.560  55.390  52.538  0.00  0.00    +0.000 OA
ATOM      5  N   UNL     1     -12.265  55.805  50.373  0.00  0.00    +0.000 N 
ATOM      6  C   UNL     1     -10.699  55.198  48.574  0.00  0.00    +0.000 A 
ATOM      7  C   UNL     1     -11.955  55.706  48.969  0.00  0.00    +0.000 A 
ATOM      8  C   UNL     1     -10.361  55.147  47.208  0.00  0.00    +0.000 A 
ATOM      9  C   UNL     1     -12.845  56.119  47.962  0.00  0.00    +0.000 A 
ATOM     10  C   UNL     1     -11.242  55.600  46.232  0.00  0.00    +0.000 A 
ATOM     11  C   UNL     1     -12.486  56.082  46.610  0.00  0.00    +0.000 A 
ENDROOT
BRANCH   1  17
ATOM     12  S   UNL     1      -6.749  54.718  53.046  0.00  0.00    +0.000 S 
ATOM     13  O   UNL     1      -6.697  55.761  54.054  0.00  0.00    +0.000 OA
ATOM     14  O   UNL     1      -5.561  54.381  52.280  0.00  0.00    +0.000 OA
ATOM     15  N   UNL     1      -7.925  55.106  51.999  0.00  0.00    +0.000 N 
ATOM     16  C   UNL     1      -7.212  53.249  53.888  0.00  0.00    +0.000 A 
ATOM     17  C   UNL     1      -9.031  54.425  51.957  0.00  0.00    +0.000 C 
ATOM     18  C   UNL     1      -8.472  52.733  53.642  0.00  0.00    +0.000 A 
ATOM     19  C   UNL     1      -6.318  52.628  54.764  0.00  0.00    +0.000 A 
ATOM     20  N   UNL     1      -9.364  53.374  52.787  0.00  0.00    +0.000 N 
ATOM     21  C   UNL     1      -8.872  51.593  54.348  0.00  0.00    +0.000 A 
ATOM     22  C   UNL     1      -6.717  51.473  55.434  0.00  0.00    +0.000 A 
ATOM     23  C   UNL     1      -7.996  50.960  55.233  0.00  0.00    +0.000 A 
ATOM     24  H   UNL     1      -7.800  55.868  51.387  0.00  0.00    +0.000 HD
ATOM     25  H   UNL     1     -10.296  53.056  52.772  0.00  0.00    +0.000 HD
ENDBRANCH   1  17
BRANCH   3  26
ATOM     26  O   UNL     1      -8.543  54.240  49.088  0.00  0.00    +0.000 OA
ATOM     27  H   UNL     1      -8.320  54.372  48.187  0.00  0.00    +0.000 HD
ENDBRANCH   3  26
BRANCH   5  28
ATOM     28  C   UNL     1     -13.611  56.234  50.823  0.00  0.00    +0.000 C 
BRANCH  28  29
ATOM     29  C   UNL     1     -13.805  57.745  51.053  0.00  0.00    +0.000 C 
BRANCH  29  30
ATOM     30  C   UNL     1     -14.072  58.102  52.488  0.00  0.00    +0.000 C 
ATOM     31  C   UNL     1     -15.326  57.705  53.220  0.00  0.00    +0.000 C 
ATOM     32  C   UNL     1     -15.137  59.129  52.777  0.00  0.00    +0.000 C 
ENDBRANCH  29  30
ENDBRANCH  28  29
ENDBRANCH   5  28
TORSDOF 5
ENDMDL
MODEL 3
REMARK VINA RESULT:      -8.0      3.183      7.130
REMARK  Name = 338298
REMARK  5 active torsions:
REMARK  status: ('A' for Active; 'I' for Inactive)
REMARK    1  A    between atoms: C_6  and  C_10
REMARK    2  A    between atoms: C_14  and  O_18
REMARK    3  A    between atoms: N_17  and  C_21
REMARK    4  A    between atoms: C_21  and  C_24
REMARK    5  A    between atoms: C_24  and  C_27
REMARK                            x       y       z     vdW  Elec       q    Type
REMARK                         _______ _______ _______ _____ _____    ______ ____
ROOT
ATOM      1  C   UNL     1     -10.251  55.213  50.832  0.00  0.00    +0.000 A 
ATOM      2  C   UNL     1      -9.794  55.175  49.414  0.00  0.00    +0.000 A 
ATOM      3  C   UNL     1     -11.475  55.666  51.135  0.00  0.00    +0.000 A 
ATOM      4  O   UNL     1      -8.651  54.760  49.216  0.00  0.00    +0.000 OA
ATOM      5  N   UNL     1     -10.658  55.574  48.400  0.00  0.00    +0.000 N 
ATOM      6  C   UNL     1     -12.390  56.095  50.068  0.00  0.00    +0.000 A 
ATOM      7  C   UNL     1     -11.973  56.069  48.720  0.00  0.00    +0.000 A 
ATOM      8  C   UNL     1     -13.691  56.525  50.391  0.00  0.00    +0.000 A 
ATOM      9  C   UNL     1     -12.879  56.510  47.740  0.00  0.00    +0.000 A 
ATOM     10  C   UNL     1     -14.585  56.918  49.400  0.00  0.00    +0.000 A 
ATOM     11  C   UNL     1     -14.177  56.915  48.076  0.00  0.00    +0.000 A 
ENDROOT
BRANCH   1  17
ATOM     12  S   UNL     1      -7.066  54.755  53.091  0.00  0.00    +0.000 S 
ATOM     13  O   UNL     1      -6.995  55.714  54.178  0.00  0.00    +0.000 OA
ATOM     14  O   UNL     1      -5.869  54.408  52.344  0.00  0.00    +0.000 OA
ATOM     15  N   UNL     1      -8.175  55.291  52.036  0.00  0.00    +0.000 N 
ATOM     16  C   UNL     1      -7.644  53.258  53.800  0.00  0.00    +0.000 A 
ATOM     17  C   UNL     1      -9.315  54.682  51.902  0.00  0.00    +0.000 C 
ATOM     18  C   UNL     1      -8.920  52.837  53.470  0.00  0.00    +0.000 A 
ATOM     19  C   UNL     1      -6.822  52.520  54.657  0.00  0.00    +0.000 A 
ATOM     20  N   UNL     1      -9.740  53.593  52.636  0.00  0.00    +0.000 N 
ATOM     21  C   UNL     1      -9.412  51.673  54.072  0.00  0.00    +0.000 A 
ATOM     22  C   UNL     1      -7.313  51.344  55.220  0.00  0.00    +0.000 A 
ATOM     23  C   UNL     1      -8.610  50.924  54.935  0.00  0.00    +0.000 A 
ATOM     24  H   UNL     1      -7.982  56.087  51.490  0.00  0.00    +0.000 HD
ATOM     25  H   UNL     1     -10.687  53.332  52.564  0.00  0.00    +0.000 HD
ENDBRANCH   1  17
BRANCH   3  26
ATOM     26  O   UNL     1     -11.980  55.744  52.421  0.00  0.00    +0.000 OA
ATOM     27  H   UNL     1     -11.496  55.380  53.137  0.00  0.00    +0.000 HD
ENDBRANCH   3  26
BRANCH   5  28
ATOM     28  C   UNL     1     -10.146  55.629  47.009  0.00  0.00    +0.000 C 
BRANCH  28  29
ATOM     29  C   UNL     1     -10.062  54.286  46.258  0.00  0.00    +0.000 C 
BRANCH  29  30
ATOM     30  C   UNL     1     -11.319  53.940  45.509  0.00  0.00    +0.000 C 
ATOM     31  C   UNL     1     -11.968  52.583  45.564  0.00  0.00    +0.000 C 
ATOM     32  C   UNL     1     -11.208  52.999  44.336  0.00  0.00    +0.000 C 
ENDBRANCH  29  30
ENDBRANCH  28  29
ENDBRANCH   5  28
TORSDOF 5
ENDMDL
MODEL 4
REMARK VINA RESULT:      -7.8      1.836      2.414
REMARK  Name = 338298
REMARK  5 active torsions:
REMARK  status: ('A' for Active; 'I' for Inactive)
REMARK    1  A    between atoms: C_6  and  C_10
REMARK    2  A    between atoms: C_14  and  O_18
REMARK    3  A    between atoms: N_17  and  C_21
REMARK    4  A    between atoms: C_21  and  C_24
REMARK    5  A    between atoms: C_24  and  C_27
REMARK                            x       y       z     vdW  Elec       q    Type
REMARK                         _______ _______ _______ _____ _____    ______ ____
ROOT
ATOM      1  C   UNL     1     -11.087  54.593  51.122  0.00  0.00    +0.000 A 
ATOM      2  C   UNL     1      -9.665  55.033  51.051  0.00  0.00    +0.000 A 
ATOM      3  C   UNL     1     -11.385  53.315  51.396  0.00  0.00    +0.000 A 
ATOM      4  O   UNL     1      -9.469  56.219  50.779  0.00  0.00    +0.000 OA
ATOM      5  N   UNL     1      -8.646  54.122  51.312  0.00  0.00    +0.000 N 
ATOM      6  C   UNL     1     -10.312  52.347  51.667  0.00  0.00    +0.000 A 
ATOM      7  C   UNL     1      -8.960  52.746  51.600  0.00  0.00    +0.000 A 
ATOM      8  C   UNL     1     -10.636  51.018  52.001  0.00  0.00    +0.000 A 
ATOM      9  C   UNL     1      -7.974  51.776  51.846  0.00  0.00    +0.000 A 
ATOM     10  C   UNL     1      -9.643  50.085  52.281  0.00  0.00    +0.000 A 
ATOM     11  C   UNL     1      -8.312  50.464  52.198  0.00  0.00    +0.000 A 
ENDROOT
BRANCH   1  17
ATOM     12  S   UNL     1     -13.401  57.272  49.411  0.00  0.00    +0.000 S 
ATOM     13  O   UNL     1     -14.491  56.684  48.655  0.00  0.00    +0.000 OA
ATOM     14  O   UNL     1     -12.674  58.412  48.880  0.00  0.00    +0.000 OA
ATOM     15  N   UNL     1     -12.328  56.096  49.720  0.00  0.00    +0.000 N 
ATOM     16  C   UNL     1     -14.095  57.808  50.931  0.00  0.00    +0.000 A 
ATOM     17  C   UNL     1     -12.172  55.636  50.924  0.00  0.00    +0.000 C 
ATOM     18  C   UNL     1     -13.742  57.124  52.080  0.00  0.00    +0.000 A 
ATOM     19  C   UNL     1     -14.964  58.902  50.962  0.00  0.00    +0.000 A 
ATOM     20  N   UNL     1     -12.895  56.019  52.035  0.00  0.00    +0.000 N 
ATOM     21  C   UNL     1     -14.331  57.508  53.290  0.00  0.00    +0.000 A 
ATOM     22  C   UNL     1     -15.516  59.296  52.179  0.00  0.00    +0.000 A 
ATOM     23  C   UNL     1     -15.207  58.595  53.342  0.00  0.00    +0.000 A 
ATOM     24  H   UNL     1     -11.787  55.725  48.984  0.00  0.00    +0.000 HD
ATOM     25  H   UNL     1     -12.806  55.475  52.852  0.00  0.00    +0.000 HD
ENDBRANCH   1  17
BRANCH   3  26
ATOM     26  O   UNL     1     -12.673  52.816  51.475  0.00  0.00    +0.000 OA
ATOM     27  H   UNL     1     -13.372  53.368  51.770  0.00  0.00    +0.000 HD
ENDBRANCH   3  26
BRANCH   5  28
ATOM     28  C   UNL     1      -7.240  54.556  51.131  0.00  0.00    +0.000 C 
BRANCH  28  29
ATOM     29  C   UNL     1      -6.588  55.277  52.326  0.00  0.00    +0.000 C 
BRANCH  29  30
ATOM     30  C   UNL     1      -6.014  54.339  53.350  0.00  0.00    +0.000 C 
ATOM     31  C   UNL     1      -6.340  54.416  54.818  0.00  0.00    +0.000 C 
ATOM     32  C   UNL     1      -5.001  54.886  54.324  0.00  0.00    +0.000 C 
ENDBRANCH  29  30
ENDBRANCH  28  29
ENDBRANCH   5  28
TORSDOF 5
ENDMDL
MODEL 5
REMARK VINA RESULT:      -7.8      2.641      7.889
REMARK  Name = 338298
REMARK  5 active torsions:
REMARK  status: ('A' for Active; 'I' for Inactive)
REMARK    1  A    between atoms: C_6  and  C_10
REMARK    2  A    between atoms: C_14  and  O_18
REMARK    3  A    between atoms: N_17  and  C_21
REMARK    4  A    between atoms: C_21  and  C_24
REMARK    5  A    between atoms: C_24  and  C_27
REMARK                            x       y       z     vdW  Elec       q    Type
REMARK                         _______ _______ _______ _____ _____    ______ ____
ROOT
ATOM      1  C   UNL     1     -10.286  55.032  50.370  0.00  0.00    +0.000 A 
ATOM      2  C   UNL     1     -11.408  55.242  51.328  0.00  0.00    +0.000 A 
ATOM      3  C   UNL     1     -10.442  55.332  49.072  0.00  0.00    +0.000 A 
ATOM      4  O   UNL     1     -11.195  54.929  52.501  0.00  0.00    +0.000 OA
ATOM      5  N   UNL     1     -12.605  55.791  50.880  0.00  0.00    +0.000 N 
ATOM      6  C   UNL     1     -11.708  55.906  48.593  0.00  0.00    +0.000 A 
ATOM      7  C   UNL     1     -12.781  56.108  49.486  0.00  0.00    +0.000 A 
ATOM      8  C   UNL     1     -11.846  56.263  47.238  0.00  0.00    +0.000 A 
ATOM      9  C   UNL     1     -13.976  56.639  48.971  0.00  0.00    +0.000 A 
ATOM     10  C   UNL     1     -13.025  56.825  46.759  0.00  0.00    +0.000 A 
ATOM     11  C   UNL     1     -14.091  57.009  47.626  0.00  0.00    +0.000 A 
ENDROOT
BRANCH   1  17
ATOM     12  S   UNL     1      -7.061  52.832  50.836  0.00  0.00    +0.000 S 
ATOM     13  O   UNL     1      -6.003  53.166  49.900  0.00  0.00    +0.000 OA
ATOM     14  O   UNL     1      -7.346  51.444  51.152  0.00  0.00    +0.000 OA
ATOM     15  N   UNL     1      -8.429  53.512  50.292  0.00  0.00    +0.000 N 
ATOM     16  C   UNL     1      -6.624  53.594  52.356  0.00  0.00    +0.000 A 
ATOM     17  C   UNL     1      -8.964  54.520  50.912  0.00  0.00    +0.000 C 
ATOM     18  C   UNL     1      -7.387  54.665  52.785  0.00  0.00    +0.000 A 
ATOM     19  C   UNL     1      -5.546  53.110  53.101  0.00  0.00    +0.000 A 
ATOM     20  N   UNL     1      -8.444  55.154  52.022  0.00  0.00    +0.000 N 
ATOM     21  C   UNL     1      -7.016  55.313  53.968  0.00  0.00    +0.000 A 
ATOM     22  C   UNL     1      -5.209  53.744  54.296  0.00  0.00    +0.000 A 
ATOM     23  C   UNL     1      -5.937  54.850  54.726  0.00  0.00    +0.000 A 
ATOM     24  H   UNL     1      -8.860  53.156  49.481  0.00  0.00    +0.000 HD
ATOM     25  H   UNL     1      -8.848  56.011  52.292  0.00  0.00    +0.000 HD
ENDBRANCH   1  17
BRANCH   3  26
ATOM     26  O   UNL     1      -9.461  55.164  48.111  0.00  0.00    +0.000 OA
ATOM     27  H   UNL     1      -8.812  55.829  47.982  0.00  0.00    +0.000 HD
ENDBRANCH   3  26
BRANCH   5  28
ATOM     28  C   UNL     1     -13.741  55.890  51.829  0.00  0.00    +0.000 C 
BRANCH  28  29
ATOM     29  C   UNL     1     -13.866  57.214  52.608  0.00  0.00    +0.000 C 
BRANCH  29  30
ATOM     30  C   UNL     1     -15.088  58.009  52.244  0.00  0.00    +0.000 C 
ATOM     31  C   UNL     1     -15.042  59.268  51.420  0.00  0.00    +0.000 C 
ATOM     32  C   UNL     1     -15.282  59.352  52.901  0.00  0.00    +0.000 C 
ENDBRANCH  29  30
ENDBRANCH  28  29
ENDBRANCH   5  28
TORSDOF 5
ENDMDL
MODEL 6
REMARK VINA RESULT:      -7.6      2.864      4.950
REMARK  Name = 338298
REMARK  5 active torsions:
REMARK  status: ('A' for Active; 'I' for Inactive)
REMARK    1  A    between atoms: C_6  and  C_10
REMARK    2  A    between atoms: C_14  and  O_18
REMARK    3  A    between atoms: N_17  and  C_21
REMARK    4  A    between atoms: C_21  and  C_24
REMARK    5  A    between atoms: C_24  and  C_27
REMARK                            x       y       z     vdW  Elec       q    Type
REMARK                         _______ _______ _______ _____ _____    ______ ____
ROOT
ATOM      1  C   UNL     1     -11.437  55.899  48.862  0.00  0.00    +0.000 A 
ATOM      2  C   UNL     1     -10.445  55.269  49.778  0.00  0.00    +0.000 A 
ATOM      3  C   UNL     1     -11.464  55.564  47.564  0.00  0.00    +0.000 A 
ATOM      4  O   UNL     1     -10.471  55.638  50.954  0.00  0.00    +0.000 OA
ATOM      5  N   UNL     1      -9.574  54.300  49.292  0.00  0.00    +0.000 N 
ATOM      6  C   UNL     1     -10.541  54.546  47.043  0.00  0.00    +0.000 A 
ATOM      7  C   UNL     1      -9.594  53.941  47.897  0.00  0.00    +0.000 A 
ATOM      8  C   UNL     1     -10.609  54.166  45.689  0.00  0.00    +0.000 A 
ATOM      9  C   UNL     1      -8.720  52.990  47.343  0.00  0.00    +0.000 A 
ATOM     10  C   UNL     1      -9.762  53.191  45.173  0.00  0.00    +0.000 A 
ATOM     11  C   UNL     1      -8.814  52.607  46.000  0.00  0.00    +0.000 A 
ENDROOT
BRANCH   1  17
ATOM     12  S   UNL     1     -13.518  59.185  49.438  0.00  0.00    +0.000 S 
ATOM     13  O   UNL     1     -14.648  59.310  48.536  0.00  0.00    +0.000 OA
ATOM     14  O   UNL     1     -12.699  60.344  49.749  0.00  0.00    +0.000 OA
ATOM     15  N   UNL     1     -12.545  58.029  48.848  0.00  0.00    +0.000 N 
ATOM     16  C   UNL     1     -14.176  58.635  50.970  0.00  0.00    +0.000 A 
ATOM     17  C   UNL     1     -12.434  56.882  49.448  0.00  0.00    +0.000 C 
ATOM     18  C   UNL     1     -13.885  57.343  51.371  0.00  0.00    +0.000 A 
ATOM     19  C   UNL     1     -14.954  59.493  51.751  0.00  0.00    +0.000 A 
ATOM     20  N   UNL     1     -13.130  56.488  50.572  0.00  0.00    +0.000 N 
ATOM     21  C   UNL     1     -14.449  56.875  52.563  0.00  0.00    +0.000 A 
ATOM     22  C   UNL     1     -15.479  59.025  52.954  0.00  0.00    +0.000 A 
ATOM     23  C   UNL     1     -15.234  57.715  53.357  0.00  0.00    +0.000 A 
ATOM     24  H   UNL     1     -12.032  58.199  48.025  0.00  0.00    +0.000 HD
ATOM     25  H   UNL     1     -13.089  55.537  50.827  0.00  0.00    +0.000 HD
ENDBRANCH   1  17
BRANCH   3  26
ATOM     26  O   UNL     1     -12.343  56.102  46.640  0.00  0.00    +0.000 OA
ATOM     27  H   UNL     1     -12.315  55.819  45.746  0.00  0.00    +0.000 HD
ENDBRANCH   3  26
BRANCH   5  28
ATOM     28  C   UNL     1      -8.527  53.766  50.196  0.00  0.00    +0.000 C 
BRANCH  28  29
ATOM     29  C   UNL     1      -7.362  54.717  50.528  0.00  0.00    +0.000 C 
BRANCH  29  30
ATOM     30  C   UNL     1      -6.973  54.702  51.980  0.00  0.00    +0.000 C 
ATOM     31  C   UNL     1      -7.973  54.697  53.105  0.00  0.00    +0.000 C 
ATOM     32  C   UNL     1      -7.208  55.952  52.790  0.00  0.00    +0.000 C 
ENDBRANCH  29  30
ENDBRANCH  28  29
ENDBRANCH   5  28
TORSDOF 5
ENDMDL
MODEL 7
REMARK VINA RESULT:      -7.6      2.732      8.136
REMARK  Name = 338298
REMARK  5 active torsions:
REMARK  status: ('A' for Active; 'I' for Inactive)
REMARK    1  A    between atoms: C_6  and  C_10
REMARK    2  A    between atoms: C_14  and  O_18
REMARK    3  A    between atoms: N_17  and  C_21
REMARK    4  A    between atoms: C_21  and  C_24
REMARK    5  A    between atoms: C_24  and  C_27
REMARK                            x       y       z     vdW  Elec       q    Type
REMARK                         _______ _______ _______ _____ _____    ______ ____
ROOT
ATOM      1  C   UNL     1     -10.072  55.289  50.670  0.00  0.00    +0.000 A 
ATOM      2  C   UNL     1     -11.257  55.461  51.557  0.00  0.00    +0.000 A 
ATOM      3  C   UNL     1     -10.184  55.486  49.349  0.00  0.00    +0.000 A 
ATOM      4  O   UNL     1     -11.080  55.248  52.758  0.00  0.00    +0.000 OA
ATOM      5  N   UNL     1     -12.472  55.870  51.016  0.00  0.00    +0.000 N 
ATOM      6  C   UNL     1     -11.467  55.911  48.770  0.00  0.00    +0.000 A 
ATOM      7  C   UNL     1     -12.599  56.077  49.596  0.00  0.00    +0.000 A 
ATOM      8  C   UNL     1     -11.563  56.162  47.388  0.00  0.00    +0.000 A 
ATOM      9  C   UNL     1     -13.807  56.463  48.988  0.00  0.00    +0.000 A 
ATOM     10  C   UNL     1     -12.759  56.585  46.816  0.00  0.00    +0.000 A 
ATOM     11  C   UNL     1     -13.881  56.730  47.616  0.00  0.00    +0.000 A 
ENDROOT
BRANCH   1  17
ATOM     12  S   UNL     1      -7.110  55.142  53.250  0.00  0.00    +0.000 S 
ATOM     13  O   UNL     1      -7.338  54.197  54.327  0.00  0.00    +0.000 OA
ATOM     14  O   UNL     1      -6.518  56.439  53.529  0.00  0.00    +0.000 OA
ATOM     15  N   UNL     1      -8.529  55.390  52.506  0.00  0.00    +0.000 N 
ATOM     16  C   UNL     1      -6.020  54.347  52.127  0.00  0.00    +0.000 A 
ATOM     17  C   UNL     1      -8.742  54.934  51.309  0.00  0.00    +0.000 C 
ATOM     18  C   UNL     1      -6.526  53.968  50.896  0.00  0.00    +0.000 A 
ATOM     19  C   UNL     1      -4.686  54.125  52.477  0.00  0.00    +0.000 A 
ATOM     20  N   UNL     1      -7.864  54.171  50.567  0.00  0.00    +0.000 N 
ATOM     21  C   UNL     1      -5.682  53.285  50.013  0.00  0.00    +0.000 A 
ATOM     22  C   UNL     1      -3.847  53.476  51.573  0.00  0.00    +0.000 A 
ATOM     23  C   UNL     1      -4.345  53.048  50.345  0.00  0.00    +0.000 A 
ATOM     24  H   UNL     1      -9.239  55.893  52.968  0.00  0.00    +0.000 HD
ATOM     25  H   UNL     1      -8.207  53.740  49.750  0.00  0.00    +0.000 HD
ENDBRANCH   1  17
BRANCH   3  26
ATOM     26  O   UNL     1      -9.142  55.341  48.449  0.00  0.00    +0.000 OA
ATOM     27  H   UNL     1      -9.084  55.908  47.705  0.00  0.00    +0.000 HD
ENDBRANCH   3  26
BRANCH   5  28
ATOM     28  C   UNL     1     -13.660  55.932  51.900  0.00  0.00    +0.000 C 
BRANCH  28  29
ATOM     29  C   UNL     1     -13.879  57.254  52.659  0.00  0.00    +0.000 C 
BRANCH  29  30
ATOM     30  C   UNL     1     -15.083  58.022  52.188  0.00  0.00    +0.000 C 
ATOM     31  C   UNL     1     -14.993  59.265  51.343  0.00  0.00    +0.000 C 
ATOM     32  C   UNL     1     -15.345  59.375  52.799  0.00  0.00    +0.000 C 
ENDBRANCH  29  30
ENDBRANCH  28  29
ENDBRANCH   5  28
TORSDOF 5
ENDMDL
MODEL 8
REMARK VINA RESULT:      -7.5      1.890      2.136
REMARK  Name = 338298
REMARK  5 active torsions:
REMARK  status: ('A' for Active; 'I' for Inactive)
REMARK    1  A    between atoms: C_6  and  C_10
REMARK    2  A    between atoms: C_14  and  O_18
REMARK    3  A    between atoms: N_17  and  C_21
REMARK    4  A    between atoms: C_21  and  C_24
REMARK    5  A    between atoms: C_24  and  C_27
REMARK                            x       y       z     vdW  Elec       q    Type
REMARK                         _______ _______ _______ _____ _____    ______ ____
ROOT
ATOM      1  C   UNL     1     -11.100  54.661  50.986  0.00  0.00    +0.000 A 
ATOM      2  C   UNL     1      -9.703  55.069  50.663  0.00  0.00    +0.000 A 
ATOM      3  C   UNL     1     -11.354  53.426  51.439  0.00  0.00    +0.000 A 
ATOM      4  O   UNL     1      -9.550  56.216  50.237  0.00  0.00    +0.000 OA
ATOM      5  N   UNL     1      -8.657  54.177  50.874  0.00  0.00    +0.000 N 
ATOM      6  C   UNL     1     -10.253  52.477  51.657  0.00  0.00    +0.000 A 
ATOM      7  C   UNL     1      -8.925  52.846  51.354  0.00  0.00    +0.000 A 
ATOM      8  C   UNL     1     -10.524  51.197  52.178  0.00  0.00    +0.000 A 
ATOM      9  C   UNL     1      -7.912  51.893  51.560  0.00  0.00    +0.000 A 
ATOM     10  C   UNL     1      -9.500  50.285  52.413  0.00  0.00    +0.000 A 
ATOM     11  C   UNL     1      -8.195  50.632  52.099  0.00  0.00    +0.000 A 
ENDROOT
BRANCH   1  17
ATOM     12  S   UNL     1     -13.498  57.328  49.375  0.00  0.00    +0.000 S 
ATOM     13  O   UNL     1     -14.605  56.734  48.648  0.00  0.00    +0.000 OA
ATOM     14  O   UNL     1     -12.802  58.482  48.832  0.00  0.00    +0.000 OA
ATOM     15  N   UNL     1     -12.402  56.162  49.638  0.00  0.00    +0.000 N 
ATOM     16  C   UNL     1     -14.150  57.842  50.922  0.00  0.00    +0.000 A 
ATOM     17  C   UNL     1     -12.203  55.693  50.833  0.00  0.00    +0.000 C 
ATOM     18  C   UNL     1     -13.752  57.151  52.052  0.00  0.00    +0.000 A 
ATOM     19  C   UNL     1     -15.031  58.925  50.990  0.00  0.00    +0.000 A 
ATOM     20  N   UNL     1     -12.895  56.057  51.970  0.00  0.00    +0.000 N 
ATOM     21  C   UNL     1     -14.308  57.517  53.284  0.00  0.00    +0.000 A 
ATOM     22  C   UNL     1     -15.548  59.300  52.228  0.00  0.00    +0.000 A 
ATOM     23  C   UNL     1     -15.194  58.593  53.374  0.00  0.00    +0.000 A 
ATOM     24  H   UNL     1     -11.881  55.805  48.882  0.00  0.00    +0.000 HD
ATOM     25  H   UNL     1     -12.773  55.507  52.777  0.00  0.00    +0.000 HD
ENDBRANCH   1  17
BRANCH   3  26
ATOM     26  O   UNL     1     -12.617  52.958  51.756  0.00  0.00    +0.000 OA
ATOM     27  H   UNL     1     -12.866  52.085  51.521  0.00  0.00    +0.000 HD
ENDBRANCH   3  26
BRANCH   5  28
ATOM     28  C   UNL     1      -7.292  54.568  50.446  0.00  0.00    +0.000 C 
BRANCH  28  29
ATOM     29  C   UNL     1      -6.827  54.037  49.076  0.00  0.00    +0.000 C 
BRANCH  29  30
ATOM     30  C   UNL     1      -7.193  54.938  47.930  0.00  0.00    +0.000 C 
ATOM     31  C   UNL     1      -8.459  54.785  47.129  0.00  0.00    +0.000 C 
ATOM     32  C   UNL     1      -7.144  54.367  46.535  0.00  0.00    +0.000 C 
ENDBRANCH  29  30
ENDBRANCH  28  29
ENDBRANCH   5  28
TORSDOF 5
ENDMDL
MODEL 9
REMARK VINA RESULT:      -7.5      4.117      7.340
REMARK  Name = 338298
REMARK  5 active torsions:
REMARK  status: ('A' for Active; 'I' for Inactive)
REMARK    1  A    between atoms: C_6  and  C_10
REMARK    2  A    between atoms: C_14  and  O_18
REMARK    3  A    between atoms: N_17  and  C_21
REMARK    4  A    between atoms: C_21  and  C_24
REMARK    5  A    between atoms: C_24  and  C_27
REMARK                            x       y       z     vdW  Elec       q    Type
REMARK                         _______ _______ _______ _____ _____    ______ ____
ROOT
ATOM      1  C   UNL     1     -11.035  54.562  48.297  0.00  0.00    +0.000 A 
ATOM      2  C   UNL     1     -10.715  54.130  49.687  0.00  0.00    +0.000 A 
ATOM      3  C   UNL     1     -12.005  55.460  48.076  0.00  0.00    +0.000 A 
ATOM      4  O   UNL     1      -9.822  53.290  49.810  0.00  0.00    +0.000 OA
ATOM      5  N   UNL     1     -11.398  54.694  50.760  0.00  0.00    +0.000 N 
ATOM      6  C   UNL     1     -12.735  56.054  49.205  0.00  0.00    +0.000 A 
ATOM      7  C   UNL     1     -12.446  55.654  50.528  0.00  0.00    +0.000 A 
ATOM      8  C   UNL     1     -13.719  57.032  48.967  0.00  0.00    +0.000 A 
ATOM      9  C   UNL     1     -13.189  56.237  51.569  0.00  0.00    +0.000 A 
ATOM     10  C   UNL     1     -14.412  57.626  50.017  0.00  0.00    +0.000 A 
ATOM     11  C   UNL     1     -14.150  57.224  51.318  0.00  0.00    +0.000 A 
ENDROOT
BRANCH   1  17
ATOM     12  S   UNL     1      -8.029  53.940  45.841  0.00  0.00    +0.000 S 
ATOM     13  O   UNL     1      -7.021  53.050  46.387  0.00  0.00    +0.000 OA
ATOM     14  O   UNL     1      -7.633  55.123  45.096  0.00  0.00    +0.000 OA
ATOM     15  N   UNL     1      -8.979  54.416  47.066  0.00  0.00    +0.000 N 
ATOM     16  C   UNL     1      -8.986  52.970  44.735  0.00  0.00    +0.000 A 
ATOM     17  C   UNL     1     -10.204  53.995  47.160  0.00  0.00    +0.000 C 
ATOM     18  C   UNL     1     -10.288  52.674  45.096  0.00  0.00    +0.000 A 
ATOM     19  C   UNL     1      -8.437  52.533  43.526  0.00  0.00    +0.000 A 
ATOM     20  N   UNL     1     -10.816  53.094  46.314  0.00  0.00    +0.000 N 
ATOM     21  C   UNL     1     -11.043  51.857  44.247  0.00  0.00    +0.000 A 
ATOM     22  C   UNL     1      -9.213  51.749  42.674  0.00  0.00    +0.000 A 
ATOM     23  C   UNL     1     -10.512  51.404  43.037  0.00  0.00    +0.000 A 
ATOM     24  H   UNL     1      -8.622  55.031  47.747  0.00  0.00    +0.000 HD
ATOM     25  H   UNL     1     -11.686  52.722  46.590  0.00  0.00    +0.000 HD
ENDBRANCH   1  17
BRANCH   3  26
ATOM     26  O   UNL     1     -12.374  55.914  46.822  0.00  0.00    +0.000 OA
ATOM     27  H   UNL     1     -13.019  55.447  46.326  0.00  0.00    +0.000 HD
ENDBRANCH   3  26
BRANCH   5  28
ATOM     28  C   UNL     1     -11.138  54.171  52.123  0.00  0.00    +0.000 C 
BRANCH  28  29
ATOM     29  C   UNL     1     -10.220  55.025  53.018  0.00  0.00    +0.000 C 
BRANCH  29  30
ATOM     30  C   UNL     1      -8.781  54.591  52.986  0.00  0.00    +0.000 C 
ATOM     31  C   UNL     1      -7.726  55.153  53.902  0.00  0.00    +0.000 C 
ATOM     32  C   UNL     1      -7.758  55.563  52.456  0.00  0.00    +0.000 C 
ENDBRANCH  29  30
ENDBRANCH  28  29
ENDBRANCH   5  28
TORSDOF 5
ENDMDL
