MODEL 1
REMARK VINA RESULT:      -8.3      0.000      0.000
REMARK  Name = 338583
REMARK  7 active torsions:
REMARK  status: ('A' for Active; 'I' for Inactive)
REMARK    1  A    between atoms: C_6  and  C_10
REMARK    2  A    between atoms: C_14  and  O_18
REMARK    3  A    between atoms: N_17  and  C_21
REMARK    4  A    between atoms: C_21  and  C_24
REMARK    5  A    between atoms: C_24  and  C_27
REMARK    6  A    between atoms: C_27  and  C_29
REMARK    7  A    between atoms: C_27  and  C_30
REMARK                            x       y       z     vdW  Elec       q    Type
REMARK                         _______ _______ _______ _____ _____    ______ ____
ROOT
ATOM      1  C   UNL     1     -10.136  54.393  52.387  0.00  0.00    +0.000 A 
ATOM      2  C   UNL     1      -8.784  55.029  52.341  0.00  0.00    +0.000 A 
ATOM      3  C   UNL     1     -10.345  53.305  53.147  0.00  0.00    +0.000 A 
ATOM      4  O   UNL     1      -8.650  56.084  51.712  0.00  0.00    +0.000 OA
ATOM      5  N   UNL     1      -7.736  54.420  53.019  0.00  0.00    +0.000 N 
ATOM      6  C   UNL     1      -9.230  52.673  53.864  0.00  0.00    +0.000 A 
ATOM      7  C   UNL     1      -7.937  53.226  53.780  0.00  0.00    +0.000 A 
ATOM      8  C   UNL     1      -9.439  51.489  54.598  0.00  0.00    +0.000 A 
ATOM      9  C   UNL     1      -6.885  52.580  54.444  0.00  0.00    +0.000 A 
ATOM     10  C   UNL     1      -8.381  50.850  55.234  0.00  0.00    +0.000 A 
ATOM     11  C   UNL     1      -7.115  51.404  55.153  0.00  0.00    +0.000 A 
ATOM     12  F   UNL     1      -6.089  50.797  55.761  0.00  0.00    +0.000 F 
ENDROOT
BRANCH   1  18
ATOM     13  S   UNL     1     -12.287  55.613  49.341  0.00  0.00    +0.000 S 
ATOM     14  O   UNL     1     -13.090  54.557  48.763  0.00  0.00    +0.000 OA
ATOM     15  O   UNL     1     -11.604  56.566  48.483  0.00  0.00    +0.000 OA
ATOM     16  N   UNL     1     -11.185  54.927  50.301  0.00  0.00    +0.000 N 
ATOM     17  C   UNL     1     -13.374  56.561  50.343  0.00  0.00    +0.000 A 
ATOM     18  C   UNL     1     -11.272  55.010  51.597  0.00  0.00    +0.000 C 
ATOM     19  C   UNL     1     -13.231  56.467  51.718  0.00  0.00    +0.000 A 
ATOM     20  C   UNL     1     -14.331  57.389  49.751  0.00  0.00    +0.000 A 
ATOM     21  N   UNL     1     -12.284  55.629  52.297  0.00  0.00    +0.000 N 
ATOM     22  C   UNL     1     -14.122  57.178  52.526  0.00  0.00    +0.000 A 
ATOM     23  C   UNL     1     -15.192  58.117  50.567  0.00  0.00    +0.000 A 
ATOM     24  C   UNL     1     -15.093  58.006  51.954  0.00  0.00    +0.000 A 
ATOM     25  H   UNL     1     -10.432  54.437  49.899  0.00  0.00    +0.000 HD
ATOM     26  H   UNL     1     -12.340  55.468  53.266  0.00  0.00    +0.000 HD
ENDBRANCH   1  18
BRANCH   3  27
ATOM     27  O   UNL     1     -11.571  52.684  53.309  0.00  0.00    +0.000 OA
ATOM     28  H   UNL     1     -11.964  52.636  54.158  0.00  0.00    +0.000 HD
ENDBRANCH   3  27
BRANCH   5  29
ATOM     29  C   UNL     1      -6.398  55.020  52.893  0.00  0.00    +0.000 C 
BRANCH  29  30
ATOM     30  C   UNL     1      -5.605  54.421  51.722  0.00  0.00    +0.000 C 
BRANCH  30  31
ATOM     31  C   UNL     1      -4.188  53.939  52.093  0.00  0.00    +0.000 C 
ATOM     32  C   UNL     1      -3.849  54.178  53.565  0.00  0.00    +0.000 C 
ATOM     33  C   UNL     1      -4.055  52.445  51.777  0.00  0.00    +0.000 C 
ENDBRANCH  30  31
ENDBRANCH  29  30
ENDBRANCH   5  29
TORSDOF 5
ENDMDL
MODEL 2
REMARK VINA RESULT:      -8.2      4.270      7.786
REMARK  Name = 338583
REMARK  7 active torsions:
REMARK  status: ('A' for Active; 'I' for Inactive)
REMARK    1  A    between atoms: C_6  and  C_10
REMARK    2  A    between atoms: C_14  and  O_18
REMARK    3  A    between atoms: N_17  and  C_21
REMARK    4  A    between atoms: C_21  and  C_24
REMARK    5  A    between atoms: C_24  and  C_27
REMARK    6  A    between atoms: C_27  and  C_29
REMARK    7  A    between atoms: C_27  and  C_30
REMARK                            x       y       z     vdW  Elec       q    Type
REMARK                         _______ _______ _______ _____ _____    ______ ____
ROOT
ATOM      1  C   UNL     1     -10.056  55.089  50.619  0.00  0.00    +0.000 A 
ATOM      2  C   UNL     1      -9.624  54.932  49.196  0.00  0.00    +0.000 A 
ATOM      3  C   UNL     1     -11.273  55.582  50.905  0.00  0.00    +0.000 A 
ATOM      4  O   UNL     1      -8.540  54.385  48.967  0.00  0.00    +0.000 OA
ATOM      5  N   UNL     1     -10.463  55.391  48.190  0.00  0.00    +0.000 N 
ATOM      6  C   UNL     1     -12.153  56.058  49.830  0.00  0.00    +0.000 A 
ATOM      7  C   UNL     1     -11.735  55.974  48.488  0.00  0.00    +0.000 A 
ATOM      8  C   UNL     1     -13.397  56.643  50.140  0.00  0.00    +0.000 A 
ATOM      9  C   UNL     1     -12.580  56.471  47.487  0.00  0.00    +0.000 A 
ATOM     10  C   UNL     1     -14.215  57.150  49.136  0.00  0.00    +0.000 A 
ATOM     11  C   UNL     1     -13.799  57.056  47.819  0.00  0.00    +0.000 A 
ATOM     12  F   UNL     1     -14.577  57.541  46.845  0.00  0.00    +0.000 F 
ENDROOT
BRANCH   1  18
ATOM     13  S   UNL     1      -6.877  54.884  52.909  0.00  0.00    +0.000 S 
ATOM     14  O   UNL     1      -6.863  55.899  53.940  0.00  0.00    +0.000 OA
ATOM     15  O   UNL     1      -5.658  54.551  52.193  0.00  0.00    +0.000 OA
ATOM     16  N   UNL     1      -7.996  55.300  51.821  0.00  0.00    +0.000 N 
ATOM     17  C   UNL     1      -7.396  53.400  53.690  0.00  0.00    +0.000 A 
ATOM     18  C   UNL     1      -9.122  54.654  51.729  0.00  0.00    +0.000 C 
ATOM     19  C   UNL     1      -8.662  52.922  53.393  0.00  0.00    +0.000 A 
ATOM     20  C   UNL     1      -6.538  52.731  54.567  0.00  0.00    +0.000 A 
ATOM     21  N   UNL     1      -9.515  53.605  52.530  0.00  0.00    +0.000 N 
ATOM     22  C   UNL     1      -9.106  51.770  54.046  0.00  0.00    +0.000 A 
ATOM     23  C   UNL     1      -6.980  51.566  55.187  0.00  0.00    +0.000 A 
ATOM     24  C   UNL     1      -8.266  51.089  54.932  0.00  0.00    +0.000 A 
ATOM     25  H   UNL     1      -7.822  56.057  51.215  0.00  0.00    +0.000 HD
ATOM     26  H   UNL     1     -10.456  53.320  52.488  0.00  0.00    +0.000 HD
ENDBRANCH   1  18
BRANCH   3  27
ATOM     27  O   UNL     1     -11.791  55.703  52.182  0.00  0.00    +0.000 OA
ATOM     28  H   UNL     1     -12.680  55.462  52.353  0.00  0.00    +0.000 HD
ENDBRANCH   3  27
BRANCH   5  29
ATOM     29  C   UNL     1      -9.981  55.299  46.802  0.00  0.00    +0.000 C 
BRANCH  29  30
ATOM     30  C   UNL     1     -10.462  54.016  46.108  0.00  0.00    +0.000 C 
BRANCH  30  31
ATOM     31  C   UNL     1      -9.374  53.287  45.293  0.00  0.00    +0.000 C 
ATOM     32  C   UNL     1      -9.888  52.775  43.946  0.00  0.00    +0.000 C 
ATOM     33  C   UNL     1      -8.190  54.232  45.059  0.00  0.00    +0.000 C 
ENDBRANCH  30  31
ENDBRANCH  29  30
ENDBRANCH   5  29
TORSDOF 5
ENDMDL
MODEL 3
REMARK VINA RESULT:      -8.0      3.818      5.240
REMARK  Name = 338583
REMARK  7 active torsions:
REMARK  status: ('A' for Active; 'I' for Inactive)
REMARK    1  A    between atoms: C_6  and  C_10
REMARK    2  A    between atoms: C_14  and  O_18
REMARK    3  A    between atoms: N_17  and  C_21
REMARK    4  A    between atoms: C_21  and  C_24
REMARK    5  A    between atoms: C_24  and  C_27
REMARK    6  A    between atoms: C_27  and  C_29
REMARK    7  A    between atoms: C_27  and  C_30
REMARK                            x       y       z     vdW  Elec       q    Type
REMARK                         _______ _______ _______ _____ _____    ______ ____
ROOT
ATOM      1  C   UNL     1     -11.343  55.942  48.919  0.00  0.00    +0.000 A 
ATOM      2  C   UNL     1     -10.241  55.451  49.802  0.00  0.00    +0.000 A 
ATOM      3  C   UNL     1     -11.430  55.515  47.647  0.00  0.00    +0.000 A 
ATOM      4  O   UNL     1     -10.247  55.785  50.991  0.00  0.00    +0.000 OA
ATOM      5  N   UNL     1      -9.265  54.627  49.256  0.00  0.00    +0.000 N 
ATOM      6  C   UNL     1     -10.395  54.639  47.084  0.00  0.00    +0.000 A 
ATOM      7  C   UNL     1      -9.317  54.218  47.887  0.00  0.00    +0.000 A 
ATOM      8  C   UNL     1     -10.450  54.256  45.730  0.00  0.00    +0.000 A 
ATOM      9  C   UNL     1      -8.324  53.413  47.312  0.00  0.00    +0.000 A 
ATOM     10  C   UNL     1      -9.447  53.474  45.170  0.00  0.00    +0.000 A 
ATOM     11  C   UNL     1      -8.395  53.058  45.968  0.00  0.00    +0.000 A 
ATOM     12  F   UNL     1      -7.423  52.306  45.439  0.00  0.00    +0.000 F 
ENDROOT
BRANCH   1  18
ATOM     13  S   UNL     1     -13.506  59.176  49.422  0.00  0.00    +0.000 S 
ATOM     14  O   UNL     1     -14.632  59.244  48.517  0.00  0.00    +0.000 OA
ATOM     15  O   UNL     1     -12.724  60.367  49.709  0.00  0.00    +0.000 OA
ATOM     16  N   UNL     1     -12.498  58.039  48.875  0.00  0.00    +0.000 N 
ATOM     17  C   UNL     1     -14.150  58.642  50.966  0.00  0.00    +0.000 A 
ATOM     18  C   UNL     1     -12.376  56.895  49.483  0.00  0.00    +0.000 C 
ATOM     19  C   UNL     1     -13.844  57.356  51.383  0.00  0.00    +0.000 A 
ATOM     20  C   UNL     1     -14.930  59.507  51.738  0.00  0.00    +0.000 A 
ATOM     21  N   UNL     1     -13.079  56.498  50.598  0.00  0.00    +0.000 N 
ATOM     22  C   UNL     1     -14.392  56.902  52.585  0.00  0.00    +0.000 A 
ATOM     23  C   UNL     1     -15.444  59.052  52.949  0.00  0.00    +0.000 A 
ATOM     24  C   UNL     1     -15.181  57.749  53.370  0.00  0.00    +0.000 A 
ATOM     25  H   UNL     1     -11.966  58.214  48.065  0.00  0.00    +0.000 HD
ATOM     26  H   UNL     1     -13.038  55.549  50.857  0.00  0.00    +0.000 HD
ENDBRANCH   1  18
BRANCH   3  27
ATOM     27  O   UNL     1     -12.446  55.857  46.772  0.00  0.00    +0.000 OA
ATOM     28  H   UNL     1     -12.948  56.635  46.917  0.00  0.00    +0.000 HD
ENDBRANCH   3  27
BRANCH   5  29
ATOM     29  C   UNL     1      -8.148  54.222  50.125  0.00  0.00    +0.000 C 
BRANCH  29  30
ATOM     30  C   UNL     1      -7.016  55.260  50.131  0.00  0.00    +0.000 C 
BRANCH  30  31
ATOM     31  C   UNL     1      -5.612  54.670  50.373  0.00  0.00    +0.000 C 
ATOM     32  C   UNL     1      -5.651  53.349  51.143  0.00  0.00    +0.000 C 
ATOM     33  C   UNL     1      -4.907  54.455  49.029  0.00  0.00    +0.000 C 
ENDBRANCH  30  31
ENDBRANCH  29  30
ENDBRANCH   5  29
TORSDOF 5
ENDMDL
MODEL 4
REMARK VINA RESULT:      -7.9      5.097      7.373
REMARK  Name = 338583
REMARK  7 active torsions:
REMARK  status: ('A' for Active; 'I' for Inactive)
REMARK    1  A    between atoms: C_6  and  C_10
REMARK    2  A    between atoms: C_14  and  O_18
REMARK    3  A    between atoms: N_17  and  C_21
REMARK    4  A    between atoms: C_21  and  C_24
REMARK    5  A    between atoms: C_24  and  C_27
REMARK    6  A    between atoms: C_27  and  C_29
REMARK    7  A    between atoms: C_27  and  C_30
REMARK                            x       y       z     vdW  Elec       q    Type
REMARK                         _______ _______ _______ _____ _____    ______ ____
ROOT
ATOM      1  C   UNL     1     -11.042  54.465  48.321  0.00  0.00    +0.000 A 
ATOM      2  C   UNL     1     -10.705  54.049  49.717  0.00  0.00    +0.000 A 
ATOM      3  C   UNL     1     -12.045  55.332  48.097  0.00  0.00    +0.000 A 
ATOM      4  O   UNL     1      -9.718  53.330  49.896  0.00  0.00    +0.000 OA
ATOM      5  N   UNL     1     -11.506  54.501  50.759  0.00  0.00    +0.000 N 
ATOM      6  C   UNL     1     -12.879  55.806  49.209  0.00  0.00    +0.000 A 
ATOM      7  C   UNL     1     -12.613  55.375  50.523  0.00  0.00    +0.000 A 
ATOM      8  C   UNL     1     -13.975  56.655  48.959  0.00  0.00    +0.000 A 
ATOM      9  C   UNL     1     -13.449  55.814  51.558  0.00  0.00    +0.000 A 
ATOM     10  C   UNL     1     -14.807  57.066  49.995  0.00  0.00    +0.000 A 
ATOM     11  C   UNL     1     -14.533  56.644  51.284  0.00  0.00    +0.000 A 
ATOM     12  F   UNL     1     -15.328  57.032  52.288  0.00  0.00    +0.000 F 
ENDROOT
BRANCH   1  18
ATOM     13  S   UNL     1      -8.062  53.973  45.818  0.00  0.00    +0.000 S 
ATOM     14  O   UNL     1      -7.029  53.105  46.340  0.00  0.00    +0.000 OA
ATOM     15  O   UNL     1      -7.705  55.176  45.085  0.00  0.00    +0.000 OA
ATOM     16  N   UNL     1      -9.015  54.404  47.048  0.00  0.00    +0.000 N 
ATOM     17  C   UNL     1      -9.007  52.995  44.707  0.00  0.00    +0.000 A 
ATOM     18  C   UNL     1     -10.219  53.926  47.169  0.00  0.00    +0.000 C 
ATOM     19  C   UNL     1     -10.288  52.636  45.094  0.00  0.00    +0.000 A 
ATOM     20  C   UNL     1      -8.471  52.618  43.473  0.00  0.00    +0.000 A 
ATOM     21  N   UNL     1     -10.807  53.005  46.332  0.00  0.00    +0.000 N 
ATOM     22  C   UNL     1     -11.032  51.817  44.241  0.00  0.00    +0.000 A 
ATOM     23  C   UNL     1      -9.234  51.828  42.619  0.00  0.00    +0.000 A 
ATOM     24  C   UNL     1     -10.512  51.422  43.005  0.00  0.00    +0.000 A 
ATOM     25  H   UNL     1      -8.678  55.040  47.720  0.00  0.00    +0.000 HD
ATOM     26  H   UNL     1     -11.645  52.582  46.626  0.00  0.00    +0.000 HD
ENDBRANCH   1  18
BRANCH   3  27
ATOM     27  O   UNL     1     -12.390  55.828  46.853  0.00  0.00    +0.000 OA
ATOM     28  H   UNL     1     -12.649  56.724  46.761  0.00  0.00    +0.000 HD
ENDBRANCH   3  27
BRANCH   5  29
ATOM     29  C   UNL     1     -11.203  54.014  52.115  0.00  0.00    +0.000 C 
BRANCH  29  30
ATOM     30  C   UNL     1     -10.293  54.981  52.886  0.00  0.00    +0.000 C 
BRANCH  30  31
ATOM     31  C   UNL     1      -8.840  54.492  53.053  0.00  0.00    +0.000 C 
ATOM     32  C   UNL     1      -8.043  55.338  54.048  0.00  0.00    +0.000 C 
ATOM     33  C   UNL     1      -8.841  53.030  53.515  0.00  0.00    +0.000 C 
ENDBRANCH  30  31
ENDBRANCH  29  30
ENDBRANCH   5  29
TORSDOF 5
ENDMDL
MODEL 5
REMARK VINA RESULT:      -7.9      3.508      8.438
REMARK  Name = 338583
REMARK  7 active torsions:
REMARK  status: ('A' for Active; 'I' for Inactive)
REMARK    1  A    between atoms: C_6  and  C_10
REMARK    2  A    between atoms: C_14  and  O_18
REMARK    3  A    between atoms: N_17  and  C_21
REMARK    4  A    between atoms: C_21  and  C_24
REMARK    5  A    between atoms: C_24  and  C_27
REMARK    6  A    between atoms: C_27  and  C_29
REMARK    7  A    between atoms: C_27  and  C_30
REMARK                            x       y       z     vdW  Elec       q    Type
REMARK                         _______ _______ _______ _____ _____    ______ ____
ROOT
ATOM      1  C   UNL     1      -9.920  54.340  50.728  0.00  0.00    +0.000 A 
ATOM      2  C   UNL     1     -11.092  54.748  51.561  0.00  0.00    +0.000 A 
ATOM      3  C   UNL     1      -9.876  54.656  49.422  0.00  0.00    +0.000 A 
ATOM      4  O   UNL     1     -11.055  54.529  52.776  0.00  0.00    +0.000 OA
ATOM      5  N   UNL     1     -12.167  55.370  50.940  0.00  0.00    +0.000 N 
ATOM      6  C   UNL     1     -11.018  55.320  48.779  0.00  0.00    +0.000 A 
ATOM      7  C   UNL     1     -12.156  55.655  49.539  0.00  0.00    +0.000 A 
ATOM      8  C   UNL     1     -10.998  55.580  47.395  0.00  0.00    +0.000 A 
ATOM      9  C   UNL     1     -13.245  56.253  48.891  0.00  0.00    +0.000 A 
ATOM     10  C   UNL     1     -12.095  56.157  46.764  0.00  0.00    +0.000 A 
ATOM     11  C   UNL     1     -13.207  56.490  47.520  0.00  0.00    +0.000 A 
ATOM     12  F   UNL     1     -14.268  57.044  46.923  0.00  0.00    +0.000 F 
ENDROOT
BRANCH   1  18
ATOM     13  S   UNL     1      -7.965  51.795  52.984  0.00  0.00    +0.000 S 
ATOM     14  O   UNL     1      -7.836  50.489  52.375  0.00  0.00    +0.000 OA
ATOM     15  O   UNL     1      -8.264  51.915  54.401  0.00  0.00    +0.000 OA
ATOM     16  N   UNL     1      -9.090  52.614  52.166  0.00  0.00    +0.000 N 
ATOM     17  C   UNL     1      -6.421  52.598  52.750  0.00  0.00    +0.000 A 
ATOM     18  C   UNL     1      -8.769  53.600  51.379  0.00  0.00    +0.000 C 
ATOM     19  C   UNL     1      -6.370  53.646  51.844  0.00  0.00    +0.000 A 
ATOM     20  C   UNL     1      -5.299  52.188  53.475  0.00  0.00    +0.000 A 
ATOM     21  N   UNL     1      -7.490  54.036  51.116  0.00  0.00    +0.000 N 
ATOM     22  C   UNL     1      -5.137  54.260  51.612  0.00  0.00    +0.000 A 
ATOM     23  C   UNL     1      -4.083  52.830  53.257  0.00  0.00    +0.000 A 
ATOM     24  C   UNL     1      -4.000  53.861  52.321  0.00  0.00    +0.000 A 
ATOM     25  H   UNL     1     -10.037  52.364  52.264  0.00  0.00    +0.000 HD
ATOM     26  H   UNL     1      -7.360  54.662  50.368  0.00  0.00    +0.000 HD
ENDBRANCH   1  18
BRANCH   3  27
ATOM     27  O   UNL     1      -8.810  54.383  48.583  0.00  0.00    +0.000 OA
ATOM     28  H   UNL     1      -8.150  55.032  48.439  0.00  0.00    +0.000 HD
ENDBRANCH   3  27
BRANCH   5  29
ATOM     29  C   UNL     1     -13.343  55.689  51.767  0.00  0.00    +0.000 C 
BRANCH  29  30
ATOM     30  C   UNL     1     -13.194  57.038  52.486  0.00  0.00    +0.000 C 
BRANCH  30  31
ATOM     31  C   UNL     1     -14.527  57.763  52.763  0.00  0.00    +0.000 C 
ATOM     32  C   UNL     1     -14.636  59.100  52.027  0.00  0.00    +0.000 C 
ATOM     33  C   UNL     1     -15.696  56.861  52.352  0.00  0.00    +0.000 C 
ENDBRANCH  30  31
ENDBRANCH  29  30
ENDBRANCH   5  29
TORSDOF 5
ENDMDL
MODEL 6
REMARK VINA RESULT:      -7.9      2.192      2.557
REMARK  Name = 338583
REMARK  7 active torsions:
REMARK  status: ('A' for Active; 'I' for Inactive)
REMARK    1  A    between atoms: C_6  and  C_10
REMARK    2  A    between atoms: C_14  and  O_18
REMARK    3  A    between atoms: N_17  and  C_21
REMARK    4  A    between atoms: C_21  and  C_24
REMARK    5  A    between atoms: C_24  and  C_27
REMARK    6  A    between atoms: C_27  and  C_29
REMARK    7  A    between atoms: C_27  and  C_30
REMARK                            x       y       z     vdW  Elec       q    Type
REMARK                         _______ _______ _______ _____ _____    ______ ____
ROOT
ATOM      1  C   UNL     1     -11.190  54.553  51.022  0.00  0.00    +0.000 A 
ATOM      2  C   UNL     1      -9.761  54.946  50.830  0.00  0.00    +0.000 A 
ATOM      3  C   UNL     1     -11.504  53.293  51.372  0.00  0.00    +0.000 A 
ATOM      4  O   UNL     1      -9.501  56.132  50.606  0.00  0.00    +0.000 OA
ATOM      5  N   UNL     1      -8.781  53.966  50.927  0.00  0.00    +0.000 N 
ATOM      6  C   UNL     1     -10.457  52.269  51.477  0.00  0.00    +0.000 A 
ATOM      7  C   UNL     1      -9.111  52.610  51.238  0.00  0.00    +0.000 A 
ATOM      8  C   UNL     1     -10.799  50.934  51.770  0.00  0.00    +0.000 A 
ATOM      9  C   UNL     1      -8.139  51.604  51.308  0.00  0.00    +0.000 A 
ATOM     10  C   UNL     1      -9.824  49.943  51.816  0.00  0.00    +0.000 A 
ATOM     11  C   UNL     1      -8.503  50.289  51.587  0.00  0.00    +0.000 A 
ATOM     12  F   UNL     1      -7.558  49.344  51.628  0.00  0.00    +0.000 F 
ENDROOT
BRANCH   1  18
ATOM     13  S   UNL     1     -13.502  57.246  49.351  0.00  0.00    +0.000 S 
ATOM     14  O   UNL     1     -14.613  56.662  48.631  0.00  0.00    +0.000 OA
ATOM     15  O   UNL     1     -12.779  58.374  48.790  0.00  0.00    +0.000 OA
ATOM     16  N   UNL     1     -12.436  56.071  49.652  0.00  0.00    +0.000 N 
ATOM     17  C   UNL     1     -14.152  57.804  50.883  0.00  0.00    +0.000 A 
ATOM     18  C   UNL     1     -12.275  55.597  50.853  0.00  0.00    +0.000 C 
ATOM     19  C   UNL     1     -13.797  57.107  52.027  0.00  0.00    +0.000 A 
ATOM     20  C   UNL     1     -14.983  58.927  50.926  0.00  0.00    +0.000 A 
ATOM     21  N   UNL     1     -12.981  55.982  51.971  0.00  0.00    +0.000 N 
ATOM     22  C   UNL     1     -14.347  57.511  53.246  0.00  0.00    +0.000 A 
ATOM     23  C   UNL     1     -15.499  59.338  52.152  0.00  0.00    +0.000 A 
ATOM     24  C   UNL     1     -15.187  58.627  53.310  0.00  0.00    +0.000 A 
ATOM     25  H   UNL     1     -11.897  55.707  48.913  0.00  0.00    +0.000 HD
ATOM     26  H   UNL     1     -12.902  55.427  52.780  0.00  0.00    +0.000 HD
ENDBRANCH   1  18
BRANCH   3  27
ATOM     27  O   UNL     1     -12.787  52.848  51.638  0.00  0.00    +0.000 OA
ATOM     28  H   UNL     1     -13.138  52.121  51.163  0.00  0.00    +0.000 HD
ENDBRANCH   3  27
BRANCH   5  29
ATOM     29  C   UNL     1      -7.389  54.362  50.654  0.00  0.00    +0.000 C 
BRANCH  29  30
ATOM     30  C   UNL     1      -6.800  55.218  51.785  0.00  0.00    +0.000 C 
BRANCH  30  31
ATOM     31  C   UNL     1      -6.855  54.559  53.178  0.00  0.00    +0.000 C 
ATOM     32  C   UNL     1      -5.470  54.385  53.805  0.00  0.00    +0.000 C 
ATOM     33  C   UNL     1      -7.733  55.401  54.110  0.00  0.00    +0.000 C 
ENDBRANCH  30  31
ENDBRANCH  29  30
ENDBRANCH   5  29
TORSDOF 5
ENDMDL
MODEL 7
REMARK VINA RESULT:      -7.7      3.683      8.087
REMARK  Name = 338583
REMARK  7 active torsions:
REMARK  status: ('A' for Active; 'I' for Inactive)
REMARK    1  A    between atoms: C_6  and  C_10
REMARK    2  A    between atoms: C_14  and  O_18
REMARK    3  A    between atoms: N_17  and  C_21
REMARK    4  A    between atoms: C_21  and  C_24
REMARK    5  A    between atoms: C_24  and  C_27
REMARK    6  A    between atoms: C_27  and  C_29
REMARK    7  A    between atoms: C_27  and  C_30
REMARK                            x       y       z     vdW  Elec       q    Type
REMARK                         _______ _______ _______ _____ _____    ______ ____
ROOT
ATOM      1  C   UNL     1      -9.426  54.085  51.227  0.00  0.00    +0.000 A 
ATOM      2  C   UNL     1     -10.553  55.043  51.449  0.00  0.00    +0.000 A 
ATOM      3  C   UNL     1      -9.068  53.741  49.978  0.00  0.00    +0.000 A 
ATOM      4  O   UNL     1     -10.792  55.414  52.602  0.00  0.00    +0.000 OA
ATOM      5  N   UNL     1     -11.274  55.490  50.350  0.00  0.00    +0.000 N 
ATOM      6  C   UNL     1      -9.836  54.226  48.825  0.00  0.00    +0.000 A 
ATOM      7  C   UNL     1     -10.938  55.080  49.022  0.00  0.00    +0.000 A 
ATOM      8  C   UNL     1      -9.502  53.802  47.523  0.00  0.00    +0.000 A 
ATOM      9  C   UNL     1     -11.675  55.496  47.905  0.00  0.00    +0.000 A 
ATOM     10  C   UNL     1     -10.256  54.208  46.428  0.00  0.00    +0.000 A 
ATOM     11  C   UNL     1     -11.333  55.054  46.629  0.00  0.00    +0.000 A 
ATOM     12  F   UNL     1     -12.066  55.450  45.583  0.00  0.00    +0.000 F 
ENDROOT
BRANCH   1  18
ATOM     13  S   UNL     1      -6.489  53.307  53.708  0.00  0.00    +0.000 S 
ATOM     14  O   UNL     1      -6.252  54.379  54.651  0.00  0.00    +0.000 OA
ATOM     15  O   UNL     1      -5.370  52.612  53.095  0.00  0.00    +0.000 OA
ATOM     16  N   UNL     1      -7.424  53.885  52.526  0.00  0.00    +0.000 N 
ATOM     17  C   UNL     1      -7.397  52.083  54.579  0.00  0.00    +0.000 A 
ATOM     18  C   UNL     1      -8.674  53.537  52.423  0.00  0.00    +0.000 C 
ATOM     19  C   UNL     1      -8.731  51.912  54.248  0.00  0.00    +0.000 A 
ATOM     20  C   UNL     1      -6.769  51.306  55.557  0.00  0.00    +0.000 A 
ATOM     21  N   UNL     1      -9.350  52.702  53.283  0.00  0.00    +0.000 N 
ATOM     22  C   UNL     1      -9.477  50.976  54.968  0.00  0.00    +0.000 A 
ATOM     23  C   UNL     1      -7.517  50.354  56.244  0.00  0.00    +0.000 A 
ATOM     24  C   UNL     1      -8.872  50.193  55.955  0.00  0.00    +0.000 A 
ATOM     25  H   UNL     1      -7.042  54.513  51.871  0.00  0.00    +0.000 HD
ATOM     26  H   UNL     1     -10.330  52.660  53.211  0.00  0.00    +0.000 HD
ENDBRANCH   1  18
BRANCH   3  27
ATOM     27  O   UNL     1      -8.000  52.917  49.667  0.00  0.00    +0.000 OA
ATOM     28  H   UNL     1      -7.875  52.627  48.785  0.00  0.00    +0.000 HD
ENDBRANCH   3  27
BRANCH   5  29
ATOM     29  C   UNL     1     -12.429  56.369  50.600  0.00  0.00    +0.000 C 
BRANCH  29  30
ATOM     30  C   UNL     1     -13.632  55.595  51.159  0.00  0.00    +0.000 C 
BRANCH  30  31
ATOM     31  C   UNL     1     -14.669  56.471  51.891  0.00  0.00    +0.000 C 
ATOM     32  C   UNL     1     -14.022  57.491  52.830  0.00  0.00    +0.000 C 
ATOM     33  C   UNL     1     -15.536  57.206  50.862  0.00  0.00    +0.000 C 
ENDBRANCH  30  31
ENDBRANCH  29  30
ENDBRANCH   5  29
TORSDOF 5
ENDMDL
MODEL 8
REMARK VINA RESULT:      -7.6      4.280      5.920
REMARK  Name = 338583
REMARK  7 active torsions:
REMARK  status: ('A' for Active; 'I' for Inactive)
REMARK    1  A    between atoms: C_6  and  C_10
REMARK    2  A    between atoms: C_14  and  O_18
REMARK    3  A    between atoms: N_17  and  C_21
REMARK    4  A    between atoms: C_21  and  C_24
REMARK    5  A    between atoms: C_24  and  C_27
REMARK    6  A    between atoms: C_27  and  C_29
REMARK    7  A    between atoms: C_27  and  C_30
REMARK                            x       y       z     vdW  Elec       q    Type
REMARK                         _______ _______ _______ _____ _____    ______ ____
ROOT
ATOM      1  C   UNL     1     -10.448  55.464  48.776  0.00  0.00    +0.000 A 
ATOM      2  C   UNL     1     -10.462  54.441  47.686  0.00  0.00    +0.000 A 
ATOM      3  C   UNL     1      -9.283  55.855  49.322  0.00  0.00    +0.000 A 
ATOM      4  O   UNL     1     -11.537  54.177  47.140  0.00  0.00    +0.000 OA
ATOM      5  N   UNL     1      -9.264  53.841  47.319  0.00  0.00    +0.000 N 
ATOM      6  C   UNL     1      -8.023  55.217  48.920  0.00  0.00    +0.000 A 
ATOM      7  C   UNL     1      -8.028  54.207  47.938  0.00  0.00    +0.000 A 
ATOM      8  C   UNL     1      -6.815  55.577  49.548  0.00  0.00    +0.000 A 
ATOM      9  C   UNL     1      -6.815  53.589  47.603  0.00  0.00    +0.000 A 
ATOM     10  C   UNL     1      -5.624  54.940  49.218  0.00  0.00    +0.000 A 
ATOM     11  C   UNL     1      -5.636  53.955  48.246  0.00  0.00    +0.000 A 
ATOM     12  F   UNL     1      -4.496  53.334  47.922  0.00  0.00    +0.000 F 
ENDROOT
BRANCH   1  18
ATOM     13  S   UNL     1     -13.869  57.382  48.670  0.00  0.00    +0.000 S 
ATOM     14  O   UNL     1     -14.964  56.550  48.221  0.00  0.00    +0.000 OA
ATOM     15  O   UNL     1     -13.758  58.756  48.212  0.00  0.00    +0.000 OA
ATOM     16  N   UNL     1     -12.490  56.623  48.307  0.00  0.00    +0.000 N 
ATOM     17  C   UNL     1     -14.005  57.468  50.418  0.00  0.00    +0.000 A 
ATOM     18  C   UNL     1     -11.756  56.078  49.233  0.00  0.00    +0.000 C 
ATOM     19  C   UNL     1     -13.061  56.790  51.173  0.00  0.00    +0.000 A 
ATOM     20  C   UNL     1     -15.030  58.213  51.007  0.00  0.00    +0.000 A 
ATOM     21  N   UNL     1     -12.053  56.038  50.576  0.00  0.00    +0.000 N 
ATOM     22  C   UNL     1     -13.187  56.810  52.564  0.00  0.00    +0.000 A 
ATOM     23  C   UNL     1     -15.126  58.250  52.395  0.00  0.00    +0.000 A 
ATOM     24  C   UNL     1     -14.209  57.544  53.174  0.00  0.00    +0.000 A 
ATOM     25  H   UNL     1     -12.200  56.573  47.368  0.00  0.00    +0.000 HD
ATOM     26  H   UNL     1     -11.520  55.442  51.150  0.00  0.00    +0.000 HD
ENDBRANCH   1  18
BRANCH   3  27
ATOM     27  O   UNL     1      -9.159  56.840  50.286  0.00  0.00    +0.000 OA
ATOM     28  H   UNL     1      -8.650  56.680  51.056  0.00  0.00    +0.000 HD
ENDBRANCH   3  27
BRANCH   5  29
ATOM     29  C   UNL     1      -9.314  52.780  46.300  0.00  0.00    +0.000 C 
BRANCH  29  30
ATOM     30  C   UNL     1      -9.201  53.342  44.876  0.00  0.00    +0.000 C 
BRANCH  30  31
ATOM     31  C   UNL     1     -10.313  52.872  43.916  0.00  0.00    +0.000 C 
ATOM     32  C   UNL     1      -9.763  52.335  42.593  0.00  0.00    +0.000 C 
ATOM     33  C   UNL     1     -11.152  51.785  44.596  0.00  0.00    +0.000 C 
ENDBRANCH  30  31
ENDBRANCH  29  30
ENDBRANCH   5  29
TORSDOF 5
ENDMDL
MODEL 9
REMARK VINA RESULT:      -7.6      3.670      5.121
REMARK  Name = 338583
REMARK  7 active torsions:
REMARK  status: ('A' for Active; 'I' for Inactive)
REMARK    1  A    between atoms: C_6  and  C_10
REMARK    2  A    between atoms: C_14  and  O_18
REMARK    3  A    between atoms: N_17  and  C_21
REMARK    4  A    between atoms: C_21  and  C_24
REMARK    5  A    between atoms: C_24  and  C_27
REMARK    6  A    between atoms: C_27  and  C_29
REMARK    7  A    between atoms: C_27  and  C_30
REMARK                            x       y       z     vdW  Elec       q    Type
REMARK                         _______ _______ _______ _____ _____    ______ ____
ROOT
ATOM      1  C   UNL     1     -12.119  54.389  50.387  0.00  0.00    +0.000 A 
ATOM      2  C   UNL     1     -11.994  53.804  49.016  0.00  0.00    +0.000 A 
ATOM      3  C   UNL     1     -11.390  53.894  51.401  0.00  0.00    +0.000 A 
ATOM      4  O   UNL     1     -12.603  54.345  48.088  0.00  0.00    +0.000 OA
ATOM      5  N   UNL     1     -11.187  52.688  48.838  0.00  0.00    +0.000 N 
ATOM      6  C   UNL     1     -10.536  52.717  51.198  0.00  0.00    +0.000 A 
ATOM      7  C   UNL     1     -10.455  52.117  49.926  0.00  0.00    +0.000 A 
ATOM      8  C   UNL     1      -9.832  52.156  52.282  0.00  0.00    +0.000 A 
ATOM      9  C   UNL     1      -9.662  50.973  49.771  0.00  0.00    +0.000 A 
ATOM     10  C   UNL     1      -9.065  51.009  52.115  0.00  0.00    +0.000 A 
ATOM     11  C   UNL     1      -8.985  50.430  50.860  0.00  0.00    +0.000 A 
ATOM     12  F   UNL     1      -8.251  49.325  50.688  0.00  0.00    +0.000 F 
ENDROOT
BRANCH   1  18
ATOM     13  S   UNL     1     -15.345  56.435  51.279  0.00  0.00    +0.000 S 
ATOM     14  O   UNL     1     -15.489  56.663  52.701  0.00  0.00    +0.000 OA
ATOM     15  O   UNL     1     -16.503  56.089  50.473  0.00  0.00    +0.000 OA
ATOM     16  N   UNL     1     -14.232  55.284  51.073  0.00  0.00    +0.000 N 
ATOM     17  C   UNL     1     -14.720  57.931  50.605  0.00  0.00    +0.000 A 
ATOM     18  C   UNL     1     -13.049  55.564  50.608  0.00  0.00    +0.000 C 
ATOM     19  C   UNL     1     -13.406  57.942  50.166  0.00  0.00    +0.000 A 
ATOM     20  C   UNL     1     -15.544  59.056  50.508  0.00  0.00    +0.000 A 
ATOM     21  N   UNL     1     -12.590  56.820  50.281  0.00  0.00    +0.000 N 
ATOM     22  C   UNL     1     -12.882  59.139  49.674  0.00  0.00    +0.000 A 
ATOM     23  C   UNL     1     -15.019  60.234  49.986  0.00  0.00    +0.000 A 
ATOM     24  C   UNL     1     -13.687  60.279  49.575  0.00  0.00    +0.000 A 
ATOM     25  H   UNL     1     -14.452  54.352  51.303  0.00  0.00    +0.000 HD
ATOM     26  H   UNL     1     -11.626  56.932  50.118  0.00  0.00    +0.000 HD
ENDBRANCH   1  18
BRANCH   3  27
ATOM     27  O   UNL     1     -11.384  54.406  52.687  0.00  0.00    +0.000 OA
ATOM     28  H   UNL     1     -11.099  53.872  53.402  0.00  0.00    +0.000 HD
ENDBRANCH   3  27
BRANCH   5  29
ATOM     29  C   UNL     1     -11.143  52.082  47.497  0.00  0.00    +0.000 C 
BRANCH  29  30
ATOM     30  C   UNL     1      -9.968  52.613  46.662  0.00  0.00    +0.000 C 
BRANCH  30  31
ATOM     31  C   UNL     1     -10.386  53.413  45.411  0.00  0.00    +0.000 C 
ATOM     32  C   UNL     1      -9.421  53.223  44.239  0.00  0.00    +0.000 C 
ATOM     33  C   UNL     1     -11.796  52.992  44.981  0.00  0.00    +0.000 C 
ENDBRANCH  30  31
ENDBRANCH  29  30
ENDBRANCH   5  29
TORSDOF 5
ENDMDL
