MODEL 1
REMARK VINA RESULT:      -8.3      0.000      0.000
REMARK  Name = 338095
REMARK  8 active torsions:
REMARK  status: ('A' for Active; 'I' for Inactive)
REMARK    1  A    between atoms: C_6  and  C_10
REMARK    2  A    between atoms: C_14  and  O_18
REMARK    3  A    between atoms: N_17  and  C_21
REMARK    4  A    between atoms: C_21  and  C_24
REMARK    5  A    between atoms: C_24  and  C_27
REMARK    6  A    between atoms: C_27  and  C_28
REMARK    7  A    between atoms: C_27  and  C_29
REMARK    8  A    between atoms: C_27  and  C_30
REMARK                            x       y       z     vdW  Elec       q    Type
REMARK                         _______ _______ _______ _____ _____    ______ ____
ROOT
ATOM      1  C   UNL     1      -9.733  54.224  50.985  0.00  0.00    +0.000 A 
ATOM      2  C   UNL     1     -10.881  55.109  51.358  0.00  0.00    +0.000 A 
ATOM      3  C   UNL     1      -9.528  53.906  49.694  0.00  0.00    +0.000 A 
ATOM      4  O   UNL     1     -11.084  55.328  52.556  0.00  0.00    +0.000 OA
ATOM      5  N   UNL     1     -11.676  55.638  50.344  0.00  0.00    +0.000 N 
ATOM      6  C   UNL     1     -10.371  54.478  48.634  0.00  0.00    +0.000 A 
ATOM      7  C   UNL     1     -11.411  55.361  48.967  0.00  0.00    +0.000 A 
ATOM      8  C   UNL     1     -10.122  54.180  47.282  0.00  0.00    +0.000 A 
ATOM      9  C   UNL     1     -12.153  55.948  47.929  0.00  0.00    +0.000 A 
ATOM     10  C   UNL     1     -10.884  54.752  46.266  0.00  0.00    +0.000 A 
ATOM     11  C   UNL     1     -11.900  55.640  46.591  0.00  0.00    +0.000 A 
ENDROOT
BRANCH   1  17
ATOM     12  S   UNL     1      -6.551  53.536  53.197  0.00  0.00    +0.000 S 
ATOM     13  O   UNL     1      -6.282  54.665  54.067  0.00  0.00    +0.000 OA
ATOM     14  O   UNL     1      -5.466  52.841  52.530  0.00  0.00    +0.000 OA
ATOM     15  N   UNL     1      -7.594  54.012  52.052  0.00  0.00    +0.000 N 
ATOM     16  C   UNL     1      -7.347  52.336  54.196  0.00  0.00    +0.000 A 
ATOM     17  C   UNL     1      -8.844  53.646  52.076  0.00  0.00    +0.000 C 
ATOM     18  C   UNL     1      -8.705  52.134  54.006  0.00  0.00    +0.000 A 
ATOM     19  C   UNL     1      -6.616  51.638  55.161  0.00  0.00    +0.000 A 
ATOM     20  N   UNL     1      -9.402  52.791  52.997  0.00  0.00    +0.000 N 
ATOM     21  C   UNL     1      -9.343  51.167  54.797  0.00  0.00    +0.000 A 
ATOM     22  C   UNL     1      -7.265  50.691  55.948  0.00  0.00    +0.000 A 
ATOM     23  C   UNL     1      -8.627  50.457  55.765  0.00  0.00    +0.000 A 
ATOM     24  H   UNL     1      -7.276  54.592  51.323  0.00  0.00    +0.000 HD
ATOM     25  H   UNL     1     -10.371  52.631  52.937  0.00  0.00    +0.000 HD
ENDBRANCH   1  17
BRANCH   3  26
ATOM     26  O   UNL     1      -8.537  53.048  49.245  0.00  0.00    +0.000 OA
ATOM     27  H   UNL     1      -7.798  53.389  48.782  0.00  0.00    +0.000 HD
ENDBRANCH   3  26
BRANCH   5  28
ATOM     28  C   UNL     1     -12.763  56.551  50.724  0.00  0.00    +0.000 C 
BRANCH  28  29
ATOM     29  C   UNL     1     -14.106  55.854  51.024  0.00  0.00    +0.000 C 
BRANCH  29  30
ATOM     30  C   UNL     1     -15.305  56.821  51.243  0.00  0.00    +0.000 C 
ATOM     31  C   UNL     1     -15.573  57.066  52.739  0.00  0.00    +0.000 C 
ATOM     32  C   UNL     1     -14.972  58.177  50.590  0.00  0.00    +0.000 C 
ATOM     33  C   UNL     1     -16.575  56.261  50.583  0.00  0.00    +0.000 C 
ENDBRANCH  29  30
ENDBRANCH  28  29
ENDBRANCH   5  28
TORSDOF 5
ENDMDL
MODEL 2
REMARK VINA RESULT:      -8.3      1.441      4.428
REMARK  Name = 338095
REMARK  8 active torsions:
REMARK  status: ('A' for Active; 'I' for Inactive)
REMARK    1  A    between atoms: C_6  and  C_10
REMARK    2  A    between atoms: C_14  and  O_18
REMARK    3  A    between atoms: N_17  and  C_21
REMARK    4  A    between atoms: C_21  and  C_24
REMARK    5  A    between atoms: C_24  and  C_27
REMARK    6  A    between atoms: C_27  and  C_28
REMARK    7  A    between atoms: C_27  and  C_29
REMARK    8  A    between atoms: C_27  and  C_30
REMARK                            x       y       z     vdW  Elec       q    Type
REMARK                         _______ _______ _______ _____ _____    ______ ____
ROOT
ATOM      1  C   UNL     1     -10.239  55.098  50.730  0.00  0.00    +0.000 A 
ATOM      2  C   UNL     1      -9.837  55.127  49.289  0.00  0.00    +0.000 A 
ATOM      3  C   UNL     1     -11.434  55.591  51.100  0.00  0.00    +0.000 A 
ATOM      4  O   UNL     1      -8.707  54.730  48.991  0.00  0.00    +0.000 OA
ATOM      5  N   UNL     1     -10.744  55.610  48.350  0.00  0.00    +0.000 N 
ATOM      6  C   UNL     1     -12.385  56.090  50.096  0.00  0.00    +0.000 A 
ATOM      7  C   UNL     1     -12.044  56.063  48.735  0.00  0.00    +0.000 A 
ATOM      8  C   UNL     1     -13.654  56.560  50.484  0.00  0.00    +0.000 A 
ATOM      9  C   UNL     1     -13.001  56.479  47.793  0.00  0.00    +0.000 A 
ATOM     10  C   UNL     1     -14.581  56.992  49.539  0.00  0.00    +0.000 A 
ATOM     11  C   UNL     1     -14.254  56.948  48.191  0.00  0.00    +0.000 A 
ENDROOT
BRANCH   1  17
ATOM     12  S   UNL     1      -7.038  54.783  53.000  0.00  0.00    +0.000 S 
ATOM     13  O   UNL     1      -7.057  55.785  54.049  0.00  0.00    +0.000 OA
ATOM     14  O   UNL     1      -5.806  54.466  52.302  0.00  0.00    +0.000 OA
ATOM     15  N   UNL     1      -8.134  55.195  51.881  0.00  0.00    +0.000 N 
ATOM     16  C   UNL     1      -7.561  53.289  53.752  0.00  0.00    +0.000 A 
ATOM     17  C   UNL     1      -9.267  54.562  51.772  0.00  0.00    +0.000 C 
ATOM     18  C   UNL     1      -8.831  52.823  53.451  0.00  0.00    +0.000 A 
ATOM     19  C   UNL     1      -6.713  52.623  54.641  0.00  0.00    +0.000 A 
ATOM     20  N   UNL     1      -9.635  53.464  52.514  0.00  0.00    +0.000 N 
ATOM     21  C   UNL     1      -9.249  51.622  54.043  0.00  0.00    +0.000 A 
ATOM     22  C   UNL     1      -7.146  51.439  55.232  0.00  0.00    +0.000 A 
ATOM     23  C   UNL     1      -8.412  50.941  54.932  0.00  0.00    +0.000 A 
ATOM     24  H   UNL     1      -7.940  55.943  51.271  0.00  0.00    +0.000 HD
ATOM     25  H   UNL     1     -10.541  53.104  52.371  0.00  0.00    +0.000 HD
ENDBRANCH   1  17
BRANCH   3  26
ATOM     26  O   UNL     1     -11.880  55.670  52.409  0.00  0.00    +0.000 OA
ATOM     27  H   UNL     1     -11.520  56.312  52.988  0.00  0.00    +0.000 HD
ENDBRANCH   3  26
BRANCH   5  28
ATOM     28  C   UNL     1     -10.355  55.578  46.934  0.00  0.00    +0.000 C 
BRANCH  28  29
ATOM     29  C   UNL     1     -10.759  54.289  46.191  0.00  0.00    +0.000 C 
BRANCH  29  30
ATOM     30  C   UNL     1      -9.571  53.495  45.573  0.00  0.00    +0.000 C 
ATOM     31  C   UNL     1      -8.311  54.369  45.441  0.00  0.00    +0.000 C 
ATOM     32  C   UNL     1      -9.234  52.310  46.500  0.00  0.00    +0.000 C 
ATOM     33  C   UNL     1      -9.954  52.941  44.192  0.00  0.00    +0.000 C 
ENDBRANCH  29  30
ENDBRANCH  28  29
ENDBRANCH   5  28
TORSDOF 5
ENDMDL
MODEL 3
REMARK VINA RESULT:      -8.2      4.164      8.154
REMARK  Name = 338095
REMARK  8 active torsions:
REMARK  status: ('A' for Active; 'I' for Inactive)
REMARK    1  A    between atoms: C_6  and  C_10
REMARK    2  A    between atoms: C_14  and  O_18
REMARK    3  A    between atoms: N_17  and  C_21
REMARK    4  A    between atoms: C_21  and  C_24
REMARK    5  A    between atoms: C_24  and  C_27
REMARK    6  A    between atoms: C_27  and  C_28
REMARK    7  A    between atoms: C_27  and  C_29
REMARK    8  A    between atoms: C_27  and  C_30
REMARK                            x       y       z     vdW  Elec       q    Type
REMARK                         _______ _______ _______ _____ _____    ______ ____
ROOT
ATOM      1  C   UNL     1     -12.516  54.299  49.552  0.00  0.00    +0.000 A 
ATOM      2  C   UNL     1     -12.047  54.174  48.136  0.00  0.00    +0.000 A 
ATOM      3  C   UNL     1     -12.254  53.315  50.431  0.00  0.00    +0.000 A 
ATOM      4  O   UNL     1     -12.362  55.061  47.337  0.00  0.00    +0.000 OA
ATOM      5  N   UNL     1     -11.288  53.063  47.777  0.00  0.00    +0.000 N 
ATOM      6  C   UNL     1     -11.445  52.151  50.039  0.00  0.00    +0.000 A 
ATOM      7  C   UNL     1     -10.945  52.056  48.731  0.00  0.00    +0.000 A 
ATOM      8  C   UNL     1     -11.132  51.149  50.975  0.00  0.00    +0.000 A 
ATOM      9  C   UNL     1     -10.114  50.969  48.406  0.00  0.00    +0.000 A 
ATOM     10  C   UNL     1     -10.328  50.066  50.629  0.00  0.00    +0.000 A 
ATOM     11  C   UNL     1      -9.817  49.978  49.343  0.00  0.00    +0.000 A 
ENDROOT
BRANCH   1  17
ATOM     12  S   UNL     1     -15.361  56.463  51.200  0.00  0.00    +0.000 S 
ATOM     13  O   UNL     1     -15.178  56.534  52.637  0.00  0.00    +0.000 OA
ATOM     14  O   UNL     1     -16.685  56.291  50.631  0.00  0.00    +0.000 OA
ATOM     15  N   UNL     1     -14.432  55.266  50.627  0.00  0.00    +0.000 N 
ATOM     16  C   UNL     1     -14.757  57.978  50.560  0.00  0.00    +0.000 A 
ATOM     17  C   UNL     1     -13.336  55.511  49.969  0.00  0.00    +0.000 C 
ATOM     18  C   UNL     1     -13.549  57.957  49.880  0.00  0.00    +0.000 A 
ATOM     19  C   UNL     1     -15.477  59.157  50.766  0.00  0.00    +0.000 A 
ATOM     20  N   UNL     1     -12.879  56.763  49.629  0.00  0.00    +0.000 N 
ATOM     21  C   UNL     1     -13.067  59.166  49.358  0.00  0.00    +0.000 A 
ATOM     22  C   UNL     1     -14.979  60.353  50.255  0.00  0.00    +0.000 A 
ATOM     23  C   UNL     1     -13.776  60.355  49.552  0.00  0.00    +0.000 A 
ATOM     24  H   UNL     1     -14.701  54.332  50.782  0.00  0.00    +0.000 HD
ATOM     25  H   UNL     1     -12.009  56.820  49.172  0.00  0.00    +0.000 HD
ENDBRANCH   1  17
BRANCH   3  26
ATOM     26  O   UNL     1     -12.692  53.299  51.744  0.00  0.00    +0.000 OA
ATOM     27  H   UNL     1     -12.646  54.077  52.263  0.00  0.00    +0.000 HD
ENDBRANCH   3  26
BRANCH   5  28
ATOM     28  C   UNL     1     -10.787  52.985  46.398  0.00  0.00    +0.000 C 
BRANCH  28  29
ATOM     29  C   UNL     1      -9.799  54.105  46.015  0.00  0.00    +0.000 C 
BRANCH  29  30
ATOM     30  C   UNL     1      -8.539  53.623  45.240  0.00  0.00    +0.000 C 
ATOM     31  C   UNL     1      -8.908  53.014  43.875  0.00  0.00    +0.000 C 
ATOM     32  C   UNL     1      -7.619  54.835  44.987  0.00  0.00    +0.000 C 
ATOM     33  C   UNL     1      -7.762  52.587  46.067  0.00  0.00    +0.000 C 
ENDBRANCH  29  30
ENDBRANCH  28  29
ENDBRANCH   5  28
TORSDOF 5
ENDMDL
MODEL 4
REMARK VINA RESULT:      -8.2      2.810      8.117
REMARK  Name = 338095
REMARK  8 active torsions:
REMARK  status: ('A' for Active; 'I' for Inactive)
REMARK    1  A    between atoms: C_6  and  C_10
REMARK    2  A    between atoms: C_14  and  O_18
REMARK    3  A    between atoms: N_17  and  C_21
REMARK    4  A    between atoms: C_21  and  C_24
REMARK    5  A    between atoms: C_24  and  C_27
REMARK    6  A    between atoms: C_27  and  C_28
REMARK    7  A    between atoms: C_27  and  C_29
REMARK    8  A    between atoms: C_27  and  C_30
REMARK                            x       y       z     vdW  Elec       q    Type
REMARK                         _______ _______ _______ _____ _____    ______ ____
ROOT
ATOM      1  C   UNL     1     -10.054  54.436  52.355  0.00  0.00    +0.000 A 
ATOM      2  C   UNL     1      -8.643  54.886  52.142  0.00  0.00    +0.000 A 
ATOM      3  C   UNL     1     -10.300  53.342  53.098  0.00  0.00    +0.000 A 
ATOM      4  O   UNL     1      -8.445  55.853  51.401  0.00  0.00    +0.000 OA
ATOM      5  N   UNL     1      -7.615  54.193  52.777  0.00  0.00    +0.000 N 
ATOM      6  C   UNL     1      -9.206  52.625  53.768  0.00  0.00    +0.000 A 
ATOM      7  C   UNL     1      -7.884  53.077  53.628  0.00  0.00    +0.000 A 
ATOM      8  C   UNL     1      -9.474  51.510  54.583  0.00  0.00    +0.000 A 
ATOM      9  C   UNL     1      -6.868  52.415  54.338  0.00  0.00    +0.000 A 
ATOM     10  C   UNL     1      -8.451  50.850  55.261  0.00  0.00    +0.000 A 
ATOM     11  C   UNL     1      -7.146  51.306  55.140  0.00  0.00    +0.000 A 
ENDROOT
BRANCH   1  17
ATOM     12  S   UNL     1     -12.403  55.855  49.534  0.00  0.00    +0.000 S 
ATOM     13  O   UNL     1     -13.252  54.805  49.003  0.00  0.00    +0.000 OA
ATOM     14  O   UNL     1     -11.797  56.834  48.651  0.00  0.00    +0.000 OA
ATOM     15  N   UNL     1     -11.207  55.164  50.380  0.00  0.00    +0.000 N 
ATOM     16  C   UNL     1     -13.403  56.767  50.646  0.00  0.00    +0.000 A 
ATOM     17  C   UNL     1     -11.193  55.187  51.682  0.00  0.00    +0.000 C 
ATOM     18  C   UNL     1     -13.168  56.613  52.004  0.00  0.00    +0.000 A 
ATOM     19  C   UNL     1     -14.414  57.596  50.154  0.00  0.00    +0.000 A 
ATOM     20  N   UNL     1     -12.115  55.832  52.473  0.00  0.00    +0.000 N 
ATOM     21  C   UNL     1     -13.959  57.349  52.897  0.00  0.00    +0.000 A 
ATOM     22  C   UNL     1     -15.201  58.311  51.053  0.00  0.00    +0.000 A 
ATOM     23  C   UNL     1     -14.973  58.186  52.422  0.00  0.00    +0.000 A 
ATOM     24  H   UNL     1     -10.475  54.714  49.899  0.00  0.00    +0.000 HD
ATOM     25  H   UNL     1     -12.023  55.735  53.448  0.00  0.00    +0.000 HD
ENDBRANCH   1  17
BRANCH   3  26
ATOM     26  O   UNL     1     -11.559  52.803  53.308  0.00  0.00    +0.000 OA
ATOM     27  H   UNL     1     -11.859  52.641  54.180  0.00  0.00    +0.000 HD
ENDBRANCH   3  26
BRANCH   5  28
ATOM     28  C   UNL     1      -6.241  54.684  52.603  0.00  0.00    +0.000 C 
BRANCH  28  29
ATOM     29  C   UNL     1      -5.686  54.531  51.173  0.00  0.00    +0.000 C 
BRANCH  29  30
ATOM     30  C   UNL     1      -5.007  53.160  50.883  0.00  0.00    +0.000 C 
ATOM     31  C   UNL     1      -6.044  52.030  50.745  0.00  0.00    +0.000 C 
ATOM     32  C   UNL     1      -4.234  53.263  49.552  0.00  0.00    +0.000 C 
ATOM     33  C   UNL     1      -4.012  52.805  51.998  0.00  0.00    +0.000 C 
ENDBRANCH  29  30
ENDBRANCH  28  29
ENDBRANCH   5  28
TORSDOF 5
ENDMDL
MODEL 5
REMARK VINA RESULT:      -8.2      1.896      2.706
REMARK  Name = 338095
REMARK  8 active torsions:
REMARK  status: ('A' for Active; 'I' for Inactive)
REMARK    1  A    between atoms: C_6  and  C_10
REMARK    2  A    between atoms: C_14  and  O_18
REMARK    3  A    between atoms: N_17  and  C_21
REMARK    4  A    between atoms: C_21  and  C_24
REMARK    5  A    between atoms: C_24  and  C_27
REMARK    6  A    between atoms: C_27  and  C_28
REMARK    7  A    between atoms: C_27  and  C_29
REMARK    8  A    between atoms: C_27  and  C_30
REMARK                            x       y       z     vdW  Elec       q    Type
REMARK                         _______ _______ _______ _____ _____    ______ ____
ROOT
ATOM      1  C   UNL     1      -9.770  54.148  50.679  0.00  0.00    +0.000 A 
ATOM      2  C   UNL     1     -11.045  54.452  51.400  0.00  0.00    +0.000 A 
ATOM      3  C   UNL     1      -9.681  54.374  49.356  0.00  0.00    +0.000 A 
ATOM      4  O   UNL     1     -11.118  54.171  52.600  0.00  0.00    +0.000 OA
ATOM      5  N   UNL     1     -12.096  55.027  50.689  0.00  0.00    +0.000 N 
ATOM      6  C   UNL     1     -10.796  54.988  48.620  0.00  0.00    +0.000 A 
ATOM      7  C   UNL     1     -11.973  55.337  49.299  0.00  0.00    +0.000 A 
ATOM      8  C   UNL     1     -10.680  55.266  47.246  0.00  0.00    +0.000 A 
ATOM      9  C   UNL     1     -12.994  55.989  48.586  0.00  0.00    +0.000 A 
ATOM     10  C   UNL     1     -11.711  55.890  46.548  0.00  0.00    +0.000 A 
ATOM     11  C   UNL     1     -12.869  56.254  47.221  0.00  0.00    +0.000 A 
ENDROOT
BRANCH   1  17
ATOM     12  S   UNL     1      -7.737  51.723  53.020  0.00  0.00    +0.000 S 
ATOM     13  O   UNL     1      -7.529  50.443  52.370  0.00  0.00    +0.000 OA
ATOM     14  O   UNL     1      -8.073  51.790  54.431  0.00  0.00    +0.000 OA
ATOM     15  N   UNL     1      -8.890  52.524  52.212  0.00  0.00    +0.000 N 
ATOM     16  C   UNL     1      -6.233  52.604  52.843  0.00  0.00    +0.000 A 
ATOM     17  C   UNL     1      -8.604  53.532  51.439  0.00  0.00    +0.000 C 
ATOM     18  C   UNL     1      -6.203  53.659  51.943  0.00  0.00    +0.000 A 
ATOM     19  C   UNL     1      -5.110  52.219  53.578  0.00  0.00    +0.000 A 
ATOM     20  N   UNL     1      -7.349  54.068  51.269  0.00  0.00    +0.000 N 
ATOM     21  C   UNL     1      -5.004  54.373  51.807  0.00  0.00    +0.000 A 
ATOM     22  C   UNL     1      -3.922  52.928  53.422  0.00  0.00    +0.000 A 
ATOM     23  C   UNL     1      -3.871  54.003  52.537  0.00  0.00    +0.000 A 
ATOM     24  H   UNL     1      -9.828  52.241  52.306  0.00  0.00    +0.000 HD
ATOM     25  H   UNL     1      -7.254  54.801  50.617  0.00  0.00    +0.000 HD
ENDBRANCH   1  17
BRANCH   3  26
ATOM     26  O   UNL     1      -8.573  54.072  48.581  0.00  0.00    +0.000 OA
ATOM     27  H   UNL     1      -8.171  54.738  48.059  0.00  0.00    +0.000 HD
ENDBRANCH   3  26
BRANCH   5  28
ATOM     28  C   UNL     1     -13.320  55.372  51.425  0.00  0.00    +0.000 C 
BRANCH  28  29
ATOM     29  C   UNL     1     -13.295  56.766  52.085  0.00  0.00    +0.000 C 
BRANCH  29  30
ATOM     30  C   UNL     1     -14.593  57.601  51.888  0.00  0.00    +0.000 C 
ATOM     31  C   UNL     1     -14.339  58.856  51.033  0.00  0.00    +0.000 C 
ATOM     32  C   UNL     1     -15.636  56.731  51.158  0.00  0.00    +0.000 C 
ATOM     33  C   UNL     1     -15.175  58.020  53.248  0.00  0.00    +0.000 C 
ENDBRANCH  29  30
ENDBRANCH  28  29
ENDBRANCH   5  28
TORSDOF 5
ENDMDL
MODEL 6
REMARK VINA RESULT:      -8.1      2.587      2.933
REMARK  Name = 338095
REMARK  8 active torsions:
REMARK  status: ('A' for Active; 'I' for Inactive)
REMARK    1  A    between atoms: C_6  and  C_10
REMARK    2  A    between atoms: C_14  and  O_18
REMARK    3  A    between atoms: N_17  and  C_21
REMARK    4  A    between atoms: C_21  and  C_24
REMARK    5  A    between atoms: C_24  and  C_27
REMARK    6  A    between atoms: C_27  and  C_28
REMARK    7  A    between atoms: C_27  and  C_29
REMARK    8  A    between atoms: C_27  and  C_30
REMARK                            x       y       z     vdW  Elec       q    Type
REMARK                         _______ _______ _______ _____ _____    ______ ____
ROOT
ATOM      1  C   UNL     1      -9.956  55.245  50.343  0.00  0.00    +0.000 A 
ATOM      2  C   UNL     1     -11.085  55.343  51.321  0.00  0.00    +0.000 A 
ATOM      3  C   UNL     1     -10.182  55.482  49.038  0.00  0.00    +0.000 A 
ATOM      4  O   UNL     1     -10.861  55.054  52.500  0.00  0.00    +0.000 OA
ATOM      5  N   UNL     1     -12.337  55.743  50.861  0.00  0.00    +0.000 N 
ATOM      6  C   UNL     1     -11.507  55.910  48.569  0.00  0.00    +0.000 A 
ATOM      7  C   UNL     1     -12.557  56.068  49.487  0.00  0.00    +0.000 A 
ATOM      8  C   UNL     1     -11.725  56.203  47.210  0.00  0.00    +0.000 A 
ATOM      9  C   UNL     1     -13.793  56.549  49.020  0.00  0.00    +0.000 A 
ATOM     10  C   UNL     1     -12.964  56.655  46.761  0.00  0.00    +0.000 A 
ATOM     11  C   UNL     1     -13.998  56.831  47.668  0.00  0.00    +0.000 A 
ENDROOT
BRANCH   1  17
ATOM     12  S   UNL     1      -6.453  53.454  50.450  0.00  0.00    +0.000 S 
ATOM     13  O   UNL     1      -5.545  54.054  49.492  0.00  0.00    +0.000 OA
ATOM     14  O   UNL     1      -6.493  52.014  50.631  0.00  0.00    +0.000 OA
ATOM     15  N   UNL     1      -7.958  53.937  50.098  0.00  0.00    +0.000 N 
ATOM     16  C   UNL     1      -6.016  54.120  52.011  0.00  0.00    +0.000 A 
ATOM     17  C   UNL     1      -8.576  54.823  50.826  0.00  0.00    +0.000 C 
ATOM     18  C   UNL     1      -6.870  55.054  52.578  0.00  0.00    +0.000 A 
ATOM     19  C   UNL     1      -4.828  53.724  52.629  0.00  0.00    +0.000 A 
ATOM     20  N   UNL     1      -8.080  55.388  51.977  0.00  0.00    +0.000 N 
ATOM     21  C   UNL     1      -6.528  55.582  53.831  0.00  0.00    +0.000 A 
ATOM     22  C   UNL     1      -4.494  54.267  53.867  0.00  0.00    +0.000 A 
ATOM     23  C   UNL     1      -5.345  55.195  54.466  0.00  0.00    +0.000 A 
ATOM     24  H   UNL     1      -8.416  53.554  49.315  0.00  0.00    +0.000 HD
ATOM     25  H   UNL     1      -8.625  56.083  52.412  0.00  0.00    +0.000 HD
ENDBRANCH   1  17
BRANCH   3  26
ATOM     26  O   UNL     1      -9.227  55.359  48.042  0.00  0.00    +0.000 OA
ATOM     27  H   UNL     1      -8.441  54.878  48.204  0.00  0.00    +0.000 HD
ENDBRANCH   3  26
BRANCH   5  28
ATOM     28  C   UNL     1     -13.419  55.889  51.844  0.00  0.00    +0.000 C 
BRANCH  28  29
ATOM     29  C   UNL     1     -13.517  57.291  52.480  0.00  0.00    +0.000 C 
BRANCH  29  30
ATOM     30  C   UNL     1     -14.918  57.958  52.368  0.00  0.00    +0.000 C 
ATOM     31  C   UNL     1     -14.919  59.111  51.348  0.00  0.00    +0.000 C 
ATOM     32  C   UNL     1     -15.934  56.900  51.894  0.00  0.00    +0.000 C 
ATOM     33  C   UNL     1     -15.372  58.490  53.737  0.00  0.00    +0.000 C 
ENDBRANCH  29  30
ENDBRANCH  28  29
ENDBRANCH   5  28
TORSDOF 5
ENDMDL
MODEL 7
REMARK VINA RESULT:      -8.1      1.976      4.886
REMARK  Name = 338095
REMARK  8 active torsions:
REMARK  status: ('A' for Active; 'I' for Inactive)
REMARK    1  A    between atoms: C_6  and  C_10
REMARK    2  A    between atoms: C_14  and  O_18
REMARK    3  A    between atoms: N_17  and  C_21
REMARK    4  A    between atoms: C_21  and  C_24
REMARK    5  A    between atoms: C_24  and  C_27
REMARK    6  A    between atoms: C_27  and  C_28
REMARK    7  A    between atoms: C_27  and  C_29
REMARK    8  A    between atoms: C_27  and  C_30
REMARK                            x       y       z     vdW  Elec       q    Type
REMARK                         _______ _______ _______ _____ _____    ______ ____
ROOT
ATOM      1  C   UNL     1     -10.485  54.834  50.520  0.00  0.00    +0.000 A 
ATOM      2  C   UNL     1     -10.062  54.862  49.085  0.00  0.00    +0.000 A 
ATOM      3  C   UNL     1     -11.633  55.430  50.889  0.00  0.00    +0.000 A 
ATOM      4  O   UNL     1      -8.972  54.365  48.788  0.00  0.00    +0.000 OA
ATOM      5  N   UNL     1     -10.906  55.455  48.149  0.00  0.00    +0.000 N 
ATOM      6  C   UNL     1     -12.517  56.045  49.890  0.00  0.00    +0.000 A 
ATOM      7  C   UNL     1     -12.162  56.021  48.532  0.00  0.00    +0.000 A 
ATOM      8  C   UNL     1     -13.740  56.625  50.276  0.00  0.00    +0.000 A 
ATOM      9  C   UNL     1     -13.061  56.552  47.592  0.00  0.00    +0.000 A 
ATOM     10  C   UNL     1     -14.608  57.169  49.333  0.00  0.00    +0.000 A 
ATOM     11  C   UNL     1     -14.269  57.130  47.988  0.00  0.00    +0.000 A 
ENDROOT
BRANCH   1  17
ATOM     12  S   UNL     1      -9.078  52.180  53.064  0.00  0.00    +0.000 S 
ATOM     13  O   UNL     1      -8.480  51.064  52.356  0.00  0.00    +0.000 OA
ATOM     14  O   UNL     1      -9.890  51.957  54.246  0.00  0.00    +0.000 OA
ATOM     15  N   UNL     1      -9.977  53.025  52.014  0.00  0.00    +0.000 N 
ATOM     16  C   UNL     1      -7.746  53.193  53.582  0.00  0.00    +0.000 A 
ATOM     17  C   UNL     1      -9.584  54.179  51.557  0.00  0.00    +0.000 C 
ATOM     18  C   UNL     1      -7.552  54.396  52.920  0.00  0.00    +0.000 A 
ATOM     19  C   UNL     1      -6.907  52.765  54.614  0.00  0.00    +0.000 A 
ATOM     20  N   UNL     1      -8.436  54.834  51.939  0.00  0.00    +0.000 N 
ATOM     21  C   UNL     1      -6.492  55.213  53.339  0.00  0.00    +0.000 A 
ATOM     22  C   UNL     1      -5.850  53.581  55.010  0.00  0.00    +0.000 A 
ATOM     23  C   UNL     1      -5.645  54.804  54.372  0.00  0.00    +0.000 A 
ATOM     24  H   UNL     1     -10.840  52.658  51.715  0.00  0.00    +0.000 HD
ATOM     25  H   UNL     1      -8.223  55.680  51.482  0.00  0.00    +0.000 HD
ENDBRANCH   1  17
BRANCH   3  26
ATOM     26  O   UNL     1     -12.087  55.517  52.195  0.00  0.00    +0.000 OA
ATOM     27  H   UNL     1     -12.843  56.033  52.394  0.00  0.00    +0.000 HD
ENDBRANCH   3  26
BRANCH   5  28
ATOM     28  C   UNL     1     -10.503  55.423  46.737  0.00  0.00    +0.000 C 
BRANCH  28  29
ATOM     29  C   UNL     1     -11.082  54.241  45.935  0.00  0.00    +0.000 C 
BRANCH  29  30
ATOM     30  C   UNL     1     -10.017  53.287  45.322  0.00  0.00    +0.000 C 
ATOM     31  C   UNL     1     -10.406  52.834  43.903  0.00  0.00    +0.000 C 
ATOM     32  C   UNL     1      -8.674  54.039  45.230  0.00  0.00    +0.000 C 
ATOM     33  C   UNL     1      -9.822  52.051  46.215  0.00  0.00    +0.000 C 
ENDBRANCH  29  30
ENDBRANCH  28  29
ENDBRANCH   5  28
TORSDOF 5
ENDMDL
MODEL 8
REMARK VINA RESULT:      -8.1      3.139      7.846
REMARK  Name = 338095
REMARK  8 active torsions:
REMARK  status: ('A' for Active; 'I' for Inactive)
REMARK    1  A    between atoms: C_6  and  C_10
REMARK    2  A    between atoms: C_14  and  O_18
REMARK    3  A    between atoms: N_17  and  C_21
REMARK    4  A    between atoms: C_21  and  C_24
REMARK    5  A    between atoms: C_24  and  C_27
REMARK    6  A    between atoms: C_27  and  C_28
REMARK    7  A    between atoms: C_27  and  C_29
REMARK    8  A    between atoms: C_27  and  C_30
REMARK                            x       y       z     vdW  Elec       q    Type
REMARK                         _______ _______ _______ _____ _____    ______ ____
ROOT
ATOM      1  C   UNL     1     -10.926  54.604  51.293  0.00  0.00    +0.000 A 
ATOM      2  C   UNL     1      -9.475  54.968  51.262  0.00  0.00    +0.000 A 
ATOM      3  C   UNL     1     -11.288  53.318  51.458  0.00  0.00    +0.000 A 
ATOM      4  O   UNL     1      -9.174  56.145  51.042  0.00  0.00    +0.000 OA
ATOM      5  N   UNL     1      -8.528  53.969  51.471  0.00  0.00    +0.000 N 
ATOM      6  C   UNL     1     -10.277  52.275  51.685  0.00  0.00    +0.000 A 
ATOM      7  C   UNL     1      -8.916  52.616  51.723  0.00  0.00    +0.000 A 
ATOM      8  C   UNL     1     -10.663  50.941  51.905  0.00  0.00    +0.000 A 
ATOM      9  C   UNL     1      -7.979  51.611  52.015  0.00  0.00    +0.000 A 
ATOM     10  C   UNL     1      -9.719  49.952  52.168  0.00  0.00    +0.000 A 
ATOM     11  C   UNL     1      -8.374  50.289  52.226  0.00  0.00    +0.000 A 
ENDROOT
BRANCH   1  17
ATOM     12  S   UNL     1     -13.198  57.261  49.485  0.00  0.00    +0.000 S 
ATOM     13  O   UNL     1     -14.224  56.603  48.698  0.00  0.00    +0.000 OA
ATOM     14  O   UNL     1     -12.505  58.428  48.969  0.00  0.00    +0.000 OA
ATOM     15  N   UNL     1     -12.071  56.164  49.873  0.00  0.00    +0.000 N 
ATOM     16  C   UNL     1     -13.983  57.784  50.961  0.00  0.00    +0.000 A 
ATOM     17  C   UNL     1     -11.978  55.683  51.079  0.00  0.00    +0.000 C 
ATOM     18  C   UNL     1     -13.695  57.093  52.128  0.00  0.00    +0.000 A 
ATOM     19  C   UNL     1     -14.885  58.850  50.929  0.00  0.00    +0.000 A 
ATOM     20  N   UNL     1     -12.745  56.076  52.151  0.00  0.00    +0.000 N 
ATOM     21  C   UNL     1     -14.314  57.515  53.313  0.00  0.00    +0.000 A 
ATOM     22  C   UNL     1     -15.504  59.250  52.111  0.00  0.00    +0.000 A 
ATOM     23  C   UNL     1     -15.217  58.582  53.301  0.00  0.00    +0.000 A 
ATOM     24  H   UNL     1     -11.444  55.853  49.181  0.00  0.00    +0.000 HD
ATOM     25  H   UNL     1     -12.611  55.600  53.003  0.00  0.00    +0.000 HD
ENDBRANCH   1  17
BRANCH   3  26
ATOM     26  O   UNL     1     -12.596  52.863  51.439  0.00  0.00    +0.000 OA
ATOM     27  H   UNL     1     -13.137  52.964  52.197  0.00  0.00    +0.000 HD
ENDBRANCH   3  26
BRANCH   5  28
ATOM     28  C   UNL     1      -7.111  54.354  51.496  0.00  0.00    +0.000 C 
BRANCH  28  29
ATOM     29  C   UNL     1      -6.650  55.004  52.816  0.00  0.00    +0.000 C 
BRANCH  29  30
ATOM     30  C   UNL     1      -5.552  54.211  53.582  0.00  0.00    +0.000 C 
ATOM     31  C   UNL     1      -4.528  55.150  54.245  0.00  0.00    +0.000 C 
ATOM     32  C   UNL     1      -6.225  53.380  54.693  0.00  0.00    +0.000 C 
ATOM     33  C   UNL     1      -4.819  53.250  52.632  0.00  0.00    +0.000 C 
ENDBRANCH  29  30
ENDBRANCH  28  29
ENDBRANCH   5  28
TORSDOF 5
ENDMDL
MODEL 9
REMARK VINA RESULT:      -8.0      2.100      2.386
REMARK  Name = 338095
REMARK  8 active torsions:
REMARK  status: ('A' for Active; 'I' for Inactive)
REMARK    1  A    between atoms: C_6  and  C_10
REMARK    2  A    between atoms: C_14  and  O_18
REMARK    3  A    between atoms: N_17  and  C_21
REMARK    4  A    between atoms: C_21  and  C_24
REMARK    5  A    between atoms: C_24  and  C_27
REMARK    6  A    between atoms: C_27  and  C_28
REMARK    7  A    between atoms: C_27  and  C_29
REMARK    8  A    between atoms: C_27  and  C_30
REMARK                            x       y       z     vdW  Elec       q    Type
REMARK                         _______ _______ _______ _____ _____    ______ ____
ROOT
ATOM      1  C   UNL     1      -9.434  54.791  50.853  0.00  0.00    +0.000 A 
ATOM      2  C   UNL     1     -10.754  54.952  51.540  0.00  0.00    +0.000 A 
ATOM      3  C   UNL     1      -9.359  54.913  49.515  0.00  0.00    +0.000 A 
ATOM      4  O   UNL     1     -10.803  54.767  52.759  0.00  0.00    +0.000 OA
ATOM      5  N   UNL     1     -11.869  55.291  50.777  0.00  0.00    +0.000 N 
ATOM      6  C   UNL     1     -10.543  55.279  48.725  0.00  0.00    +0.000 A 
ATOM      7  C   UNL     1     -11.772  55.496  49.366  0.00  0.00    +0.000 A 
ATOM      8  C   UNL     1     -10.448  55.453  47.332  0.00  0.00    +0.000 A 
ATOM      9  C   UNL     1     -12.869  55.915  48.594  0.00  0.00    +0.000 A 
ATOM     10  C   UNL     1     -11.551  55.845  46.578  0.00  0.00    +0.000 A 
ATOM     11  C   UNL     1     -12.763  56.079  47.212  0.00  0.00    +0.000 A 
ENDROOT
BRANCH   1  17
ATOM     12  S   UNL     1      -6.656  54.950  53.637  0.00  0.00    +0.000 S 
ATOM     13  O   UNL     1      -7.190  54.520  54.915  0.00  0.00    +0.000 OA
ATOM     14  O   UNL     1      -5.755  56.085  53.555  0.00  0.00    +0.000 OA
ATOM     15  N   UNL     1      -7.897  55.247  52.639  0.00  0.00    +0.000 N 
ATOM     16  C   UNL     1      -5.762  53.582  53.004  0.00  0.00    +0.000 A 
ATOM     17  C   UNL     1      -8.200  54.434  51.669  0.00  0.00    +0.000 C 
ATOM     18  C   UNL     1      -6.316  52.882  51.943  0.00  0.00    +0.000 A 
ATOM     19  C   UNL     1      -4.545  53.217  53.585  0.00  0.00    +0.000 A 
ATOM     20  N   UNL     1      -7.496  53.300  51.336  0.00  0.00    +0.000 N 
ATOM     21  C   UNL     1      -5.598  51.793  51.428  0.00  0.00    +0.000 A 
ATOM     22  C   UNL     1      -3.850  52.125  53.072  0.00  0.00    +0.000 A 
ATOM     23  C   UNL     1      -4.377  51.415  51.994  0.00  0.00    +0.000 A 
ATOM     24  H   UNL     1      -8.435  56.062  52.770  0.00  0.00    +0.000 HD
ATOM     25  H   UNL     1      -7.856  52.740  50.611  0.00  0.00    +0.000 HD
ENDBRANCH   1  17
BRANCH   3  26
ATOM     26  O   UNL     1      -8.204  54.724  48.774  0.00  0.00    +0.000 OA
ATOM     27  H   UNL     1      -7.743  55.462  48.429  0.00  0.00    +0.000 HD
ENDBRANCH   3  26
BRANCH   5  28
ATOM     28  C   UNL     1     -13.144  55.501  51.476  0.00  0.00    +0.000 C 
BRANCH  28  29
ATOM     29  C   UNL     1     -13.291  56.889  52.131  0.00  0.00    +0.000 C 
BRANCH  29  30
ATOM     30  C   UNL     1     -14.630  57.618  51.818  0.00  0.00    +0.000 C 
ATOM     31  C   UNL     1     -15.642  56.680  51.134  0.00  0.00    +0.000 C 
ATOM     32  C   UNL     1     -15.251  58.102  53.144  0.00  0.00    +0.000 C 
ATOM     33  C   UNL     1     -14.382  58.841  50.921  0.00  0.00    +0.000 C 
ENDBRANCH  29  30
ENDBRANCH  28  29
ENDBRANCH   5  28
TORSDOF 5
ENDMDL
