MODEL 1
REMARK VINA RESULT:      -8.6      0.000      0.000
REMARK  Name = 338168
REMARK  5 active torsions:
REMARK  status: ('A' for Active; 'I' for Inactive)
REMARK    1  A    between atoms: C_6  and  C_10
REMARK    2  A    between atoms: C_14  and  O_18
REMARK    3  A    between atoms: N_17  and  C_21
REMARK    4  A    between atoms: C_21  and  C_24
REMARK    5  A    between atoms: C_24  and  C_27
REMARK                            x       y       z     vdW  Elec       q    Type
REMARK                         _______ _______ _______ _____ _____    ______ ____
ROOT
ATOM      1  C   UNL     1      -9.978  54.541  52.370  0.00  0.00    +0.000 A 
ATOM      2  C   UNL     1      -8.582  55.042  52.248  0.00  0.00    +0.000 A 
ATOM      3  C   UNL     1     -10.231  53.414  53.057  0.00  0.00    +0.000 A 
ATOM      4  O   UNL     1      -8.382  55.976  51.470  0.00  0.00    +0.000 OA
ATOM      5  N   UNL     1      -7.586  54.464  53.037  0.00  0.00    +0.000 N 
ATOM      6  C   UNL     1      -9.150  52.704  53.747  0.00  0.00    +0.000 A 
ATOM      7  C   UNL     1      -7.845  53.241  53.754  0.00  0.00    +0.000 A 
ATOM      8  C   UNL     1      -9.427  51.510  54.438  0.00  0.00    +0.000 A 
ATOM      9  C   UNL     1      -6.850  52.547  54.468  0.00  0.00    +0.000 A 
ATOM     10  C   UNL     1      -8.432  50.866  55.152  0.00  0.00    +0.000 A 
ATOM     11  C   UNL     1      -7.146  51.375  55.176  0.00  0.00    +0.000 A 
ATOM     12  F   UNL     1      -8.716  49.748  55.831  0.00  0.00    +0.000 F 
ENDROOT
BRANCH   1  18
ATOM     13  S   UNL     1     -12.361  55.773  49.426  0.00  0.00    +0.000 S 
ATOM     14  O   UNL     1     -13.035  54.530  49.133  0.00  0.00    +0.000 OA
ATOM     15  O   UNL     1     -11.913  56.667  48.378  0.00  0.00    +0.000 OA
ATOM     16  N   UNL     1     -11.041  55.439  50.358  0.00  0.00    +0.000 N 
ATOM     17  C   UNL     1     -13.353  56.679  50.528  0.00  0.00    +0.000 A 
ATOM     18  C   UNL     1     -11.118  55.269  51.738  0.00  0.00    +0.000 C 
ATOM     19  C   UNL     1     -13.095  56.540  51.888  0.00  0.00    +0.000 A 
ATOM     20  C   UNL     1     -14.343  57.535  50.037  0.00  0.00    +0.000 A 
ATOM     21  N   UNL     1     -12.107  55.713  52.449  0.00  0.00    +0.000 N 
ATOM     22  C   UNL     1     -13.859  57.305  52.774  0.00  0.00    +0.000 A 
ATOM     23  C   UNL     1     -15.100  58.279  50.937  0.00  0.00    +0.000 A 
ATOM     24  C   UNL     1     -14.853  58.171  52.307  0.00  0.00    +0.000 A 
ATOM     25  H   UNL     1     -10.163  55.357  49.922  0.00  0.00    +0.000 HD
ATOM     26  H   UNL     1     -12.168  55.465  53.399  0.00  0.00    +0.000 HD
ENDBRANCH   1  18
BRANCH   3  27
ATOM     27  O   UNL     1     -11.488  52.848  53.205  0.00  0.00    +0.000 OA
ATOM     28  H   UNL     1     -12.048  53.125  53.904  0.00  0.00    +0.000 HD
ENDBRANCH   3  27
BRANCH   5  29
ATOM     29  C   UNL     1      -6.206  55.002  52.961  0.00  0.00    +0.000 C 
BRANCH  29  30
ATOM     30  C   UNL     1      -5.207  54.213  52.094  0.00  0.00    +0.000 C 
BRANCH  30  31
ATOM     31  C   UNL     1      -5.307  54.539  50.630  0.00  0.00    +0.000 C 
ATOM     32  C   UNL     1      -6.126  53.736  49.654  0.00  0.00    +0.000 C 
ATOM     33  C   UNL     1      -4.630  53.617  49.647  0.00  0.00    +0.000 C 
ENDBRANCH  30  31
ENDBRANCH  29  30
ENDBRANCH   5  29
TORSDOF 5
ENDMDL
MODEL 2
REMARK VINA RESULT:      -8.3      3.860      7.423
REMARK  Name = 338168
REMARK  5 active torsions:
REMARK  status: ('A' for Active; 'I' for Inactive)
REMARK    1  A    between atoms: C_6  and  C_10
REMARK    2  A    between atoms: C_14  and  O_18
REMARK    3  A    between atoms: N_17  and  C_21
REMARK    4  A    between atoms: C_21  and  C_24
REMARK    5  A    between atoms: C_24  and  C_27
REMARK                            x       y       z     vdW  Elec       q    Type
REMARK                         _______ _______ _______ _____ _____    ______ ____
ROOT
ATOM      1  C   UNL     1     -10.172  55.096  50.828  0.00  0.00    +0.000 A 
ATOM      2  C   UNL     1      -9.815  55.161  49.385  0.00  0.00    +0.000 A 
ATOM      3  C   UNL     1     -11.365  55.552  51.248  0.00  0.00    +0.000 A 
ATOM      4  O   UNL     1      -8.653  54.892  49.077  0.00  0.00    +0.000 OA
ATOM      5  N   UNL     1     -10.809  55.482  48.457  0.00  0.00    +0.000 N 
ATOM      6  C   UNL     1     -12.350  56.056  50.286  0.00  0.00    +0.000 A 
ATOM      7  C   UNL     1     -12.079  55.997  48.902  0.00  0.00    +0.000 A 
ATOM      8  C   UNL     1     -13.583  56.557  50.744  0.00  0.00    +0.000 A 
ATOM      9  C   UNL     1     -13.074  56.450  48.016  0.00  0.00    +0.000 A 
ATOM     10  C   UNL     1     -14.549  56.970  49.845  0.00  0.00    +0.000 A 
ATOM     11  C   UNL     1     -14.307  56.918  48.484  0.00  0.00    +0.000 A 
ATOM     12  F   UNL     1     -15.730  57.414  50.293  0.00  0.00    +0.000 F 
ENDROOT
BRANCH   1  18
ATOM     13  S   UNL     1      -6.873  54.897  53.050  0.00  0.00    +0.000 S 
ATOM     14  O   UNL     1      -7.135  55.988  53.959  0.00  0.00    +0.000 OA
ATOM     15  O   UNL     1      -5.560  54.671  52.483  0.00  0.00    +0.000 OA
ATOM     16  N   UNL     1      -7.921  55.016  51.782  0.00  0.00    +0.000 N 
ATOM     17  C   UNL     1      -7.401  53.424  53.808  0.00  0.00    +0.000 A 
ATOM     18  C   UNL     1      -9.225  54.531  51.834  0.00  0.00    +0.000 C 
ATOM     19  C   UNL     1      -8.690  52.982  53.527  0.00  0.00    +0.000 A 
ATOM     20  C   UNL     1      -6.529  52.712  54.637  0.00  0.00    +0.000 A 
ATOM     21  N   UNL     1      -9.610  53.638  52.692  0.00  0.00    +0.000 N 
ATOM     22  C   UNL     1      -9.099  51.773  54.095  0.00  0.00    +0.000 A 
ATOM     23  C   UNL     1      -6.961  51.515  55.201  0.00  0.00    +0.000 A 
ATOM     24  C   UNL     1      -8.244  51.041  54.925  0.00  0.00    +0.000 A 
ATOM     25  H   UNL     1      -7.612  55.449  50.954  0.00  0.00    +0.000 HD
ATOM     26  H   UNL     1     -10.567  53.416  52.760  0.00  0.00    +0.000 HD
ENDBRANCH   1  18
BRANCH   3  27
ATOM     27  O   UNL     1     -11.782  55.566  52.570  0.00  0.00    +0.000 OA
ATOM     28  H   UNL     1     -12.473  56.139  52.837  0.00  0.00    +0.000 HD
ENDBRANCH   3  27
BRANCH   5  29
ATOM     29  C   UNL     1     -10.469  55.487  47.014  0.00  0.00    +0.000 C 
BRANCH  29  30
ATOM     30  C   UNL     1     -10.298  54.112  46.342  0.00  0.00    +0.000 C 
BRANCH  30  31
ATOM     31  C   UNL     1     -11.284  53.868  45.234  0.00  0.00    +0.000 C 
ATOM     32  C   UNL     1     -12.040  52.576  45.064  0.00  0.00    +0.000 C 
ATOM     33  C   UNL     1     -10.903  52.902  44.139  0.00  0.00    +0.000 C 
ENDBRANCH  30  31
ENDBRANCH  29  30
ENDBRANCH   5  29
TORSDOF 5
ENDMDL
MODEL 3
REMARK VINA RESULT:      -8.3      3.824      5.414
REMARK  Name = 338168
REMARK  5 active torsions:
REMARK  status: ('A' for Active; 'I' for Inactive)
REMARK    1  A    between atoms: C_6  and  C_10
REMARK    2  A    between atoms: C_14  and  O_18
REMARK    3  A    between atoms: N_17  and  C_21
REMARK    4  A    between atoms: C_21  and  C_24
REMARK    5  A    between atoms: C_24  and  C_27
REMARK                            x       y       z     vdW  Elec       q    Type
REMARK                         _______ _______ _______ _____ _____    ______ ____
ROOT
ATOM      1  C   UNL     1     -11.481  55.792  48.978  0.00  0.00    +0.000 A 
ATOM      2  C   UNL     1     -10.390  55.119  49.735  0.00  0.00    +0.000 A 
ATOM      3  C   UNL     1     -11.653  55.532  47.671  0.00  0.00    +0.000 A 
ATOM      4  O   UNL     1     -10.167  55.517  50.880  0.00  0.00    +0.000 OA
ATOM      5  N   UNL     1      -9.707  54.059  49.136  0.00  0.00    +0.000 N 
ATOM      6  C   UNL     1     -10.814  54.539  46.993  0.00  0.00    +0.000 A 
ATOM      7  C   UNL     1      -9.867  53.795  47.728  0.00  0.00    +0.000 A 
ATOM      8  C   UNL     1     -10.987  54.299  45.617  0.00  0.00    +0.000 A 
ATOM      9  C   UNL     1      -9.117  52.820  47.043  0.00  0.00    +0.000 A 
ATOM     10  C   UNL     1     -10.252  53.317  44.979  0.00  0.00    +0.000 A 
ATOM     11  C   UNL     1      -9.320  52.572  45.680  0.00  0.00    +0.000 A 
ATOM     12  F   UNL     1     -10.449  53.077  43.677  0.00  0.00    +0.000 F 
ENDROOT
BRANCH   1  18
ATOM     13  S   UNL     1     -13.528  59.176  49.445  0.00  0.00    +0.000 S 
ATOM     14  O   UNL     1     -14.522  58.995  48.413  0.00  0.00    +0.000 OA
ATOM     15  O   UNL     1     -12.886  60.454  49.675  0.00  0.00    +0.000 OA
ATOM     16  N   UNL     1     -12.321  58.078  49.201  0.00  0.00    +0.000 N 
ATOM     17  C   UNL     1     -14.206  58.629  50.949  0.00  0.00    +0.000 A 
ATOM     18  C   UNL     1     -12.400  56.762  49.645  0.00  0.00    +0.000 C 
ATOM     19  C   UNL     1     -13.955  57.313  51.326  0.00  0.00    +0.000 A 
ATOM     20  C   UNL     1     -14.942  59.509  51.747  0.00  0.00    +0.000 A 
ATOM     21  N   UNL     1     -13.211  56.381  50.582  0.00  0.00    +0.000 N 
ATOM     22  C   UNL     1     -14.457  56.885  52.558  0.00  0.00    +0.000 A 
ATOM     23  C   UNL     1     -15.443  59.059  52.965  0.00  0.00    +0.000 A 
ATOM     24  C   UNL     1     -15.195  57.748  53.375  0.00  0.00    +0.000 A 
ATOM     25  H   UNL     1     -11.511  58.366  48.722  0.00  0.00    +0.000 HD
ATOM     26  H   UNL     1     -13.309  55.421  50.776  0.00  0.00    +0.000 HD
ENDBRANCH   1  18
BRANCH   3  27
ATOM     27  O   UNL     1     -12.616  56.125  46.870  0.00  0.00    +0.000 OA
ATOM     28  H   UNL     1     -13.469  56.301  47.215  0.00  0.00    +0.000 HD
ENDBRANCH   3  27
BRANCH   5  29
ATOM     29  C   UNL     1      -8.661  53.349  49.912  0.00  0.00    +0.000 C 
BRANCH  29  30
ATOM     30  C   UNL     1      -7.455  54.190  50.371  0.00  0.00    +0.000 C 
BRANCH  30  31
ATOM     31  C   UNL     1      -6.744  54.874  49.236  0.00  0.00    +0.000 C 
ATOM     32  C   UNL     1      -5.810  54.164  48.292  0.00  0.00    +0.000 C 
ATOM     33  C   UNL     1      -5.253  55.076  49.347  0.00  0.00    +0.000 C 
ENDBRANCH  30  31
ENDBRANCH  29  30
ENDBRANCH   5  29
TORSDOF 5
ENDMDL
MODEL 4
REMARK VINA RESULT:      -8.2      3.673      7.279
REMARK  Name = 338168
REMARK  5 active torsions:
REMARK  status: ('A' for Active; 'I' for Inactive)
REMARK    1  A    between atoms: C_6  and  C_10
REMARK    2  A    between atoms: C_14  and  O_18
REMARK    3  A    between atoms: N_17  and  C_21
REMARK    4  A    between atoms: C_21  and  C_24
REMARK    5  A    between atoms: C_24  and  C_27
REMARK                            x       y       z     vdW  Elec       q    Type
REMARK                         _______ _______ _______ _____ _____    ______ ____
ROOT
ATOM      1  C   UNL     1     -10.179  55.440  50.467  0.00  0.00    +0.000 A 
ATOM      2  C   UNL     1     -10.344  55.696  49.010  0.00  0.00    +0.000 A 
ATOM      3  C   UNL     1     -11.216  55.614  51.303  0.00  0.00    +0.000 A 
ATOM      4  O   UNL     1      -9.328  55.689  48.315  0.00  0.00    +0.000 OA
ATOM      5  N   UNL     1     -11.630  55.891  48.501  0.00  0.00    +0.000 N 
ATOM      6  C   UNL     1     -12.534  55.993  50.786  0.00  0.00    +0.000 A 
ATOM      7  C   UNL     1     -12.740  56.106  49.395  0.00  0.00    +0.000 A 
ATOM      8  C   UNL     1     -13.603  56.199  51.679  0.00  0.00    +0.000 A 
ATOM      9  C   UNL     1     -14.034  56.427  48.944  0.00  0.00    +0.000 A 
ATOM     10  C   UNL     1     -14.869  56.489  51.201  0.00  0.00    +0.000 A 
ATOM     11  C   UNL     1     -15.095  56.601  49.841  0.00  0.00    +0.000 A 
ATOM     12  F   UNL     1     -15.883  56.651  52.059  0.00  0.00    +0.000 F 
ENDROOT
BRANCH   1  18
ATOM     13  S   UNL     1      -6.578  53.738  50.462  0.00  0.00    +0.000 S 
ATOM     14  O   UNL     1      -5.864  54.700  49.656  0.00  0.00    +0.000 OA
ATOM     15  O   UNL     1      -6.387  52.311  50.301  0.00  0.00    +0.000 OA
ATOM     16  N   UNL     1      -8.195  54.020  50.294  0.00  0.00    +0.000 N 
ATOM     17  C   UNL     1      -6.321  54.137  52.134  0.00  0.00    +0.000 A 
ATOM     18  C   UNL     1      -8.870  54.990  51.028  0.00  0.00    +0.000 C 
ATOM     19  C   UNL     1      -7.268  54.946  52.755  0.00  0.00    +0.000 A 
ATOM     20  C   UNL     1      -5.213  53.623  52.814  0.00  0.00    +0.000 A 
ATOM     21  N   UNL     1      -8.411  55.481  52.137  0.00  0.00    +0.000 N 
ATOM     22  C   UNL     1      -7.090  55.228  54.111  0.00  0.00    +0.000 A 
ATOM     23  C   UNL     1      -5.049  53.926  54.163  0.00  0.00    +0.000 A 
ATOM     24  C   UNL     1      -5.991  54.723  54.815  0.00  0.00    +0.000 A 
ATOM     25  H   UNL     1      -8.704  53.479  49.648  0.00  0.00    +0.000 HD
ATOM     26  H   UNL     1      -8.871  56.246  52.553  0.00  0.00    +0.000 HD
ENDBRANCH   1  18
BRANCH   3  27
ATOM     27  O   UNL     1     -11.159  55.433  52.677  0.00  0.00    +0.000 OA
ATOM     28  H   UNL     1     -11.369  54.599  53.048  0.00  0.00    +0.000 HD
ENDBRANCH   3  27
BRANCH   5  29
ATOM     29  C   UNL     1     -11.803  56.086  47.041  0.00  0.00    +0.000 C 
BRANCH  29  30
ATOM     30  C   UNL     1     -12.091  54.823  46.208  0.00  0.00    +0.000 C 
BRANCH  30  31
ATOM     31  C   UNL     1     -10.860  54.240  45.572  0.00  0.00    +0.000 C 
ATOM     32  C   UNL     1     -10.898  53.129  44.555  0.00  0.00    +0.000 C 
ATOM     33  C   UNL     1     -10.453  52.840  45.960  0.00  0.00    +0.000 C 
ENDBRANCH  30  31
ENDBRANCH  29  30
ENDBRANCH   5  29
TORSDOF 5
ENDMDL
MODEL 5
REMARK VINA RESULT:      -8.1      4.038      5.835
REMARK  Name = 338168
REMARK  5 active torsions:
REMARK  status: ('A' for Active; 'I' for Inactive)
REMARK    1  A    between atoms: C_6  and  C_10
REMARK    2  A    between atoms: C_14  and  O_18
REMARK    3  A    between atoms: N_17  and  C_21
REMARK    4  A    between atoms: C_21  and  C_24
REMARK    5  A    between atoms: C_24  and  C_27
REMARK                            x       y       z     vdW  Elec       q    Type
REMARK                         _______ _______ _______ _____ _____    ______ ____
ROOT
ATOM      1  C   UNL     1     -11.507  55.854  48.891  0.00  0.00    +0.000 A 
ATOM      2  C   UNL     1     -10.347  55.239  49.593  0.00  0.00    +0.000 A 
ATOM      3  C   UNL     1     -11.751  55.553  47.604  0.00  0.00    +0.000 A 
ATOM      4  O   UNL     1     -10.067  55.674  50.711  0.00  0.00    +0.000 OA
ATOM      5  N   UNL     1      -9.665  54.188  48.977  0.00  0.00    +0.000 N 
ATOM      6  C   UNL     1     -10.921  54.573  46.898  0.00  0.00    +0.000 A 
ATOM      7  C   UNL     1      -9.904  53.881  47.589  0.00  0.00    +0.000 A 
ATOM      8  C   UNL     1     -11.173  54.291  45.542  0.00  0.00    +0.000 A 
ATOM      9  C   UNL     1      -9.165  52.915  46.881  0.00  0.00    +0.000 A 
ATOM     10  C   UNL     1     -10.444  53.318  44.882  0.00  0.00    +0.000 A 
ATOM     11  C   UNL     1      -9.444  52.625  45.540  0.00  0.00    +0.000 A 
ATOM     12  F   UNL     1     -10.714  53.037  43.601  0.00  0.00    +0.000 F 
ENDROOT
BRANCH   1  18
ATOM     13  S   UNL     1     -13.527  59.237  49.473  0.00  0.00    +0.000 S 
ATOM     14  O   UNL     1     -14.525  59.095  48.439  0.00  0.00    +0.000 OA
ATOM     15  O   UNL     1     -12.875  60.502  49.740  0.00  0.00    +0.000 OA
ATOM     16  N   UNL     1     -12.329  58.138  49.189  0.00  0.00    +0.000 N 
ATOM     17  C   UNL     1     -14.203  58.647  50.961  0.00  0.00    +0.000 A 
ATOM     18  C   UNL     1     -12.416  56.809  49.592  0.00  0.00    +0.000 C 
ATOM     19  C   UNL     1     -13.961  57.318  51.295  0.00  0.00    +0.000 A 
ATOM     20  C   UNL     1     -14.930  59.507  51.789  0.00  0.00    +0.000 A 
ATOM     21  N   UNL     1     -13.227  56.405  50.520  0.00  0.00    +0.000 N 
ATOM     22  C   UNL     1     -14.462  56.855  52.515  0.00  0.00    +0.000 A 
ATOM     23  C   UNL     1     -15.429  59.022  52.994  0.00  0.00    +0.000 A 
ATOM     24  C   UNL     1     -15.190  57.697  53.362  0.00  0.00    +0.000 A 
ATOM     25  H   UNL     1     -11.519  58.435  48.717  0.00  0.00    +0.000 HD
ATOM     26  H   UNL     1     -13.331  55.440  50.683  0.00  0.00    +0.000 HD
ENDBRANCH   1  18
BRANCH   3  27
ATOM     27  O   UNL     1     -12.783  56.093  46.852  0.00  0.00    +0.000 OA
ATOM     28  H   UNL     1     -13.096  55.640  46.093  0.00  0.00    +0.000 HD
ENDBRANCH   3  27
BRANCH   5  29
ATOM     29  C   UNL     1      -8.548  53.534  49.701  0.00  0.00    +0.000 C 
BRANCH  29  30
ATOM     30  C   UNL     1      -8.864  52.191  50.385  0.00  0.00    +0.000 C 
BRANCH  30  31
ATOM     31  C   UNL     1     -10.338  51.932  50.529  0.00  0.00    +0.000 C 
ATOM     32  C   UNL     1     -10.907  50.797  51.339  0.00  0.00    +0.000 C 
ATOM     33  C   UNL     1     -10.920  50.723  49.840  0.00  0.00    +0.000 C 
ENDBRANCH  30  31
ENDBRANCH  29  30
ENDBRANCH   5  29
TORSDOF 5
ENDMDL
MODEL 6
REMARK VINA RESULT:      -8.1      3.513      7.964
REMARK  Name = 338168
REMARK  5 active torsions:
REMARK  status: ('A' for Active; 'I' for Inactive)
REMARK    1  A    between atoms: C_6  and  C_10
REMARK    2  A    between atoms: C_14  and  O_18
REMARK    3  A    between atoms: N_17  and  C_21
REMARK    4  A    between atoms: C_21  and  C_24
REMARK    5  A    between atoms: C_24  and  C_27
REMARK                            x       y       z     vdW  Elec       q    Type
REMARK                         _______ _______ _______ _____ _____    ______ ____
ROOT
ATOM      1  C   UNL     1      -9.969  54.466  50.707  0.00  0.00    +0.000 A 
ATOM      2  C   UNL     1     -11.117  55.372  50.984  0.00  0.00    +0.000 A 
ATOM      3  C   UNL     1      -9.748  54.023  49.458  0.00  0.00    +0.000 A 
ATOM      4  O   UNL     1     -11.377  55.612  52.164  0.00  0.00    +0.000 OA
ATOM      5  N   UNL     1     -11.811  55.930  49.909  0.00  0.00    +0.000 N 
ATOM      6  C   UNL     1     -10.591  54.474  48.347  0.00  0.00    +0.000 A 
ATOM      7  C   UNL     1     -11.597  55.437  48.571  0.00  0.00    +0.000 A 
ATOM      8  C   UNL     1     -10.364  53.977  47.050  0.00  0.00    +0.000 A 
ATOM      9  C   UNL     1     -12.350  55.874  47.465  0.00  0.00    +0.000 A 
ATOM     10  C   UNL     1     -11.105  54.446  45.980  0.00  0.00    +0.000 A 
ATOM     11  C   UNL     1     -12.094  55.393  46.176  0.00  0.00    +0.000 A 
ATOM     12  F   UNL     1     -10.858  53.989  44.747  0.00  0.00    +0.000 F 
ENDROOT
BRANCH   1  18
ATOM     13  S   UNL     1      -6.759  54.596  53.061  0.00  0.00    +0.000 S 
ATOM     14  O   UNL     1      -7.091  55.760  53.849  0.00  0.00    +0.000 OA
ATOM     15  O   UNL     1      -5.417  54.362  52.569  0.00  0.00    +0.000 OA
ATOM     16  N   UNL     1      -7.757  54.557  51.748  0.00  0.00    +0.000 N 
ATOM     17  C   UNL     1      -7.271  53.185  53.938  0.00  0.00    +0.000 A 
ATOM     18  C   UNL     1      -9.046  54.033  51.798  0.00  0.00    +0.000 C 
ATOM     19  C   UNL     1      -8.533  52.674  53.653  0.00  0.00    +0.000 A 
ATOM     20  C   UNL     1      -6.412  52.587  54.864  0.00  0.00    +0.000 A 
ATOM     21  N   UNL     1      -9.439  53.214  52.724  0.00  0.00    +0.000 N 
ATOM     22  C   UNL     1      -8.928  51.512  54.320  0.00  0.00    +0.000 A 
ATOM     23  C   UNL     1      -6.829  51.436  55.526  0.00  0.00    +0.000 A 
ATOM     24  C   UNL     1      -8.085  50.893  55.249  0.00  0.00    +0.000 A 
ATOM     25  H   UNL     1      -7.428  54.918  50.894  0.00  0.00    +0.000 HD
ATOM     26  H   UNL     1     -10.390  52.967  52.777  0.00  0.00    +0.000 HD
ENDBRANCH   1  18
BRANCH   3  27
ATOM     27  O   UNL     1      -8.728  53.154  49.101  0.00  0.00    +0.000 OA
ATOM     28  H   UNL     1      -8.588  52.368  49.591  0.00  0.00    +0.000 HD
ENDBRANCH   3  27
BRANCH   5  29
ATOM     29  C   UNL     1     -12.917  56.880  50.183  0.00  0.00    +0.000 C 
BRANCH  29  30
ATOM     30  C   UNL     1     -14.288  56.262  50.517  0.00  0.00    +0.000 C 
BRANCH  30  31
ATOM     31  C   UNL     1     -15.232  57.233  51.168  0.00  0.00    +0.000 C 
ATOM     32  C   UNL     1     -14.801  58.254  52.188  0.00  0.00    +0.000 C 
ATOM     33  C   UNL     1     -15.563  57.037  52.627  0.00  0.00    +0.000 C 
ENDBRANCH  30  31
ENDBRANCH  29  30
ENDBRANCH   5  29
TORSDOF 5
ENDMDL
MODEL 7
REMARK VINA RESULT:      -7.9      3.265      4.397
REMARK  Name = 338168
REMARK  5 active torsions:
REMARK  status: ('A' for Active; 'I' for Inactive)
REMARK    1  A    between atoms: C_6  and  C_10
REMARK    2  A    between atoms: C_14  and  O_18
REMARK    3  A    between atoms: N_17  and  C_21
REMARK    4  A    between atoms: C_21  and  C_24
REMARK    5  A    between atoms: C_24  and  C_27
REMARK                            x       y       z     vdW  Elec       q    Type
REMARK                         _______ _______ _______ _____ _____    ______ ____
ROOT
ATOM      1  C   UNL     1     -12.216  54.406  50.203  0.00  0.00    +0.000 A 
ATOM      2  C   UNL     1     -12.042  53.920  48.807  0.00  0.00    +0.000 A 
ATOM      3  C   UNL     1     -11.706  53.704  51.229  0.00  0.00    +0.000 A 
ATOM      4  O   UNL     1     -12.670  54.503  47.922  0.00  0.00    +0.000 OA
ATOM      5  N   UNL     1     -11.159  52.866  48.564  0.00  0.00    +0.000 N 
ATOM      6  C   UNL     1     -10.920  52.491  50.983  0.00  0.00    +0.000 A 
ATOM      7  C   UNL     1     -10.632  52.093  49.661  0.00  0.00    +0.000 A 
ATOM      8  C   UNL     1     -10.418  51.751  52.070  0.00  0.00    +0.000 A 
ATOM      9  C   UNL     1      -9.835  50.947  49.476  0.00  0.00    +0.000 A 
ATOM     10  C   UNL     1      -9.617  50.644  51.854  0.00  0.00    +0.000 A 
ATOM     11  C   UNL     1      -9.318  50.237  50.567  0.00  0.00    +0.000 A 
ATOM     12  F   UNL     1      -9.119  49.969  52.897  0.00  0.00    +0.000 F 
ENDROOT
BRANCH   1  18
ATOM     13  S   UNL     1     -14.489  56.930  52.282  0.00  0.00    +0.000 S 
ATOM     14  O   UNL     1     -13.563  57.266  53.338  0.00  0.00    +0.000 OA
ATOM     15  O   UNL     1     -15.893  56.685  52.544  0.00  0.00    +0.000 OA
ATOM     16  N   UNL     1     -13.917  55.597  51.495  0.00  0.00    +0.000 N 
ATOM     17  C   UNL     1     -14.369  58.148  51.049  0.00  0.00    +0.000 A 
ATOM     18  C   UNL     1     -12.954  55.672  50.493  0.00  0.00    +0.000 C 
ATOM     19  C   UNL     1     -13.503  57.906  49.988  0.00  0.00    +0.000 A 
ATOM     20  C   UNL     1     -15.151  59.304  51.128  0.00  0.00    +0.000 A 
ATOM     21  N   UNL     1     -12.702  56.761  49.837  0.00  0.00    +0.000 N 
ATOM     22  C   UNL     1     -13.441  58.861  48.970  0.00  0.00    +0.000 A 
ATOM     23  C   UNL     1     -15.066  60.248  50.110  0.00  0.00    +0.000 A 
ATOM     24  C   UNL     1     -14.216  60.024  49.025  0.00  0.00    +0.000 A 
ATOM     25  H   UNL     1     -14.270  54.714  51.745  0.00  0.00    +0.000 HD
ATOM     26  H   UNL     1     -11.934  56.787  49.221  0.00  0.00    +0.000 HD
ENDBRANCH   1  18
BRANCH   3  27
ATOM     27  O   UNL     1     -11.838  54.053  52.564  0.00  0.00    +0.000 OA
ATOM     28  H   UNL     1     -11.404  53.549  53.225  0.00  0.00    +0.000 HD
ENDBRANCH   3  27
BRANCH   5  29
ATOM     29  C   UNL     1     -10.939  52.420  47.167  0.00  0.00    +0.000 C 
BRANCH  29  30
ATOM     30  C   UNL     1      -9.611  52.843  46.511  0.00  0.00    +0.000 C 
BRANCH  30  31
ATOM     31  C   UNL     1      -9.479  54.332  46.349  0.00  0.00    +0.000 C 
ATOM     32  C   UNL     1      -8.267  54.999  45.754  0.00  0.00    +0.000 C 
ATOM     33  C   UNL     1      -8.501  55.062  47.236  0.00  0.00    +0.000 C 
ENDBRANCH  30  31
ENDBRANCH  29  30
ENDBRANCH   5  29
TORSDOF 5
ENDMDL
MODEL 8
REMARK VINA RESULT:      -7.9      4.882      7.780
REMARK  Name = 338168
REMARK  5 active torsions:
REMARK  status: ('A' for Active; 'I' for Inactive)
REMARK    1  A    between atoms: C_6  and  C_10
REMARK    2  A    between atoms: C_14  and  O_18
REMARK    3  A    between atoms: N_17  and  C_21
REMARK    4  A    between atoms: C_21  and  C_24
REMARK    5  A    between atoms: C_24  and  C_27
REMARK                            x       y       z     vdW  Elec       q    Type
REMARK                         _______ _______ _______ _____ _____    ______ ____
ROOT
ATOM      1  C   UNL     1     -11.385  54.340  47.941  0.00  0.00    +0.000 A 
ATOM      2  C   UNL     1     -11.510  53.515  49.174  0.00  0.00    +0.000 A 
ATOM      3  C   UNL     1     -12.012  55.526  47.858  0.00  0.00    +0.000 A 
ATOM      4  O   UNL     1     -11.060  52.369  49.136  0.00  0.00    +0.000 OA
ATOM      5  N   UNL     1     -12.088  54.084  50.311  0.00  0.00    +0.000 N 
ATOM      6  C   UNL     1     -12.771  56.048  48.998  0.00  0.00    +0.000 A 
ATOM      7  C   UNL     1     -12.786  55.342  50.219  0.00  0.00    +0.000 A 
ATOM      8  C   UNL     1     -13.447  57.278  48.884  0.00  0.00    +0.000 A 
ATOM      9  C   UNL     1     -13.490  55.906  51.299  0.00  0.00    +0.000 A 
ATOM     10  C   UNL     1     -14.108  57.817  49.973  0.00  0.00    +0.000 A 
ATOM     11  C   UNL     1     -14.133  57.144  51.181  0.00  0.00    +0.000 A 
ATOM     12  F   UNL     1     -14.720  59.003  49.860  0.00  0.00    +0.000 F 
ENDROOT
BRANCH   1  18
ATOM     13  S   UNL     1      -8.170  54.027  45.610  0.00  0.00    +0.000 S 
ATOM     14  O   UNL     1      -7.327  53.238  46.477  0.00  0.00    +0.000 OA
ATOM     15  O   UNL     1      -7.650  55.138  44.840  0.00  0.00    +0.000 OA
ATOM     16  N   UNL     1      -9.424  54.619  46.505  0.00  0.00    +0.000 N 
ATOM     17  C   UNL     1      -8.990  52.947  44.523  0.00  0.00    +0.000 A 
ATOM     18  C   UNL     1     -10.568  53.876  46.780  0.00  0.00    +0.000 C 
ATOM     19  C   UNL     1     -10.257  52.503  44.891  0.00  0.00    +0.000 A 
ATOM     20  C   UNL     1      -8.390  52.580  43.315  0.00  0.00    +0.000 A 
ATOM     21  N   UNL     1     -10.924  52.844  46.080  0.00  0.00    +0.000 N 
ATOM     22  C   UNL     1     -10.938  51.674  43.997  0.00  0.00    +0.000 A 
ATOM     23  C   UNL     1      -9.081  51.744  42.444  0.00  0.00    +0.000 A 
ATOM     24  C   UNL     1     -10.359  51.296  42.781  0.00  0.00    +0.000 A 
ATOM     25  H   UNL     1      -9.360  55.534  46.860  0.00  0.00    +0.000 HD
ATOM     26  H   UNL     1     -11.676  52.289  46.387  0.00  0.00    +0.000 HD
ENDBRANCH   1  18
BRANCH   3  27
ATOM     27  O   UNL     1     -11.985  56.354  46.746  0.00  0.00    +0.000 OA
ATOM     28  H   UNL     1     -12.604  56.228  46.054  0.00  0.00    +0.000 HD
ENDBRANCH   3  27
BRANCH   5  29
ATOM     29  C   UNL     1     -12.158  53.284  51.557  0.00  0.00    +0.000 C 
BRANCH  29  30
ATOM     30  C   UNL     1     -10.906  53.295  52.453  0.00  0.00    +0.000 C 
BRANCH  30  31
ATOM     31  C   UNL     1     -10.366  54.676  52.700  0.00  0.00    +0.000 C 
ATOM     32  C   UNL     1      -9.139  55.223  52.019  0.00  0.00    +0.000 C 
ATOM     33  C   UNL     1      -9.071  54.810  53.462  0.00  0.00    +0.000 C 
ENDBRANCH  30  31
ENDBRANCH  29  30
ENDBRANCH   5  29
TORSDOF 5
ENDMDL
MODEL 9
REMARK VINA RESULT:      -7.9      3.597      7.555
REMARK  Name = 338168
REMARK  5 active torsions:
REMARK  status: ('A' for Active; 'I' for Inactive)
REMARK    1  A    between atoms: C_6  and  C_10
REMARK    2  A    between atoms: C_14  and  O_18
REMARK    3  A    between atoms: N_17  and  C_21
REMARK    4  A    between atoms: C_21  and  C_24
REMARK    5  A    between atoms: C_24  and  C_27
REMARK                            x       y       z     vdW  Elec       q    Type
REMARK                         _______ _______ _______ _____ _____    ______ ____
ROOT
ATOM      1  C   UNL     1      -9.869  55.409  50.406  0.00  0.00    +0.000 A 
ATOM      2  C   UNL     1     -10.030  55.671  48.949  0.00  0.00    +0.000 A 
ATOM      3  C   UNL     1     -10.915  55.558  51.236  0.00  0.00    +0.000 A 
ATOM      4  O   UNL     1      -9.008  55.687  48.261  0.00  0.00    +0.000 OA
ATOM      5  N   UNL     1     -11.315  55.845  48.433  0.00  0.00    +0.000 N 
ATOM      6  C   UNL     1     -12.236  55.916  50.712  0.00  0.00    +0.000 A 
ATOM      7  C   UNL     1     -12.435  56.034  49.320  0.00  0.00    +0.000 A 
ATOM      8  C   UNL     1     -13.314  56.096  51.599  0.00  0.00    +0.000 A 
ATOM      9  C   UNL     1     -13.732  56.333  48.862  0.00  0.00    +0.000 A 
ATOM     10  C   UNL     1     -14.582  56.365  51.114  0.00  0.00    +0.000 A 
ATOM     11  C   UNL     1     -14.802  56.482  49.754  0.00  0.00    +0.000 A 
ATOM     12  F   UNL     1     -15.605  56.503  51.966  0.00  0.00    +0.000 F 
ENDROOT
BRANCH   1  18
ATOM     13  S   UNL     1      -7.043  54.959  53.176  0.00  0.00    +0.000 S 
ATOM     14  O   UNL     1      -7.689  53.976  54.014  0.00  0.00    +0.000 OA
ATOM     15  O   UNL     1      -6.307  56.076  53.733  0.00  0.00    +0.000 OA
ATOM     16  N   UNL     1      -8.175  55.599  52.160  0.00  0.00    +0.000 N 
ATOM     17  C   UNL     1      -6.002  54.121  52.064  0.00  0.00    +0.000 A 
ATOM     18  C   UNL     1      -8.555  54.980  50.973  0.00  0.00    +0.000 C 
ATOM     19  C   UNL     1      -6.522  53.803  50.813  0.00  0.00    +0.000 A 
ATOM     20  C   UNL     1      -4.686  53.822  52.426  0.00  0.00    +0.000 A 
ATOM     21  N   UNL     1      -7.827  54.088  50.377  0.00  0.00    +0.000 N 
ATOM     22  C   UNL     1      -5.672  53.174  49.899  0.00  0.00    +0.000 A 
ATOM     23  C   UNL     1      -3.860  53.185  51.506  0.00  0.00    +0.000 A 
ATOM     24  C   UNL     1      -4.350  52.866  50.238  0.00  0.00    +0.000 A 
ATOM     25  H   UNL     1      -8.598  56.453  52.403  0.00  0.00    +0.000 HD
ATOM     26  H   UNL     1      -8.195  53.601  49.606  0.00  0.00    +0.000 HD
ENDBRANCH   1  18
BRANCH   3  27
ATOM     27  O   UNL     1     -10.863  55.370  52.609  0.00  0.00    +0.000 OA
ATOM     28  H   UNL     1     -11.558  54.918  53.046  0.00  0.00    +0.000 HD
ENDBRANCH   3  27
BRANCH   5  29
ATOM     29  C   UNL     1     -11.482  56.046  46.973  0.00  0.00    +0.000 C 
BRANCH  29  30
ATOM     30  C   UNL     1     -11.993  54.838  46.167  0.00  0.00    +0.000 C 
BRANCH  30  31
ATOM     31  C   UNL     1     -10.984  53.730  46.056  0.00  0.00    +0.000 C 
ATOM     32  C   UNL     1      -9.680  53.864  45.313  0.00  0.00    +0.000 C 
ATOM     33  C   UNL     1     -10.800  53.063  44.715  0.00  0.00    +0.000 C 
ENDBRANCH  30  31
ENDBRANCH  29  30
ENDBRANCH   5  29
TORSDOF 5
ENDMDL
