MODEL 1
REMARK VINA RESULT:      -8.2      0.000      0.000
REMARK  Name = 338298
REMARK  5 active torsions:
REMARK  status: ('A' for Active; 'I' for Inactive)
REMARK    1  A    between atoms: C_6  and  C_10
REMARK    2  A    between atoms: C_14  and  O_18
REMARK    3  A    between atoms: N_17  and  C_21
REMARK    4  A    between atoms: C_21  and  C_24
REMARK    5  A    between atoms: C_24  and  C_27
REMARK                            x       y       z     vdW  Elec       q    Type
REMARK                         _______ _______ _______ _____ _____    ______ ____
ROOT
ATOM      1  C   UNL     1     -10.102  54.399  52.300  0.00  0.00    +0.000 A 
ATOM      2  C   UNL     1      -8.723  54.943  52.147  0.00  0.00    +0.000 A 
ATOM      3  C   UNL     1     -10.315  53.303  53.047  0.00  0.00    +0.000 A 
ATOM      4  O   UNL     1      -8.604  55.939  51.431  0.00  0.00    +0.000 OA
ATOM      5  N   UNL     1      -7.664  54.342  52.818  0.00  0.00    +0.000 N 
ATOM      6  C   UNL     1      -9.197  52.656  53.745  0.00  0.00    +0.000 A 
ATOM      7  C   UNL     1      -7.886  53.161  53.613  0.00  0.00    +0.000 A 
ATOM      8  C   UNL     1      -9.437  51.533  54.561  0.00  0.00    +0.000 A 
ATOM      9  C   UNL     1      -6.850  52.492  54.287  0.00  0.00    +0.000 A 
ATOM     10  C   UNL     1      -8.402  50.911  55.252  0.00  0.00    +0.000 A 
ATOM     11  C   UNL     1      -7.107  51.390  55.110  0.00  0.00    +0.000 A 
ENDROOT
BRANCH   1  17
ATOM     12  S   UNL     1     -12.406  55.968  49.529  0.00  0.00    +0.000 S 
ATOM     13  O   UNL     1     -13.318  55.012  48.931  0.00  0.00    +0.000 OA
ATOM     14  O   UNL     1     -11.730  56.949  48.700  0.00  0.00    +0.000 OA
ATOM     15  N   UNL     1     -11.277  55.136  50.339  0.00  0.00    +0.000 N 
ATOM     16  C   UNL     1     -13.362  56.887  50.680  0.00  0.00    +0.000 A 
ATOM     17  C   UNL     1     -11.248  55.143  51.638  0.00  0.00    +0.000 C 
ATOM     18  C   UNL     1     -13.108  56.694  52.027  0.00  0.00    +0.000 A 
ATOM     19  C   UNL     1     -14.331  57.788  50.230  0.00  0.00    +0.000 A 
ATOM     20  N   UNL     1     -12.156  55.777  52.463  0.00  0.00    +0.000 N 
ATOM     21  C   UNL     1     -13.899  57.381  52.955  0.00  0.00    +0.000 A 
ATOM     22  C   UNL     1     -15.088  58.488  51.165  0.00  0.00    +0.000 A 
ATOM     23  C   UNL     1     -14.877  58.283  52.527  0.00  0.00    +0.000 A 
ATOM     24  H   UNL     1     -10.605  54.617  49.842  0.00  0.00    +0.000 HD
ATOM     25  H   UNL     1     -12.128  55.566  53.424  0.00  0.00    +0.000 HD
ENDBRANCH   1  17
BRANCH   3  26
ATOM     26  O   UNL     1     -11.557  52.724  53.238  0.00  0.00    +0.000 OA
ATOM     27  H   UNL     1     -11.803  51.970  52.739  0.00  0.00    +0.000 HD
ENDBRANCH   3  26
BRANCH   5  28
ATOM     28  C   UNL     1      -6.291  54.841  52.567  0.00  0.00    +0.000 C 
BRANCH  28  29
ATOM     29  C   UNL     1      -5.510  54.155  51.430  0.00  0.00    +0.000 C 
BRANCH  29  30
ATOM     30  C   UNL     1      -5.500  54.942  50.150  0.00  0.00    +0.000 C 
ATOM     31  C   UNL     1      -6.379  54.615  48.972  0.00  0.00    +0.000 C 
ATOM     32  C   UNL     1      -4.912  54.293  48.923  0.00  0.00    +0.000 C 
ENDBRANCH  29  30
ENDBRANCH  28  29
ENDBRANCH   5  28
TORSDOF 5
ENDMDL
MODEL 2
REMARK VINA RESULT:      -8.0      2.579      7.816
REMARK  Name = 338298
REMARK  5 active torsions:
REMARK  status: ('A' for Active; 'I' for Inactive)
REMARK    1  A    between atoms: C_6  and  C_10
REMARK    2  A    between atoms: C_14  and  O_18
REMARK    3  A    between atoms: N_17  and  C_21
REMARK    4  A    between atoms: C_21  and  C_24
REMARK    5  A    between atoms: C_24  and  C_27
REMARK                            x       y       z     vdW  Elec       q    Type
REMARK                         _______ _______ _______ _____ _____    ______ ____
ROOT
ATOM      1  C   UNL     1     -10.057  54.841  50.898  0.00  0.00    +0.000 A 
ATOM      2  C   UNL     1     -11.380  55.367  51.339  0.00  0.00    +0.000 A 
ATOM      3  C   UNL     1      -9.766  54.760  49.590  0.00  0.00    +0.000 A 
ATOM      4  O   UNL     1     -11.582  55.393  52.555  0.00  0.00    +0.000 OA
ATOM      5  N   UNL     1     -12.294  55.819  50.393  0.00  0.00    +0.000 N 
ATOM      6  C   UNL     1     -10.734  55.223  48.587  0.00  0.00    +0.000 A 
ATOM      7  C   UNL     1     -11.990  55.726  48.988  0.00  0.00    +0.000 A 
ATOM      8  C   UNL     1     -10.403  55.174  47.219  0.00  0.00    +0.000 A 
ATOM      9  C   UNL     1     -12.887  56.137  47.987  0.00  0.00    +0.000 A 
ATOM     10  C   UNL     1     -11.291  55.624  46.247  0.00  0.00    +0.000 A 
ATOM     11  C   UNL     1     -12.535  56.101  46.633  0.00  0.00    +0.000 A 
ENDROOT
BRANCH   1  17
ATOM     12  S   UNL     1      -6.766  54.776  53.047  0.00  0.00    +0.000 S 
ATOM     13  O   UNL     1      -6.725  55.805  54.068  0.00  0.00    +0.000 OA
ATOM     14  O   UNL     1      -5.576  54.464  52.275  0.00  0.00    +0.000 OA
ATOM     15  N   UNL     1      -7.950  55.154  52.008  0.00  0.00    +0.000 N 
ATOM     16  C   UNL     1      -7.202  53.292  53.880  0.00  0.00    +0.000 A 
ATOM     17  C   UNL     1      -9.044  54.456  51.962  0.00  0.00    +0.000 C 
ATOM     18  C   UNL     1      -8.454  52.759  53.632  0.00  0.00    +0.000 A 
ATOM     19  C   UNL     1      -6.293  52.679  54.747  0.00  0.00    +0.000 A 
ATOM     20  N   UNL     1      -9.358  53.391  52.783  0.00  0.00    +0.000 N 
ATOM     21  C   UNL     1      -8.833  51.606  54.329  0.00  0.00    +0.000 A 
ATOM     22  C   UNL     1      -6.673  51.515  55.410  0.00  0.00    +0.000 A 
ATOM     23  C   UNL     1      -7.943  50.980  55.206  0.00  0.00    +0.000 A 
ATOM     24  H   UNL     1      -7.839  55.923  51.404  0.00  0.00    +0.000 HD
ATOM     25  H   UNL     1     -10.283  53.056  52.766  0.00  0.00    +0.000 HD
ENDBRANCH   1  17
BRANCH   3  26
ATOM     26  O   UNL     1      -8.569  54.278  49.089  0.00  0.00    +0.000 OA
ATOM     27  H   UNL     1      -8.305  53.399  49.274  0.00  0.00    +0.000 HD
ENDBRANCH   3  26
BRANCH   5  28
ATOM     28  C   UNL     1     -13.639  56.241  50.852  0.00  0.00    +0.000 C 
BRANCH  28  29
ATOM     29  C   UNL     1     -13.851  57.754  51.050  0.00  0.00    +0.000 C 
BRANCH  29  30
ATOM     30  C   UNL     1     -14.058  58.149  52.484  0.00  0.00    +0.000 C 
ATOM     31  C   UNL     1     -15.260  57.734  53.291  0.00  0.00    +0.000 C 
ATOM     32  C   UNL     1     -15.143  59.148  52.797  0.00  0.00    +0.000 C 
ENDBRANCH  29  30
ENDBRANCH  28  29
ENDBRANCH   5  28
TORSDOF 5
ENDMDL
MODEL 3
REMARK VINA RESULT:      -8.0      3.388      4.405
REMARK  Name = 338298
REMARK  5 active torsions:
REMARK  status: ('A' for Active; 'I' for Inactive)
REMARK    1  A    between atoms: C_6  and  C_10
REMARK    2  A    between atoms: C_14  and  O_18
REMARK    3  A    between atoms: N_17  and  C_21
REMARK    4  A    between atoms: C_21  and  C_24
REMARK    5  A    between atoms: C_24  and  C_27
REMARK                            x       y       z     vdW  Elec       q    Type
REMARK                         _______ _______ _______ _____ _____    ______ ____
ROOT
ATOM      1  C   UNL     1     -12.403  54.285  49.957  0.00  0.00    +0.000 A 
ATOM      2  C   UNL     1     -12.135  54.014  48.516  0.00  0.00    +0.000 A 
ATOM      3  C   UNL     1     -11.882  53.484  50.902  0.00  0.00    +0.000 A 
ATOM      4  O   UNL     1     -12.663  54.780  47.708  0.00  0.00    +0.000 OA
ATOM      5  N   UNL     1     -11.305  52.959  48.154  0.00  0.00    +0.000 N 
ATOM      6  C   UNL     1     -11.017  52.360  50.522  0.00  0.00    +0.000 A 
ATOM      7  C   UNL     1     -10.752  52.092  49.162  0.00  0.00    +0.000 A 
ATOM      8  C   UNL     1     -10.440  51.552  51.521  0.00  0.00    +0.000 A 
ATOM      9  C   UNL     1      -9.933  50.992  48.854  0.00  0.00    +0.000 A 
ATOM     10  C   UNL     1      -9.600  50.493  51.194  0.00  0.00    +0.000 A 
ATOM     11  C   UNL     1      -9.351  50.211  49.859  0.00  0.00    +0.000 A 
ENDROOT
BRANCH   1  17
ATOM     12  S   UNL     1     -15.348  56.518  51.296  0.00  0.00    +0.000 S 
ATOM     13  O   UNL     1     -15.316  56.710  52.733  0.00  0.00    +0.000 OA
ATOM     14  O   UNL     1     -16.610  56.280  50.618  0.00  0.00    +0.000 OA
ATOM     15  N   UNL     1     -14.350  55.293  50.937  0.00  0.00    +0.000 N 
ATOM     16  C   UNL     1     -14.699  57.994  50.600  0.00  0.00    +0.000 A 
ATOM     17  C   UNL     1     -13.227  55.507  50.320  0.00  0.00    +0.000 C 
ATOM     18  C   UNL     1     -13.460  57.926  49.988  0.00  0.00    +0.000 A 
ATOM     19  C   UNL     1     -15.433  59.182  50.660  0.00  0.00    +0.000 A 
ATOM     20  N   UNL     1     -12.729  56.742  49.955  0.00  0.00    +0.000 N 
ATOM     21  C   UNL     1     -12.908  59.107  49.476  0.00  0.00    +0.000 A 
ATOM     22  C   UNL     1     -14.885  60.342  50.119  0.00  0.00    +0.000 A 
ATOM     23  C   UNL     1     -13.622  60.307  49.531  0.00  0.00    +0.000 A 
ATOM     24  H   UNL     1     -14.598  54.375  51.191  0.00  0.00    +0.000 HD
ATOM     25  H   UNL     1     -11.795  56.787  49.650  0.00  0.00    +0.000 HD
ENDBRANCH   1  17
BRANCH   3  26
ATOM     26  O   UNL     1     -12.084  53.654  52.260  0.00  0.00    +0.000 OA
ATOM     27  H   UNL     1     -12.480  52.969  52.763  0.00  0.00    +0.000 HD
ENDBRANCH   3  26
BRANCH   5  28
ATOM     28  C   UNL     1     -11.138  52.651  46.713  0.00  0.00    +0.000 C 
BRANCH  28  29
ATOM     29  C   UNL     1     -10.260  53.623  45.903  0.00  0.00    +0.000 C 
BRANCH  29  30
ATOM     30  C   UNL     1      -8.955  53.951  46.570  0.00  0.00    +0.000 C 
ATOM     31  C   UNL     1      -8.660  55.289  47.195  0.00  0.00    +0.000 C 
ATOM     32  C   UNL     1      -8.030  54.922  45.881  0.00  0.00    +0.000 C 
ENDBRANCH  29  30
ENDBRANCH  28  29
ENDBRANCH   5  28
TORSDOF 5
ENDMDL
MODEL 4
REMARK VINA RESULT:      -8.0      3.171      7.123
REMARK  Name = 338298
REMARK  5 active torsions:
REMARK  status: ('A' for Active; 'I' for Inactive)
REMARK    1  A    between atoms: C_6  and  C_10
REMARK    2  A    between atoms: C_14  and  O_18
REMARK    3  A    between atoms: N_17  and  C_21
REMARK    4  A    between atoms: C_21  and  C_24
REMARK    5  A    between atoms: C_24  and  C_27
REMARK                            x       y       z     vdW  Elec       q    Type
REMARK                         _______ _______ _______ _____ _____    ______ ____
ROOT
ATOM      1  C   UNL     1     -10.217  55.196  50.860  0.00  0.00    +0.000 A 
ATOM      2  C   UNL     1      -9.759  55.181  49.442  0.00  0.00    +0.000 A 
ATOM      3  C   UNL     1     -11.450  55.632  51.165  0.00  0.00    +0.000 A 
ATOM      4  O   UNL     1      -8.608  54.786  49.241  0.00  0.00    +0.000 OA
ATOM      5  N   UNL     1     -10.629  55.573  48.430  0.00  0.00    +0.000 N 
ATOM      6  C   UNL     1     -12.366  56.061  50.101  0.00  0.00    +0.000 A 
ATOM      7  C   UNL     1     -11.949  56.049  48.754  0.00  0.00    +0.000 A 
ATOM      8  C   UNL     1     -13.673  56.475  50.428  0.00  0.00    +0.000 A 
ATOM      9  C   UNL     1     -12.860  56.489  47.777  0.00  0.00    +0.000 A 
ATOM     10  C   UNL     1     -14.571  56.867  49.440  0.00  0.00    +0.000 A 
ATOM     11  C   UNL     1     -14.161  56.877  48.115  0.00  0.00    +0.000 A 
ENDROOT
BRANCH   1  17
ATOM     12  S   UNL     1      -7.018  54.722  53.095  0.00  0.00    +0.000 S 
ATOM     13  O   UNL     1      -6.927  55.680  54.179  0.00  0.00    +0.000 OA
ATOM     14  O   UNL     1      -5.833  54.357  52.340  0.00  0.00    +0.000 OA
ATOM     15  N   UNL     1      -8.130  55.261  52.048  0.00  0.00    +0.000 N 
ATOM     16  C   UNL     1      -7.604  53.233  53.820  0.00  0.00    +0.000 A 
ATOM     17  C   UNL     1      -9.277  54.663  51.926  0.00  0.00    +0.000 C 
ATOM     18  C   UNL     1      -8.887  52.824  53.502  0.00  0.00    +0.000 A 
ATOM     19  C   UNL     1      -6.779  52.494  54.672  0.00  0.00    +0.000 A 
ATOM     20  N   UNL     1      -9.706  53.580  52.669  0.00  0.00    +0.000 N 
ATOM     21  C   UNL     1      -9.384  51.667  54.115  0.00  0.00    +0.000 A 
ATOM     22  C   UNL     1      -7.277  51.329  55.250  0.00  0.00    +0.000 A 
ATOM     23  C   UNL     1      -8.580  50.917  54.976  0.00  0.00    +0.000 A 
ATOM     24  H   UNL     1      -7.935  56.053  51.497  0.00  0.00    +0.000 HD
ATOM     25  H   UNL     1     -10.655  53.328  52.605  0.00  0.00    +0.000 HD
ENDBRANCH   1  17
BRANCH   3  26
ATOM     26  O   UNL     1     -11.956  55.690  52.452  0.00  0.00    +0.000 OA
ATOM     27  H   UNL     1     -11.569  56.266  53.081  0.00  0.00    +0.000 HD
ENDBRANCH   3  26
BRANCH   5  28
ATOM     28  C   UNL     1     -10.116  55.644  47.041  0.00  0.00    +0.000 C 
BRANCH  28  29
ATOM     29  C   UNL     1     -10.030  54.312  46.274  0.00  0.00    +0.000 C 
BRANCH  29  30
ATOM     30  C   UNL     1     -11.261  54.001  45.471  0.00  0.00    +0.000 C 
ATOM     31  C   UNL     1     -12.031  52.714  45.603  0.00  0.00    +0.000 C 
ATOM     32  C   UNL     1     -11.162  52.946  44.399  0.00  0.00    +0.000 C 
ENDBRANCH  29  30
ENDBRANCH  28  29
ENDBRANCH   5  28
TORSDOF 5
ENDMDL
MODEL 5
REMARK VINA RESULT:      -7.9      2.208      3.254
REMARK  Name = 338298
REMARK  5 active torsions:
REMARK  status: ('A' for Active; 'I' for Inactive)
REMARK    1  A    between atoms: C_6  and  C_10
REMARK    2  A    between atoms: C_14  and  O_18
REMARK    3  A    between atoms: N_17  and  C_21
REMARK    4  A    between atoms: C_21  and  C_24
REMARK    5  A    between atoms: C_24  and  C_27
REMARK                            x       y       z     vdW  Elec       q    Type
REMARK                         _______ _______ _______ _____ _____    ______ ____
ROOT
ATOM      1  C   UNL     1     -11.726  53.955  51.053  0.00  0.00    +0.000 A 
ATOM      2  C   UNL     1     -10.843  53.932  52.253  0.00  0.00    +0.000 A 
ATOM      3  C   UNL     1     -11.797  52.883  50.248  0.00  0.00    +0.000 A 
ATOM      4  O   UNL     1     -10.817  54.960  52.933  0.00  0.00    +0.000 OA
ATOM      5  N   UNL     1     -10.130  52.781  52.565  0.00  0.00    +0.000 N 
ATOM      6  C   UNL     1     -11.033  51.669  50.565  0.00  0.00    +0.000 A 
ATOM      7  C   UNL     1     -10.195  51.631  51.700  0.00  0.00    +0.000 A 
ATOM      8  C   UNL     1     -11.147  50.534  49.739  0.00  0.00    +0.000 A 
ATOM      9  C   UNL     1      -9.471  50.451  51.946  0.00  0.00    +0.000 A 
ATOM     10  C   UNL     1     -10.452  49.363  50.025  0.00  0.00    +0.000 A 
ATOM     11  C   UNL     1      -9.610  49.325  51.127  0.00  0.00    +0.000 A 
ENDROOT
BRANCH   1  17
ATOM     12  S   UNL     1     -13.315  57.070  49.257  0.00  0.00    +0.000 S 
ATOM     13  O   UNL     1     -14.421  56.728  48.384  0.00  0.00    +0.000 OA
ATOM     14  O   UNL     1     -12.337  58.061  48.844  0.00  0.00    +0.000 OA
ATOM     15  N   UNL     1     -12.520  55.703  49.610  0.00  0.00    +0.000 N 
ATOM     16  C   UNL     1     -14.041  57.694  50.729  0.00  0.00    +0.000 A 
ATOM     17  C   UNL     1     -12.571  55.192  50.803  0.00  0.00    +0.000 C 
ATOM     18  C   UNL     1     -13.936  56.925  51.875  0.00  0.00    +0.000 A 
ATOM     19  C   UNL     1     -14.684  58.935  50.725  0.00  0.00    +0.000 A 
ATOM     20  N   UNL     1     -13.312  55.681  51.861  0.00  0.00    +0.000 N 
ATOM     21  C   UNL     1     -14.556  57.387  53.042  0.00  0.00    +0.000 A 
ATOM     22  C   UNL     1     -15.269  59.395  51.902  0.00  0.00    +0.000 A 
ATOM     23  C   UNL     1     -15.210  58.621  53.059  0.00  0.00    +0.000 A 
ATOM     24  H   UNL     1     -11.992  55.254  48.911  0.00  0.00    +0.000 HD
ATOM     25  H   UNL     1     -13.404  55.112  52.657  0.00  0.00    +0.000 HD
ENDBRANCH   1  17
BRANCH   3  26
ATOM     26  O   UNL     1     -12.581  52.817  49.109  0.00  0.00    +0.000 OA
ATOM     27  H   UNL     1     -12.461  53.442  48.422  0.00  0.00    +0.000 HD
ENDBRANCH   3  26
BRANCH   5  28
ATOM     28  C   UNL     1      -9.183  52.819  53.705  0.00  0.00    +0.000 C 
BRANCH  28  29
ATOM     29  C   UNL     1      -7.781  53.387  53.412  0.00  0.00    +0.000 C 
BRANCH  29  30
ATOM     30  C   UNL     1      -7.469  54.640  54.179  0.00  0.00    +0.000 C 
ATOM     31  C   UNL     1      -6.604  55.747  53.638  0.00  0.00    +0.000 C 
ATOM     32  C   UNL     1      -6.064  54.826  54.695  0.00  0.00    +0.000 C 
ENDBRANCH  29  30
ENDBRANCH  28  29
ENDBRANCH   5  28
TORSDOF 5
ENDMDL
MODEL 6
REMARK VINA RESULT:      -7.7      4.340      8.005
REMARK  Name = 338298
REMARK  5 active torsions:
REMARK  status: ('A' for Active; 'I' for Inactive)
REMARK    1  A    between atoms: C_6  and  C_10
REMARK    2  A    between atoms: C_14  and  O_18
REMARK    3  A    between atoms: N_17  and  C_21
REMARK    4  A    between atoms: C_21  and  C_24
REMARK    5  A    between atoms: C_24  and  C_27
REMARK                            x       y       z     vdW  Elec       q    Type
REMARK                         _______ _______ _______ _____ _____    ______ ____
ROOT
ATOM      1  C   UNL     1     -10.810  54.878  47.918  0.00  0.00    +0.000 A 
ATOM      2  C   UNL     1     -12.080  55.575  47.566  0.00  0.00    +0.000 A 
ATOM      3  C   UNL     1     -10.431  54.776  49.202  0.00  0.00    +0.000 A 
ATOM      4  O   UNL     1     -12.352  55.645  46.366  0.00  0.00    +0.000 OA
ATOM      5  N   UNL     1     -12.896  56.076  48.574  0.00  0.00    +0.000 N 
ATOM      6  C   UNL     1     -11.283  55.318  50.269  0.00  0.00    +0.000 A 
ATOM      7  C   UNL     1     -12.489  55.977  49.953  0.00  0.00    +0.000 A 
ATOM      8  C   UNL     1     -10.897  55.168  51.615  0.00  0.00    +0.000 A 
ATOM      9  C   UNL     1     -13.256  56.494  51.011  0.00  0.00    +0.000 A 
ATOM     10  C   UNL     1     -11.693  55.652  52.649  0.00  0.00    +0.000 A 
ATOM     11  C   UNL     1     -12.870  56.319  52.345  0.00  0.00    +0.000 A 
ENDROOT
BRANCH   1  17
ATOM     12  S   UNL     1      -7.858  54.147  45.428  0.00  0.00    +0.000 S 
ATOM     13  O   UNL     1      -6.819  53.312  45.997  0.00  0.00    +0.000 OA
ATOM     14  O   UNL     1      -7.507  55.284  44.595  0.00  0.00    +0.000 OA
ATOM     15  N   UNL     1      -8.784  54.686  46.643  0.00  0.00    +0.000 N 
ATOM     16  C   UNL     1      -8.823  53.088  44.412  0.00  0.00    +0.000 A 
ATOM     17  C   UNL     1      -9.998  54.251  46.798  0.00  0.00    +0.000 C 
ATOM     18  C   UNL     1     -10.110  52.793  44.829  0.00  0.00    +0.000 A 
ATOM     19  C   UNL     1      -8.295  52.583  43.221  0.00  0.00    +0.000 A 
ATOM     20  N   UNL     1     -10.615  53.285  46.029  0.00  0.00    +0.000 N 
ATOM     21  C   UNL     1     -10.870  51.908  44.056  0.00  0.00    +0.000 A 
ATOM     22  C   UNL     1      -9.075  51.728  42.446  0.00  0.00    +0.000 A 
ATOM     23  C   UNL     1     -10.360  51.386  42.864  0.00  0.00    +0.000 A 
ATOM     24  H   UNL     1      -8.422  55.350  47.272  0.00  0.00    +0.000 HD
ATOM     25  H   UNL     1     -11.470  52.919  46.351  0.00  0.00    +0.000 HD
ENDBRANCH   1  17
BRANCH   3  26
ATOM     26  O   UNL     1      -9.267  54.156  49.621  0.00  0.00    +0.000 OA
ATOM     27  H   UNL     1      -8.869  54.407  50.431  0.00  0.00    +0.000 HD
ENDBRANCH   3  26
BRANCH   5  28
ATOM     28  C   UNL     1     -14.100  56.852  48.192  0.00  0.00    +0.000 C 
BRANCH  28  29
ATOM     29  C   UNL     1     -13.911  58.371  48.026  0.00  0.00    +0.000 C 
BRANCH  29  30
ATOM     30  C   UNL     1     -14.236  59.156  49.265  0.00  0.00    +0.000 C 
ATOM     31  C   UNL     1     -14.637  60.607  49.244  0.00  0.00    +0.000 C 
ATOM     32  C   UNL     1     -13.262  60.218  49.709  0.00  0.00    +0.000 C 
ENDBRANCH  29  30
ENDBRANCH  28  29
ENDBRANCH   5  28
TORSDOF 5
ENDMDL
MODEL 7
REMARK VINA RESULT:      -7.7      4.142      5.849
REMARK  Name = 338298
REMARK  5 active torsions:
REMARK  status: ('A' for Active; 'I' for Inactive)
REMARK    1  A    between atoms: C_6  and  C_10
REMARK    2  A    between atoms: C_14  and  O_18
REMARK    3  A    between atoms: N_17  and  C_21
REMARK    4  A    between atoms: C_21  and  C_24
REMARK    5  A    between atoms: C_24  and  C_27
REMARK                            x       y       z     vdW  Elec       q    Type
REMARK                         _______ _______ _______ _____ _____    ______ ____
ROOT
ATOM      1  C   UNL     1     -11.416  56.260  48.488  0.00  0.00    +0.000 A 
ATOM      2  C   UNL     1     -11.835  55.586  47.227  0.00  0.00    +0.000 A 
ATOM      3  C   UNL     1     -10.159  56.123  48.940  0.00  0.00    +0.000 A 
ATOM      4  O   UNL     1     -13.009  55.742  46.886  0.00  0.00    +0.000 OA
ATOM      5  N   UNL     1     -10.908  54.854  46.493  0.00  0.00    +0.000 N 
ATOM      6  C   UNL     1      -9.180  55.339  48.175  0.00  0.00    +0.000 A 
ATOM      7  C   UNL     1      -9.560  54.697  46.978  0.00  0.00    +0.000 A 
ATOM      8  C   UNL     1      -7.853  55.237  48.635  0.00  0.00    +0.000 A 
ATOM      9  C   UNL     1      -8.589  53.943  46.296  0.00  0.00    +0.000 A 
ATOM     10  C   UNL     1      -6.898  54.518  47.922  0.00  0.00    +0.000 A 
ATOM     11  C   UNL     1      -7.270  53.868  46.755  0.00  0.00    +0.000 A 
ENDROOT
BRANCH   1  17
ATOM     12  S   UNL     1     -13.616  59.371  49.453  0.00  0.00    +0.000 S 
ATOM     13  O   UNL     1     -14.799  59.516  48.628  0.00  0.00    +0.000 OA
ATOM     14  O   UNL     1     -12.837  60.538  49.826  0.00  0.00    +0.000 OA
ATOM     15  N   UNL     1     -12.624  58.324  48.717  0.00  0.00    +0.000 N 
ATOM     16  C   UNL     1     -14.168  58.659  50.961  0.00  0.00    +0.000 A 
ATOM     17  C   UNL     1     -12.426  57.136  49.207  0.00  0.00    +0.000 C 
ATOM     18  C   UNL     1     -13.795  57.354  51.231  0.00  0.00    +0.000 A 
ATOM     19  C   UNL     1     -14.943  59.408  51.851  0.00  0.00    +0.000 A 
ATOM     20  N   UNL     1     -13.042  56.611  50.326  0.00  0.00    +0.000 N 
ATOM     21  C   UNL     1     -14.273  56.758  52.404  0.00  0.00    +0.000 A 
ATOM     22  C   UNL     1     -15.384  58.811  53.029  0.00  0.00    +0.000 A 
ATOM     23  C   UNL     1     -15.054  57.486  53.305  0.00  0.00    +0.000 A 
ATOM     24  H   UNL     1     -12.165  58.589  47.888  0.00  0.00    +0.000 HD
ATOM     25  H   UNL     1     -12.941  55.647  50.494  0.00  0.00    +0.000 HD
ENDBRANCH   1  17
BRANCH   3  26
ATOM     26  O   UNL     1      -9.684  56.704  50.103  0.00  0.00    +0.000 OA
ATOM     27  H   UNL     1      -8.765  56.707  50.282  0.00  0.00    +0.000 HD
ENDBRANCH   3  26
BRANCH   5  28
ATOM     28  C   UNL     1     -11.376  54.112  45.298  0.00  0.00    +0.000 C 
BRANCH  28  29
ATOM     29  C   UNL     1     -11.448  52.579  45.430  0.00  0.00    +0.000 C 
BRANCH  29  30
ATOM     30  C   UNL     1     -12.497  52.109  46.398  0.00  0.00    +0.000 C 
ATOM     31  C   UNL     1     -12.213  51.817  47.847  0.00  0.00    +0.000 C 
ATOM     32  C   UNL     1     -12.427  50.683  46.884  0.00  0.00    +0.000 C 
ENDBRANCH  29  30
ENDBRANCH  28  29
ENDBRANCH   5  28
TORSDOF 5
ENDMDL
MODEL 8
REMARK VINA RESULT:      -7.6      2.689      7.909
REMARK  Name = 338298
REMARK  5 active torsions:
REMARK  status: ('A' for Active; 'I' for Inactive)
REMARK    1  A    between atoms: C_6  and  C_10
REMARK    2  A    between atoms: C_14  and  O_18
REMARK    3  A    between atoms: N_17  and  C_21
REMARK    4  A    between atoms: C_21  and  C_24
REMARK    5  A    between atoms: C_24  and  C_27
REMARK                            x       y       z     vdW  Elec       q    Type
REMARK                         _______ _______ _______ _____ _____    ______ ____
ROOT
ATOM      1  C   UNL     1     -10.088  54.991  50.373  0.00  0.00    +0.000 A 
ATOM      2  C   UNL     1     -11.170  55.252  51.363  0.00  0.00    +0.000 A 
ATOM      3  C   UNL     1     -10.292  55.240  49.069  0.00  0.00    +0.000 A 
ATOM      4  O   UNL     1     -10.915  54.979  52.538  0.00  0.00    +0.000 OA
ATOM      5  N   UNL     1     -12.376  55.801  50.941  0.00  0.00    +0.000 N 
ATOM      6  C   UNL     1     -11.570  55.807  48.617  0.00  0.00    +0.000 A 
ATOM      7  C   UNL     1     -12.603  56.063  49.543  0.00  0.00    +0.000 A 
ATOM      8  C   UNL     1     -11.759  56.106  47.254  0.00  0.00    +0.000 A 
ATOM      9  C   UNL     1     -13.813  56.586  49.054  0.00  0.00    +0.000 A 
ATOM     10  C   UNL     1     -12.950  56.662  46.799  0.00  0.00    +0.000 A 
ATOM     11  C   UNL     1     -13.978  56.898  47.700  0.00  0.00    +0.000 A 
ENDROOT
BRANCH   1  17
ATOM     12  S   UNL     1      -6.900  52.742  50.859  0.00  0.00    +0.000 S 
ATOM     13  O   UNL     1      -5.889  52.951  49.842  0.00  0.00    +0.000 OA
ATOM     14  O   UNL     1      -7.204  51.400  51.324  0.00  0.00    +0.000 OA
ATOM     15  N   UNL     1      -8.279  53.411  50.333  0.00  0.00    +0.000 N 
ATOM     16  C   UNL     1      -6.349  53.627  52.273  0.00  0.00    +0.000 A 
ATOM     17  C   UNL     1      -8.749  54.490  50.884  0.00  0.00    +0.000 C 
ATOM     18  C   UNL     1      -7.057  54.759  52.640  0.00  0.00    +0.000 A 
ATOM     19  C   UNL     1      -5.241  53.178  52.996  0.00  0.00    +0.000 A 
ATOM     20  N   UNL     1      -8.145  55.208  51.898  0.00  0.00    +0.000 N 
ATOM     21  C   UNL     1      -6.597  55.502  53.732  0.00  0.00    +0.000 A 
ATOM     22  C   UNL     1      -4.813  53.912  54.100  0.00  0.00    +0.000 A 
ATOM     23  C   UNL     1      -5.486  55.076  54.466  0.00  0.00    +0.000 A 
ATOM     24  H   UNL     1      -8.767  52.995  49.586  0.00  0.00    +0.000 HD
ATOM     25  H   UNL     1      -8.511  56.096  52.109  0.00  0.00    +0.000 HD
ENDBRANCH   1  17
BRANCH   3  26
ATOM     26  O   UNL     1      -9.350  55.021  48.080  0.00  0.00    +0.000 OA
ATOM     27  H   UNL     1      -9.465  54.317  47.473  0.00  0.00    +0.000 HD
ENDBRANCH   3  26
BRANCH   5  28
ATOM     28  C   UNL     1     -13.470  55.956  51.930  0.00  0.00    +0.000 C 
BRANCH  28  29
ATOM     29  C   UNL     1     -13.643  57.357  52.545  0.00  0.00    +0.000 C 
BRANCH  29  30
ATOM     30  C   UNL     1     -14.947  58.012  52.190  0.00  0.00    +0.000 C 
ATOM     31  C   UNL     1     -15.040  59.323  51.455  0.00  0.00    +0.000 C 
ATOM     32  C   UNL     1     -15.335  59.268  52.927  0.00  0.00    +0.000 C 
ENDBRANCH  29  30
ENDBRANCH  28  29
ENDBRANCH   5  28
TORSDOF 5
ENDMDL
MODEL 9
REMARK VINA RESULT:      -7.6      2.910      4.974
REMARK  Name = 338298
REMARK  5 active torsions:
REMARK  status: ('A' for Active; 'I' for Inactive)
REMARK    1  A    between atoms: C_6  and  C_10
REMARK    2  A    between atoms: C_14  and  O_18
REMARK    3  A    between atoms: N_17  and  C_21
REMARK    4  A    between atoms: C_21  and  C_24
REMARK    5  A    between atoms: C_24  and  C_27
REMARK                            x       y       z     vdW  Elec       q    Type
REMARK                         _______ _______ _______ _____ _____    ______ ____
ROOT
ATOM      1  C   UNL     1     -11.483  55.887  48.823  0.00  0.00    +0.000 A 
ATOM      2  C   UNL     1     -10.475  55.255  49.721  0.00  0.00    +0.000 A 
ATOM      3  C   UNL     1     -11.535  55.547  47.525  0.00  0.00    +0.000 A 
ATOM      4  O   UNL     1     -10.475  55.631  50.895  0.00  0.00    +0.000 OA
ATOM      5  N   UNL     1      -9.622  54.277  49.223  0.00  0.00    +0.000 N 
ATOM      6  C   UNL     1     -10.625  54.526  46.991  0.00  0.00    +0.000 A 
ATOM      7  C   UNL     1      -9.668  53.916  47.829  0.00  0.00    +0.000 A 
ATOM      8  C   UNL     1     -10.717  54.145  45.638  0.00  0.00    +0.000 A 
ATOM      9  C   UNL     1      -8.809  52.958  47.262  0.00  0.00    +0.000 A 
ATOM     10  C   UNL     1      -9.883  53.165  45.108  0.00  0.00    +0.000 A 
ATOM     11  C   UNL     1      -8.926  52.576  45.921  0.00  0.00    +0.000 A 
ENDROOT
BRANCH   1  17
ATOM     12  S   UNL     1     -13.546  59.177  49.432  0.00  0.00    +0.000 S 
ATOM     13  O   UNL     1     -14.694  59.306  48.556  0.00  0.00    +0.000 OA
ATOM     14  O   UNL     1     -12.718  60.333  49.727  0.00  0.00    +0.000 OA
ATOM     15  N   UNL     1     -12.587  58.019  48.827  0.00  0.00    +0.000 N 
ATOM     16  C   UNL     1     -14.179  58.631  50.977  0.00  0.00    +0.000 A 
ATOM     17  C   UNL     1     -12.467  56.873  49.426  0.00  0.00    +0.000 C 
ATOM     18  C   UNL     1     -13.884  57.339  51.373  0.00  0.00    +0.000 A 
ATOM     19  C   UNL     1     -14.940  59.495  51.769  0.00  0.00    +0.000 A 
ATOM     20  N   UNL     1     -13.144  56.482  50.565  0.00  0.00    +0.000 N 
ATOM     21  C   UNL     1     -14.427  56.875  52.577  0.00  0.00    +0.000 A 
ATOM     22  C   UNL     1     -15.448  59.029  52.979  0.00  0.00    +0.000 A 
ATOM     23  C   UNL     1     -15.196  57.719  53.383  0.00  0.00    +0.000 A 
ATOM     24  H   UNL     1     -12.090  58.186  47.994  0.00  0.00    +0.000 HD
ATOM     25  H   UNL     1     -13.098  55.533  50.821  0.00  0.00    +0.000 HD
ENDBRANCH   1  17
BRANCH   3  26
ATOM     26  O   UNL     1     -12.429  56.087  46.617  0.00  0.00    +0.000 OA
ATOM     27  H   UNL     1     -13.329  55.825  46.635  0.00  0.00    +0.000 HD
ENDBRANCH   3  26
BRANCH   5  28
ATOM     28  C   UNL     1      -8.564  53.739  50.111  0.00  0.00    +0.000 C 
BRANCH  28  29
ATOM     29  C   UNL     1      -7.328  54.633  50.322  0.00  0.00    +0.000 C 
BRANCH  29  30
ATOM     30  C   UNL     1      -6.902  54.737  51.759  0.00  0.00    +0.000 C 
ATOM     31  C   UNL     1      -7.870  54.711  52.912  0.00  0.00    +0.000 C 
ATOM     32  C   UNL     1      -7.226  56.007  52.506  0.00  0.00    +0.000 C 
ENDBRANCH  29  30
ENDBRANCH  28  29
ENDBRANCH   5  28
TORSDOF 5
ENDMDL
