MODEL 1
REMARK VINA RESULT:      -8.6      0.000      0.000
REMARK  Name = 338168
REMARK  5 active torsions:
REMARK  status: ('A' for Active; 'I' for Inactive)
REMARK    1  A    between atoms: C_6  and  C_10
REMARK    2  A    between atoms: C_14  and  O_18
REMARK    3  A    between atoms: N_17  and  C_21
REMARK    4  A    between atoms: C_21  and  C_24
REMARK    5  A    between atoms: C_24  and  C_27
REMARK                            x       y       z     vdW  Elec       q    Type
REMARK                         _______ _______ _______ _____ _____    ______ ____
ROOT
ATOM      1  C   UNL     1      -9.995  54.542  52.362  0.00  0.00    +0.000 A 
ATOM      2  C   UNL     1      -8.600  55.044  52.250  0.00  0.00    +0.000 A 
ATOM      3  C   UNL     1     -10.254  53.414  53.044  0.00  0.00    +0.000 A 
ATOM      4  O   UNL     1      -8.397  55.986  51.482  0.00  0.00    +0.000 OA
ATOM      5  N   UNL     1      -7.606  54.458  53.036  0.00  0.00    +0.000 N 
ATOM      6  C   UNL     1      -9.177  52.700  53.736  0.00  0.00    +0.000 A 
ATOM      7  C   UNL     1      -7.871  53.233  53.748  0.00  0.00    +0.000 A 
ATOM      8  C   UNL     1      -9.462  51.507  54.427  0.00  0.00    +0.000 A 
ATOM      9  C   UNL     1      -6.880  52.535  54.464  0.00  0.00    +0.000 A 
ATOM     10  C   UNL     1      -8.471  50.862  55.145  0.00  0.00    +0.000 A 
ATOM     11  C   UNL     1      -7.183  51.365  55.172  0.00  0.00    +0.000 A 
ATOM     12  F   UNL     1      -8.763  49.746  55.827  0.00  0.00    +0.000 F 
ENDROOT
BRANCH   1  18
ATOM     13  S   UNL     1     -12.377  55.789  49.422  0.00  0.00    +0.000 S 
ATOM     14  O   UNL     1     -13.049  54.545  49.133  0.00  0.00    +0.000 OA
ATOM     15  O   UNL     1     -11.934  56.685  48.373  0.00  0.00    +0.000 OA
ATOM     16  N   UNL     1     -11.053  55.459  50.351  0.00  0.00    +0.000 N 
ATOM     17  C   UNL     1     -13.367  56.692  50.530  0.00  0.00    +0.000 A 
ATOM     18  C   UNL     1     -11.130  55.276  51.730  0.00  0.00    +0.000 C 
ATOM     19  C   UNL     1     -13.104  56.548  51.888  0.00  0.00    +0.000 A 
ATOM     20  C   UNL     1     -14.356  57.552  50.044  0.00  0.00    +0.000 A 
ATOM     21  N   UNL     1     -12.120  55.716  52.442  0.00  0.00    +0.000 N 
ATOM     22  C   UNL     1     -13.869  57.309  52.777  0.00  0.00    +0.000 A 
ATOM     23  C   UNL     1     -15.110  58.294  50.946  0.00  0.00    +0.000 A 
ATOM     24  C   UNL     1     -14.864  58.177  52.314  0.00  0.00    +0.000 A 
ATOM     25  H   UNL     1     -10.174  55.389  49.913  0.00  0.00    +0.000 HD
ATOM     26  H   UNL     1     -12.182  55.462  53.392  0.00  0.00    +0.000 HD
ENDBRANCH   1  18
BRANCH   3  27
ATOM     27  O   UNL     1     -11.511  52.848  53.182  0.00  0.00    +0.000 OA
ATOM     28  H   UNL     1     -11.979  52.555  52.425  0.00  0.00    +0.000 HD
ENDBRANCH   3  27
BRANCH   5  29
ATOM     29  C   UNL     1      -6.225  54.992  52.964  0.00  0.00    +0.000 C 
BRANCH  29  30
ATOM     30  C   UNL     1      -5.227  54.201  52.099  0.00  0.00    +0.000 C 
BRANCH  30  31
ATOM     31  C   UNL     1      -5.341  54.505  50.631  0.00  0.00    +0.000 C 
ATOM     32  C   UNL     1      -6.148  53.670  49.671  0.00  0.00    +0.000 C 
ATOM     33  C   UNL     1      -4.649  53.586  49.657  0.00  0.00    +0.000 C 
ENDBRANCH  30  31
ENDBRANCH  29  30
ENDBRANCH   5  29
TORSDOF 5
ENDMDL
MODEL 2
REMARK VINA RESULT:      -8.3      3.850      5.438
REMARK  Name = 338168
REMARK  5 active torsions:
REMARK  status: ('A' for Active; 'I' for Inactive)
REMARK    1  A    between atoms: C_6  and  C_10
REMARK    2  A    between atoms: C_14  and  O_18
REMARK    3  A    between atoms: N_17  and  C_21
REMARK    4  A    between atoms: C_21  and  C_24
REMARK    5  A    between atoms: C_24  and  C_27
REMARK                            x       y       z     vdW  Elec       q    Type
REMARK                         _______ _______ _______ _____ _____    ______ ____
ROOT
ATOM      1  C   UNL     1     -11.527  55.774  48.953  0.00  0.00    +0.000 A 
ATOM      2  C   UNL     1     -10.442  55.087  49.701  0.00  0.00    +0.000 A 
ATOM      3  C   UNL     1     -11.714  55.518  47.647  0.00  0.00    +0.000 A 
ATOM      4  O   UNL     1     -10.210  55.477  50.847  0.00  0.00    +0.000 OA
ATOM      5  N   UNL     1      -9.769  54.026  49.094  0.00  0.00    +0.000 N 
ATOM      6  C   UNL     1     -10.892  54.517  46.961  0.00  0.00    +0.000 A 
ATOM      7  C   UNL     1      -9.946  53.763  47.687  0.00  0.00    +0.000 A 
ATOM      8  C   UNL     1     -11.086  54.277  45.588  0.00  0.00    +0.000 A 
ATOM      9  C   UNL     1      -9.213  52.782  46.994  0.00  0.00    +0.000 A 
ATOM     10  C   UNL     1     -10.369  53.284  44.944  0.00  0.00    +0.000 A 
ATOM     11  C   UNL     1      -9.436  52.533  45.635  0.00  0.00    +0.000 A 
ATOM     12  F   UNL     1     -10.587  53.043  43.644  0.00  0.00    +0.000 F 
ENDROOT
BRANCH   1  18
ATOM     13  S   UNL     1     -13.518  59.187  49.467  0.00  0.00    +0.000 S 
ATOM     14  O   UNL     1     -14.502  59.035  48.421  0.00  0.00    +0.000 OA
ATOM     15  O   UNL     1     -12.861  60.453  49.725  0.00  0.00    +0.000 OA
ATOM     16  N   UNL     1     -12.322  58.077  49.218  0.00  0.00    +0.000 N 
ATOM     17  C   UNL     1     -14.218  58.621  50.954  0.00  0.00    +0.000 A 
ATOM     18  C   UNL     1     -12.431  56.751  49.630  0.00  0.00    +0.000 C 
ATOM     19  C   UNL     1     -13.990  57.296  51.306  0.00  0.00    +0.000 A 
ATOM     20  C   UNL     1     -14.945  59.498  51.764  0.00  0.00    +0.000 A 
ATOM     21  N   UNL     1     -13.259  56.367  50.550  0.00  0.00    +0.000 N 
ATOM     22  C   UNL     1     -14.514  56.853  52.525  0.00  0.00    +0.000 A 
ATOM     23  C   UNL     1     -15.464  59.035  52.968  0.00  0.00    +0.000 A 
ATOM     24  C   UNL     1     -15.244  57.713  53.352  0.00  0.00    +0.000 A 
ATOM     25  H   UNL     1     -11.498  58.364  48.761  0.00  0.00    +0.000 HD
ATOM     26  H   UNL     1     -13.377  55.404  50.722  0.00  0.00    +0.000 HD
ENDBRANCH   1  18
BRANCH   3  27
ATOM     27  O   UNL     1     -12.676  56.125  46.856  0.00  0.00    +0.000 OA
ATOM     28  H   UNL     1     -12.702  57.059  46.782  0.00  0.00    +0.000 HD
ENDBRANCH   3  27
BRANCH   5  29
ATOM     29  C   UNL     1      -8.723  53.307  49.858  0.00  0.00    +0.000 C 
BRANCH  29  30
ATOM     30  C   UNL     1      -7.512  54.141  50.316  0.00  0.00    +0.000 C 
BRANCH  30  31
ATOM     31  C   UNL     1      -6.829  54.864  49.190  0.00  0.00    +0.000 C 
ATOM     32  C   UNL     1      -5.941  54.181  48.181  0.00  0.00    +0.000 C 
ATOM     33  C   UNL     1      -5.332  55.035  49.256  0.00  0.00    +0.000 C 
ENDBRANCH  30  31
ENDBRANCH  29  30
ENDBRANCH   5  29
TORSDOF 5
ENDMDL
MODEL 3
REMARK VINA RESULT:      -8.2      3.609      7.235
REMARK  Name = 338168
REMARK  5 active torsions:
REMARK  status: ('A' for Active; 'I' for Inactive)
REMARK    1  A    between atoms: C_6  and  C_10
REMARK    2  A    between atoms: C_14  and  O_18
REMARK    3  A    between atoms: N_17  and  C_21
REMARK    4  A    between atoms: C_21  and  C_24
REMARK    5  A    between atoms: C_24  and  C_27
REMARK                            x       y       z     vdW  Elec       q    Type
REMARK                         _______ _______ _______ _____ _____    ______ ____
ROOT
ATOM      1  C   UNL     1     -10.180  55.109  50.798  0.00  0.00    +0.000 A 
ATOM      2  C   UNL     1      -9.815  55.188  49.359  0.00  0.00    +0.000 A 
ATOM      3  C   UNL     1     -11.378  55.548  51.216  0.00  0.00    +0.000 A 
ATOM      4  O   UNL     1      -8.650  54.925  49.055  0.00  0.00    +0.000 OA
ATOM      5  N   UNL     1     -10.803  55.518  48.429  0.00  0.00    +0.000 N 
ATOM      6  C   UNL     1     -12.362  56.054  50.254  0.00  0.00    +0.000 A 
ATOM      7  C   UNL     1     -12.081  56.016  48.872  0.00  0.00    +0.000 A 
ATOM      8  C   UNL     1     -13.604  56.532  50.711  0.00  0.00    +0.000 A 
ATOM      9  C   UNL     1     -13.075  56.470  47.984  0.00  0.00    +0.000 A 
ATOM     10  C   UNL     1     -14.570  56.943  49.810  0.00  0.00    +0.000 A 
ATOM     11  C   UNL     1     -14.317  56.915  48.451  0.00  0.00    +0.000 A 
ATOM     12  F   UNL     1     -15.761  57.364  50.257  0.00  0.00    +0.000 F 
ENDROOT
BRANCH   1  18
ATOM     13  S   UNL     1      -6.892  54.897  53.038  0.00  0.00    +0.000 S 
ATOM     14  O   UNL     1      -7.168  55.983  53.948  0.00  0.00    +0.000 OA
ATOM     15  O   UNL     1      -5.571  54.677  52.482  0.00  0.00    +0.000 OA
ATOM     16  N   UNL     1      -7.927  55.018  51.758  0.00  0.00    +0.000 N 
ATOM     17  C   UNL     1      -7.425  53.419  53.782  0.00  0.00    +0.000 A 
ATOM     18  C   UNL     1      -9.234  54.538  51.802  0.00  0.00    +0.000 C 
ATOM     19  C   UNL     1      -8.711  52.981  53.487  0.00  0.00    +0.000 A 
ATOM     20  C   UNL     1      -6.559  52.701  54.611  0.00  0.00    +0.000 A 
ATOM     21  N   UNL     1      -9.625  53.643  52.654  0.00  0.00    +0.000 N 
ATOM     22  C   UNL     1      -9.123  51.768  54.049  0.00  0.00    +0.000 A 
ATOM     23  C   UNL     1      -6.992  51.501  55.166  0.00  0.00    +0.000 A 
ATOM     24  C   UNL     1      -8.274  51.031  54.881  0.00  0.00    +0.000 A 
ATOM     25  H   UNL     1      -7.608  55.446  50.930  0.00  0.00    +0.000 HD
ATOM     26  H   UNL     1     -10.583  53.422  52.717  0.00  0.00    +0.000 HD
ENDBRANCH   1  18
BRANCH   3  27
ATOM     27  O   UNL     1     -11.802  55.546  52.536  0.00  0.00    +0.000 OA
ATOM     28  H   UNL     1     -12.536  55.023  52.792  0.00  0.00    +0.000 HD
ENDBRANCH   3  27
BRANCH   5  29
ATOM     29  C   UNL     1     -10.452  55.546  46.989  0.00  0.00    +0.000 C 
BRANCH  29  30
ATOM     30  C   UNL     1     -10.593  54.219  46.221  0.00  0.00    +0.000 C 
BRANCH  30  31
ATOM     31  C   UNL     1      -9.273  53.583  45.886  0.00  0.00    +0.000 C 
ATOM     32  C   UNL     1      -8.109  54.344  45.304  0.00  0.00    +0.000 C 
ATOM     33  C   UNL     1      -8.910  53.420  44.431  0.00  0.00    +0.000 C 
ENDBRANCH  30  31
ENDBRANCH  29  30
ENDBRANCH   5  29
TORSDOF 5
ENDMDL
MODEL 4
REMARK VINA RESULT:      -8.2      3.665      7.266
REMARK  Name = 338168
REMARK  5 active torsions:
REMARK  status: ('A' for Active; 'I' for Inactive)
REMARK    1  A    between atoms: C_6  and  C_10
REMARK    2  A    between atoms: C_14  and  O_18
REMARK    3  A    between atoms: N_17  and  C_21
REMARK    4  A    between atoms: C_21  and  C_24
REMARK    5  A    between atoms: C_24  and  C_27
REMARK                            x       y       z     vdW  Elec       q    Type
REMARK                         _______ _______ _______ _____ _____    ______ ____
ROOT
ATOM      1  C   UNL     1     -10.164  55.433  50.490  0.00  0.00    +0.000 A 
ATOM      2  C   UNL     1     -10.324  55.690  49.034  0.00  0.00    +0.000 A 
ATOM      3  C   UNL     1     -11.202  55.605  51.325  0.00  0.00    +0.000 A 
ATOM      4  O   UNL     1      -9.305  55.676  48.341  0.00  0.00    +0.000 OA
ATOM      5  N   UNL     1     -11.606  55.898  48.522  0.00  0.00    +0.000 N 
ATOM      6  C   UNL     1     -12.518  55.989  50.805  0.00  0.00    +0.000 A 
ATOM      7  C   UNL     1     -12.720  56.111  49.414  0.00  0.00    +0.000 A 
ATOM      8  C   UNL     1     -13.590  56.188  51.696  0.00  0.00    +0.000 A 
ATOM      9  C   UNL     1     -14.011  56.437  48.960  0.00  0.00    +0.000 A 
ATOM     10  C   UNL     1     -14.854  56.478  51.215  0.00  0.00    +0.000 A 
ATOM     11  C   UNL     1     -15.075  56.602  49.855  0.00  0.00    +0.000 A 
ATOM     12  F   UNL     1     -15.872  56.631  52.071  0.00  0.00    +0.000 F 
ENDROOT
BRANCH   1  18
ATOM     13  S   UNL     1      -6.569  53.716  50.492  0.00  0.00    +0.000 S 
ATOM     14  O   UNL     1      -5.858  54.678  49.684  0.00  0.00    +0.000 OA
ATOM     15  O   UNL     1      -6.375  52.288  50.334  0.00  0.00    +0.000 OA
ATOM     16  N   UNL     1      -8.187  53.994  50.325  0.00  0.00    +0.000 N 
ATOM     17  C   UNL     1      -6.313  54.121  52.163  0.00  0.00    +0.000 A 
ATOM     18  C   UNL     1      -8.859  54.975  51.052  0.00  0.00    +0.000 C 
ATOM     19  C   UNL     1      -7.260  54.931  52.778  0.00  0.00    +0.000 A 
ATOM     20  C   UNL     1      -5.209  53.605  52.847  0.00  0.00    +0.000 A 
ATOM     21  N   UNL     1      -8.398  55.470  52.156  0.00  0.00    +0.000 N 
ATOM     22  C   UNL     1      -7.080  55.219  54.135  0.00  0.00    +0.000 A 
ATOM     23  C   UNL     1      -5.044  53.910  54.194  0.00  0.00    +0.000 A 
ATOM     24  C   UNL     1      -5.983  54.714  54.841  0.00  0.00    +0.000 A 
ATOM     25  H   UNL     1      -8.698  53.444  49.688  0.00  0.00    +0.000 HD
ATOM     26  H   UNL     1      -8.854  56.239  52.569  0.00  0.00    +0.000 HD
ENDBRANCH   1  18
BRANCH   3  27
ATOM     27  O   UNL     1     -11.148  55.421  52.697  0.00  0.00    +0.000 OA
ATOM     28  H   UNL     1     -11.179  56.161  53.271  0.00  0.00    +0.000 HD
ENDBRANCH   3  27
BRANCH   5  29
ATOM     29  C   UNL     1     -11.772  56.103  47.064  0.00  0.00    +0.000 C 
BRANCH  29  30
ATOM     30  C   UNL     1     -12.060  54.846  46.222  0.00  0.00    +0.000 C 
BRANCH  30  31
ATOM     31  C   UNL     1     -10.824  54.233  45.628  0.00  0.00    +0.000 C 
ATOM     32  C   UNL     1     -10.854  53.139  44.592  0.00  0.00    +0.000 C 
ATOM     33  C   UNL     1     -10.477  52.815  46.010  0.00  0.00    +0.000 C 
ENDBRANCH  30  31
ENDBRANCH  29  30
ENDBRANCH   5  29
TORSDOF 5
ENDMDL
MODEL 5
REMARK VINA RESULT:      -8.2      3.876      5.737
REMARK  Name = 338168
REMARK  5 active torsions:
REMARK  status: ('A' for Active; 'I' for Inactive)
REMARK    1  A    between atoms: C_6  and  C_10
REMARK    2  A    between atoms: C_14  and  O_18
REMARK    3  A    between atoms: N_17  and  C_21
REMARK    4  A    between atoms: C_21  and  C_24
REMARK    5  A    between atoms: C_24  and  C_27
REMARK                            x       y       z     vdW  Elec       q    Type
REMARK                         _______ _______ _______ _____ _____    ______ ____
ROOT
ATOM      1  C   UNL     1     -11.531  55.793  48.933  0.00  0.00    +0.000 A 
ATOM      2  C   UNL     1     -10.436  55.110  49.672  0.00  0.00    +0.000 A 
ATOM      3  C   UNL     1     -11.730  55.534  47.630  0.00  0.00    +0.000 A 
ATOM      4  O   UNL     1     -10.193  55.503  50.815  0.00  0.00    +0.000 OA
ATOM      5  N   UNL     1      -9.767  54.049  49.060  0.00  0.00    +0.000 N 
ATOM      6  C   UNL     1     -10.913  54.532  46.938  0.00  0.00    +0.000 A 
ATOM      7  C   UNL     1      -9.957  53.783  47.655  0.00  0.00    +0.000 A 
ATOM      8  C   UNL     1     -11.120  54.289  45.567  0.00  0.00    +0.000 A 
ATOM      9  C   UNL     1      -9.229  52.802  46.957  0.00  0.00    +0.000 A 
ATOM     10  C   UNL     1     -10.407  53.297  44.918  0.00  0.00    +0.000 A 
ATOM     11  C   UNL     1      -9.465  52.550  45.601  0.00  0.00    +0.000 A 
ATOM     12  F   UNL     1     -10.638  53.052  43.621  0.00  0.00    +0.000 F 
ENDROOT
BRANCH   1  18
ATOM     13  S   UNL     1     -13.521  59.203  49.462  0.00  0.00    +0.000 S 
ATOM     14  O   UNL     1     -14.513  59.049  48.425  0.00  0.00    +0.000 OA
ATOM     15  O   UNL     1     -12.864  60.471  49.714  0.00  0.00    +0.000 OA
ATOM     16  N   UNL     1     -12.325  58.095  49.204  0.00  0.00    +0.000 N 
ATOM     17  C   UNL     1     -14.207  58.638  50.956  0.00  0.00    +0.000 A 
ATOM     18  C   UNL     1     -12.429  56.769  49.617  0.00  0.00    +0.000 C 
ATOM     19  C   UNL     1     -13.975  57.313  51.306  0.00  0.00    +0.000 A 
ATOM     20  C   UNL     1     -14.929  59.514  51.771  0.00  0.00    +0.000 A 
ATOM     21  N   UNL     1     -13.249  56.385  50.544  0.00  0.00    +0.000 N 
ATOM     22  C   UNL     1     -14.488  56.870  52.530  0.00  0.00    +0.000 A 
ATOM     23  C   UNL     1     -15.437  59.051  52.980  0.00  0.00    +0.000 A 
ATOM     24  C   UNL     1     -15.211  57.729  53.363  0.00  0.00    +0.000 A 
ATOM     25  H   UNL     1     -11.506  58.383  48.740  0.00  0.00    +0.000 HD
ATOM     26  H   UNL     1     -13.364  55.422  50.718  0.00  0.00    +0.000 HD
ENDBRANCH   1  18
BRANCH   3  27
ATOM     27  O   UNL     1     -12.701  56.137  46.847  0.00  0.00    +0.000 OA
ATOM     28  H   UNL     1     -12.721  57.069  46.759  0.00  0.00    +0.000 HD
ENDBRANCH   3  27
BRANCH   5  29
ATOM     29  C   UNL     1      -8.711  53.334  49.815  0.00  0.00    +0.000 C 
BRANCH  29  30
ATOM     30  C   UNL     1      -9.179  52.194  50.739  0.00  0.00    +0.000 C 
BRANCH  30  31
ATOM     31  C   UNL     1      -8.968  52.488  52.198  0.00  0.00    +0.000 C 
ATOM     32  C   UNL     1      -9.289  51.509  53.297  0.00  0.00    +0.000 C 
ATOM     33  C   UNL     1     -10.183  52.693  53.067  0.00  0.00    +0.000 C 
ENDBRANCH  30  31
ENDBRANCH  29  30
ENDBRANCH   5  29
TORSDOF 5
ENDMDL
MODEL 6
REMARK VINA RESULT:      -8.0      3.252      4.330
REMARK  Name = 338168
REMARK  5 active torsions:
REMARK  status: ('A' for Active; 'I' for Inactive)
REMARK    1  A    between atoms: C_6  and  C_10
REMARK    2  A    between atoms: C_14  and  O_18
REMARK    3  A    between atoms: N_17  and  C_21
REMARK    4  A    between atoms: C_21  and  C_24
REMARK    5  A    between atoms: C_24  and  C_27
REMARK                            x       y       z     vdW  Elec       q    Type
REMARK                         _______ _______ _______ _____ _____    ______ ____
ROOT
ATOM      1  C   UNL     1     -12.137  54.375  50.286  0.00  0.00    +0.000 A 
ATOM      2  C   UNL     1     -11.939  53.877  48.898  0.00  0.00    +0.000 A 
ATOM      3  C   UNL     1     -11.631  53.692  51.326  0.00  0.00    +0.000 A 
ATOM      4  O   UNL     1     -12.559  54.449  47.998  0.00  0.00    +0.000 OA
ATOM      5  N   UNL     1     -11.048  52.826  48.678  0.00  0.00    +0.000 N 
ATOM      6  C   UNL     1     -10.829  52.485  51.104  0.00  0.00    +0.000 A 
ATOM      7  C   UNL     1     -10.524  52.072  49.790  0.00  0.00    +0.000 A 
ATOM      8  C   UNL     1     -10.326  51.769  52.207  0.00  0.00    +0.000 A 
ATOM      9  C   UNL     1      -9.713  50.934  49.628  0.00  0.00    +0.000 A 
ATOM     10  C   UNL     1      -9.507  50.671  52.012  0.00  0.00    +0.000 A 
ATOM     11  C   UNL     1      -9.195  50.248  50.733  0.00  0.00    +0.000 A 
ATOM     12  F   UNL     1      -9.007  50.019  53.070  0.00  0.00    +0.000 F 
ENDROOT
BRANCH   1  18
ATOM     13  S   UNL     1     -14.433  56.921  52.314  0.00  0.00    +0.000 S 
ATOM     14  O   UNL     1     -13.504  57.281  53.359  0.00  0.00    +0.000 OA
ATOM     15  O   UNL     1     -15.836  56.676  52.585  0.00  0.00    +0.000 OA
ATOM     16  N   UNL     1     -13.858  55.576  51.550  0.00  0.00    +0.000 N 
ATOM     17  C   UNL     1     -14.320  58.115  51.055  0.00  0.00    +0.000 A 
ATOM     18  C   UNL     1     -12.889  55.637  50.551  0.00  0.00    +0.000 C 
ATOM     19  C   UNL     1     -13.453  57.854  50.001  0.00  0.00    +0.000 A 
ATOM     20  C   UNL     1     -15.111  59.266  51.109  0.00  0.00    +0.000 A 
ATOM     21  N   UNL     1     -12.643  56.715  49.876  0.00  0.00    +0.000 N 
ATOM     22  C   UNL     1     -13.396  58.792  48.965  0.00  0.00    +0.000 A 
ATOM     23  C   UNL     1     -15.033  60.190  50.073  0.00  0.00    +0.000 A 
ATOM     24  C   UNL     1     -14.179  59.951  48.997  0.00  0.00    +0.000 A 
ATOM     25  H   UNL     1     -14.215  54.696  51.810  0.00  0.00    +0.000 HD
ATOM     26  H   UNL     1     -11.873  56.736  49.263  0.00  0.00    +0.000 HD
ENDBRANCH   1  18
BRANCH   3  27
ATOM     27  O   UNL     1     -11.785  54.055  52.655  0.00  0.00    +0.000 OA
ATOM     28  H   UNL     1     -12.642  54.164  53.016  0.00  0.00    +0.000 HD
ENDBRANCH   3  27
BRANCH   5  29
ATOM     29  C   UNL     1     -10.811  52.364  47.290  0.00  0.00    +0.000 C 
BRANCH  29  30
ATOM     30  C   UNL     1      -9.471  52.771  46.649  0.00  0.00    +0.000 C 
BRANCH  30  31
ATOM     31  C   UNL     1      -9.472  54.174  46.110  0.00  0.00    +0.000 C 
ATOM     32  C   UNL     1      -8.225  54.896  45.671  0.00  0.00    +0.000 C 
ATOM     33  C   UNL     1      -8.887  55.268  46.968  0.00  0.00    +0.000 C 
ENDBRANCH  30  31
ENDBRANCH  29  30
ENDBRANCH   5  29
TORSDOF 5
ENDMDL
MODEL 7
REMARK VINA RESULT:      -7.9      3.913      7.463
REMARK  Name = 338168
REMARK  5 active torsions:
REMARK  status: ('A' for Active; 'I' for Inactive)
REMARK    1  A    between atoms: C_6  and  C_10
REMARK    2  A    between atoms: C_14  and  O_18
REMARK    3  A    between atoms: N_17  and  C_21
REMARK    4  A    between atoms: C_21  and  C_24
REMARK    5  A    between atoms: C_24  and  C_27
REMARK                            x       y       z     vdW  Elec       q    Type
REMARK                         _______ _______ _______ _____ _____    ______ ____
ROOT
ATOM      1  C   UNL     1     -10.417  55.041  50.675  0.00  0.00    +0.000 A 
ATOM      2  C   UNL     1     -10.114  55.111  49.221  0.00  0.00    +0.000 A 
ATOM      3  C   UNL     1     -11.553  55.575  51.154  0.00  0.00    +0.000 A 
ATOM      4  O   UNL     1      -8.991  54.755  48.859  0.00  0.00    +0.000 OA
ATOM      5  N   UNL     1     -11.112  55.537  48.342  0.00  0.00    +0.000 N 
ATOM      6  C   UNL     1     -12.533  56.177  50.245  0.00  0.00    +0.000 A 
ATOM      7  C   UNL     1     -12.321  56.136  48.851  0.00  0.00    +0.000 A 
ATOM      8  C   UNL     1     -13.707  56.752  50.766  0.00  0.00    +0.000 A 
ATOM      9  C   UNL     1     -13.312  56.686  48.016  0.00  0.00    +0.000 A 
ATOM     10  C   UNL     1     -14.675  57.257  49.916  0.00  0.00    +0.000 A 
ATOM     11  C   UNL     1     -14.489  57.228  48.546  0.00  0.00    +0.000 A 
ATOM     12  F   UNL     1     -15.803  57.771  50.424  0.00  0.00    +0.000 F 
ENDROOT
BRANCH   1  18
ATOM     13  S   UNL     1      -8.812  52.051  52.762  0.00  0.00    +0.000 S 
ATOM     14  O   UNL     1      -8.193  51.326  51.678  0.00  0.00    +0.000 OA
ATOM     15  O   UNL     1      -9.510  51.376  53.839  0.00  0.00    +0.000 OA
ATOM     16  N   UNL     1      -9.877  53.136  52.118  0.00  0.00    +0.000 N 
ATOM     17  C   UNL     1      -7.618  53.104  53.460  0.00  0.00    +0.000 A 
ATOM     18  C   UNL     1      -9.478  54.377  51.626  0.00  0.00    +0.000 C 
ATOM     19  C   UNL     1      -7.555  54.408  52.982  0.00  0.00    +0.000 A 
ATOM     20  C   UNL     1      -6.791  52.640  54.487  0.00  0.00    +0.000 A 
ATOM     21  N   UNL     1      -8.363  54.942  51.967  0.00  0.00    +0.000 N 
ATOM     22  C   UNL     1      -6.626  55.268  53.576  0.00  0.00    +0.000 A 
ATOM     23  C   UNL     1      -5.868  53.510  55.058  0.00  0.00    +0.000 A 
ATOM     24  C   UNL     1      -5.788  54.827  54.606  0.00  0.00    +0.000 A 
ATOM     25  H   UNL     1     -10.831  52.897  52.080  0.00  0.00    +0.000 HD
ATOM     26  H   UNL     1      -8.076  55.763  51.505  0.00  0.00    +0.000 HD
ENDBRANCH   1  18
BRANCH   3  27
ATOM     27  O   UNL     1     -11.913  55.588  52.492  0.00  0.00    +0.000 OA
ATOM     28  H   UNL     1     -11.817  54.815  53.012  0.00  0.00    +0.000 HD
ENDBRANCH   3  27
BRANCH   5  29
ATOM     29  C   UNL     1     -10.827  55.558  46.888  0.00  0.00    +0.000 C 
BRANCH  29  30
ATOM     30  C   UNL     1     -11.681  54.627  46.008  0.00  0.00    +0.000 C 
BRANCH  30  31
ATOM     31  C   UNL     1     -10.967  53.367  45.607  0.00  0.00    +0.000 C 
ATOM     32  C   UNL     1     -10.707  52.979  44.174  0.00  0.00    +0.000 C 
ATOM     33  C   UNL     1     -11.770  52.266  44.961  0.00  0.00    +0.000 C 
ENDBRANCH  30  31
ENDBRANCH  29  30
ENDBRANCH   5  29
TORSDOF 5
ENDMDL
MODEL 8
REMARK VINA RESULT:      -7.8      3.972      5.730
REMARK  Name = 338168
REMARK  5 active torsions:
REMARK  status: ('A' for Active; 'I' for Inactive)
REMARK    1  A    between atoms: C_6  and  C_10
REMARK    2  A    between atoms: C_14  and  O_18
REMARK    3  A    between atoms: N_17  and  C_21
REMARK    4  A    between atoms: C_21  and  C_24
REMARK    5  A    between atoms: C_24  and  C_27
REMARK                            x       y       z     vdW  Elec       q    Type
REMARK                         _______ _______ _______ _____ _____    ______ ____
ROOT
ATOM      1  C   UNL     1     -10.794  55.730  48.214  0.00  0.00    +0.000 A 
ATOM      2  C   UNL     1      -9.357  55.766  48.598  0.00  0.00    +0.000 A 
ATOM      3  C   UNL     1     -11.177  55.103  47.090  0.00  0.00    +0.000 A 
ATOM      4  O   UNL     1      -9.043  56.489  49.545  0.00  0.00    +0.000 OA
ATOM      5  N   UNL     1      -8.452  54.965  47.901  0.00  0.00    +0.000 N 
ATOM      6  C   UNL     1     -10.195  54.396  46.262  0.00  0.00    +0.000 A 
ATOM      7  C   UNL     1      -8.850  54.311  46.679  0.00  0.00    +0.000 A 
ATOM      8  C   UNL     1     -10.609  53.763  45.074  0.00  0.00    +0.000 A 
ATOM      9  C   UNL     1      -7.954  53.584  45.873  0.00  0.00    +0.000 A 
ATOM     10  C   UNL     1      -9.709  53.031  44.321  0.00  0.00    +0.000 A 
ATOM     11  C   UNL     1      -8.386  52.934  44.711  0.00  0.00    +0.000 A 
ATOM     12  F   UNL     1     -10.124  52.406  43.212  0.00  0.00    +0.000 F 
ENDROOT
BRANCH   1  18
ATOM     13  S   UNL     1     -13.408  56.060  51.203  0.00  0.00    +0.000 S 
ATOM     14  O   UNL     1     -12.481  56.152  52.305  0.00  0.00    +0.000 OA
ATOM     15  O   UNL     1     -14.621  55.270  51.282  0.00  0.00    +0.000 OA
ATOM     16  N   UNL     1     -12.584  55.527  49.875  0.00  0.00    +0.000 N 
ATOM     17  C   UNL     1     -13.839  57.675  50.723  0.00  0.00    +0.000 A 
ATOM     18  C   UNL     1     -11.835  56.378  49.065  0.00  0.00    +0.000 C 
ATOM     19  C   UNL     1     -13.100  58.258  49.700  0.00  0.00    +0.000 A 
ATOM     20  C   UNL     1     -14.915  58.323  51.335  0.00  0.00    +0.000 A 
ATOM     21  N   UNL     1     -12.019  57.660  49.034  0.00  0.00    +0.000 N 
ATOM     22  C   UNL     1     -13.475  59.539  49.283  0.00  0.00    +0.000 A 
ATOM     23  C   UNL     1     -15.267  59.600  50.910  0.00  0.00    +0.000 A 
ATOM     24  C   UNL     1     -14.550  60.207  49.879  0.00  0.00    +0.000 A 
ATOM     25  H   UNL     1     -12.624  54.570  49.647  0.00  0.00    +0.000 HD
ATOM     26  H   UNL     1     -11.389  58.227  48.531  0.00  0.00    +0.000 HD
ENDBRANCH   1  18
BRANCH   3  27
ATOM     27  O   UNL     1     -12.482  55.037  46.630  0.00  0.00    +0.000 OA
ATOM     28  H   UNL     1     -13.047  55.780  46.713  0.00  0.00    +0.000 HD
ENDBRANCH   3  27
BRANCH   5  29
ATOM     29  C   UNL     1      -7.029  54.961  48.316  0.00  0.00    +0.000 C 
BRANCH  29  30
ATOM     30  C   UNL     1      -6.643  53.979  49.438  0.00  0.00    +0.000 C 
BRANCH  30  31
ATOM     31  C   UNL     1      -5.879  54.627  50.558  0.00  0.00    +0.000 C 
ATOM     32  C   UNL     1      -4.550  54.122  51.058  0.00  0.00    +0.000 C 
ATOM     33  C   UNL     1      -5.790  53.898  51.875  0.00  0.00    +0.000 C 
ENDBRANCH  30  31
ENDBRANCH  29  30
ENDBRANCH   5  29
TORSDOF 5
ENDMDL
MODEL 9
REMARK VINA RESULT:      -7.8      3.651      7.588
REMARK  Name = 338168
REMARK  5 active torsions:
REMARK  status: ('A' for Active; 'I' for Inactive)
REMARK    1  A    between atoms: C_6  and  C_10
REMARK    2  A    between atoms: C_14  and  O_18
REMARK    3  A    between atoms: N_17  and  C_21
REMARK    4  A    between atoms: C_21  and  C_24
REMARK    5  A    between atoms: C_24  and  C_27
REMARK                            x       y       z     vdW  Elec       q    Type
REMARK                         _______ _______ _______ _____ _____    ______ ____
ROOT
ATOM      1  C   UNL     1      -9.924  55.412  50.449  0.00  0.00    +0.000 A 
ATOM      2  C   UNL     1     -10.114  55.671  48.997  0.00  0.00    +0.000 A 
ATOM      3  C   UNL     1     -10.951  55.564  51.302  0.00  0.00    +0.000 A 
ATOM      4  O   UNL     1      -9.107  55.676  48.287  0.00  0.00    +0.000 OA
ATOM      5  N   UNL     1     -11.408  55.859  48.508  0.00  0.00    +0.000 N 
ATOM      6  C   UNL     1     -12.282  55.927  50.806  0.00  0.00    +0.000 A 
ATOM      7  C   UNL     1     -12.509  56.050  49.419  0.00  0.00    +0.000 A 
ATOM      8  C   UNL     1     -13.341  56.105  51.716  0.00  0.00    +0.000 A 
ATOM      9  C   UNL     1     -13.814  56.356  48.989  0.00  0.00    +0.000 A 
ATOM     10  C   UNL     1     -14.618  56.375  51.257  0.00  0.00    +0.000 A 
ATOM     11  C   UNL     1     -14.865  56.500  49.902  0.00  0.00    +0.000 A 
ATOM     12  F   UNL     1     -15.624  56.508  52.132  0.00  0.00    +0.000 F 
ENDROOT
BRANCH   1  18
ATOM     13  S   UNL     1      -7.051  54.905  53.162  0.00  0.00    +0.000 S 
ATOM     14  O   UNL     1      -7.692  53.909  53.987  0.00  0.00    +0.000 OA
ATOM     15  O   UNL     1      -6.299  56.006  53.731  0.00  0.00    +0.000 OA
ATOM     16  N   UNL     1      -8.193  55.574  52.175  0.00  0.00    +0.000 N 
ATOM     17  C   UNL     1      -6.034  54.085  52.015  0.00  0.00    +0.000 A 
ATOM     18  C   UNL     1      -8.603  54.974  50.987  0.00  0.00    +0.000 C 
ATOM     19  C   UNL     1      -6.578  53.794  50.769  0.00  0.00    +0.000 A 
ATOM     20  C   UNL     1      -4.713  53.775  52.347  0.00  0.00    +0.000 A 
ATOM     21  N   UNL     1      -7.889  54.089  50.365  0.00  0.00    +0.000 N 
ATOM     22  C   UNL     1      -5.746  53.176  49.830  0.00  0.00    +0.000 A 
ATOM     23  C   UNL     1      -3.904  53.153  51.402  0.00  0.00    +0.000 A 
ATOM     24  C   UNL     1      -4.420  52.858  50.140  0.00  0.00    +0.000 A 
ATOM     25  H   UNL     1      -8.601  56.431  52.437  0.00  0.00    +0.000 HD
ATOM     26  H   UNL     1      -8.274  53.614  49.592  0.00  0.00    +0.000 HD
ENDBRANCH   1  18
BRANCH   3  27
ATOM     27  O   UNL     1     -10.870  55.376  52.672  0.00  0.00    +0.000 OA
ATOM     28  H   UNL     1     -10.429  54.626  53.018  0.00  0.00    +0.000 HD
ENDBRANCH   3  27
BRANCH   5  29
ATOM     29  C   UNL     1     -11.602  56.066  47.053  0.00  0.00    +0.000 C 
BRANCH  29  30
ATOM     30  C   UNL     1     -12.144  54.866  46.255  0.00  0.00    +0.000 C 
BRANCH  30  31
ATOM     31  C   UNL     1     -11.083  53.865  45.894  0.00  0.00    +0.000 C 
ATOM     32  C   UNL     1     -10.897  53.316  44.503  0.00  0.00    +0.000 C 
ATOM     33  C   UNL     1     -11.512  52.456  45.569  0.00  0.00    +0.000 C 
ENDBRANCH  30  31
ENDBRANCH  29  30
ENDBRANCH   5  29
TORSDOF 5
ENDMDL
