MODEL 1
REMARK VINA RESULT:      -8.6      0.000      0.000
REMARK  Name = 338168
REMARK  5 active torsions:
REMARK  status: ('A' for Active; 'I' for Inactive)
REMARK    1  A    between atoms: C_6  and  C_10
REMARK    2  A    between atoms: C_14  and  O_18
REMARK    3  A    between atoms: N_17  and  C_21
REMARK    4  A    between atoms: C_21  and  C_24
REMARK    5  A    between atoms: C_24  and  C_27
REMARK                            x       y       z     vdW  Elec       q    Type
REMARK                         _______ _______ _______ _____ _____    ______ ____
ROOT
ATOM      1  C   UNL     1      -9.982  54.522  52.342  0.00  0.00    +0.000 A 
ATOM      2  C   UNL     1      -8.593  55.030  52.226  0.00  0.00    +0.000 A 
ATOM      3  C   UNL     1     -10.239  53.390  53.021  0.00  0.00    +0.000 A 
ATOM      4  O   UNL     1      -8.407  55.993  51.482  0.00  0.00    +0.000 OA
ATOM      5  N   UNL     1      -7.588  54.430  52.987  0.00  0.00    +0.000 N 
ATOM      6  C   UNL     1      -9.160  52.683  53.715  0.00  0.00    +0.000 A 
ATOM      7  C   UNL     1      -7.853  53.214  53.713  0.00  0.00    +0.000 A 
ATOM      8  C   UNL     1      -9.446  51.507  54.433  0.00  0.00    +0.000 A 
ATOM      9  C   UNL     1      -6.862  52.534  54.444  0.00  0.00    +0.000 A 
ATOM     10  C   UNL     1      -8.457  50.885  55.174  0.00  0.00    +0.000 A 
ATOM     11  C   UNL     1      -7.169  51.390  55.190  0.00  0.00    +0.000 A 
ATOM     12  F   UNL     1      -8.753  49.797  55.895  0.00  0.00    +0.000 F 
ENDROOT
BRANCH   1  18
ATOM     13  S   UNL     1     -12.371  55.764  49.426  0.00  0.00    +0.000 S 
ATOM     14  O   UNL     1     -13.030  54.515  49.151  0.00  0.00    +0.000 OA
ATOM     15  O   UNL     1     -11.954  56.664  48.374  0.00  0.00    +0.000 OA
ATOM     16  N   UNL     1     -11.041  55.463  50.351  0.00  0.00    +0.000 N 
ATOM     17  C   UNL     1     -13.365  56.661  50.542  0.00  0.00    +0.000 A 
ATOM     18  C   UNL     1     -11.117  55.261  51.725  0.00  0.00    +0.000 C 
ATOM     19  C   UNL     1     -13.086  56.528  51.899  0.00  0.00    +0.000 A 
ATOM     20  C   UNL     1     -14.371  57.503  50.061  0.00  0.00    +0.000 A 
ATOM     21  N   UNL     1     -12.102  55.696  52.446  0.00  0.00    +0.000 N 
ATOM     22  C   UNL     1     -13.833  57.304  52.792  0.00  0.00    +0.000 A 
ATOM     23  C   UNL     1     -15.120  58.241  50.971  0.00  0.00    +0.000 A 
ATOM     24  C   UNL     1     -14.845  58.151  52.334  0.00  0.00    +0.000 A 
ATOM     25  H   UNL     1     -10.160  55.425  49.914  0.00  0.00    +0.000 HD
ATOM     26  H   UNL     1     -12.160  55.437  53.394  0.00  0.00    +0.000 HD
ENDBRANCH   1  18
BRANCH   3  27
ATOM     27  O   UNL     1     -11.498  52.829  53.169  0.00  0.00    +0.000 OA
ATOM     28  H   UNL     1     -12.262  53.364  53.084  0.00  0.00    +0.000 HD
ENDBRANCH   3  27
BRANCH   5  29
ATOM     29  C   UNL     1      -6.206  54.963  52.914  0.00  0.00    +0.000 C 
BRANCH  29  30
ATOM     30  C   UNL     1      -5.224  54.207  52.003  0.00  0.00    +0.000 C 
BRANCH  30  31
ATOM     31  C   UNL     1      -5.347  54.568  50.552  0.00  0.00    +0.000 C 
ATOM     32  C   UNL     1      -6.163  53.782  49.561  0.00  0.00    +0.000 C 
ATOM     33  C   UNL     1      -4.665  53.680  49.542  0.00  0.00    +0.000 C 
ENDBRANCH  30  31
ENDBRANCH  29  30
ENDBRANCH   5  29
TORSDOF 5
ENDMDL
MODEL 2
REMARK VINA RESULT:      -8.3      3.843      5.439
REMARK  Name = 338168
REMARK  5 active torsions:
REMARK  status: ('A' for Active; 'I' for Inactive)
REMARK    1  A    between atoms: C_6  and  C_10
REMARK    2  A    between atoms: C_14  and  O_18
REMARK    3  A    between atoms: N_17  and  C_21
REMARK    4  A    between atoms: C_21  and  C_24
REMARK    5  A    between atoms: C_24  and  C_27
REMARK                            x       y       z     vdW  Elec       q    Type
REMARK                         _______ _______ _______ _____ _____    ______ ____
ROOT
ATOM      1  C   UNL     1     -11.527  55.772  48.962  0.00  0.00    +0.000 A 
ATOM      2  C   UNL     1     -10.475  55.052  49.720  0.00  0.00    +0.000 A 
ATOM      3  C   UNL     1     -11.698  55.544  47.649  0.00  0.00    +0.000 A 
ATOM      4  O   UNL     1     -10.281  55.402  50.884  0.00  0.00    +0.000 OA
ATOM      5  N   UNL     1      -9.798  53.999  49.102  0.00  0.00    +0.000 N 
ATOM      6  C   UNL     1     -10.895  54.527  46.964  0.00  0.00    +0.000 A 
ATOM      7  C   UNL     1      -9.971  53.749  47.693  0.00  0.00    +0.000 A 
ATOM      8  C   UNL     1     -11.094  54.288  45.592  0.00  0.00    +0.000 A 
ATOM      9  C   UNL     1      -9.267  52.743  47.007  0.00  0.00    +0.000 A 
ATOM     10  C   UNL     1     -10.415  53.264  44.957  0.00  0.00    +0.000 A 
ATOM     11  C   UNL     1      -9.506  52.487  45.653  0.00  0.00    +0.000 A 
ATOM     12  F   UNL     1     -10.651  53.013  43.664  0.00  0.00    +0.000 F 
ENDROOT
BRANCH   1  18
ATOM     13  S   UNL     1     -13.516  59.172  49.449  0.00  0.00    +0.000 S 
ATOM     14  O   UNL     1     -14.496  58.990  48.411  0.00  0.00    +0.000 OA
ATOM     15  O   UNL     1     -12.880  60.448  49.693  0.00  0.00    +0.000 OA
ATOM     16  N   UNL     1     -12.310  58.072  49.230  0.00  0.00    +0.000 N 
ATOM     17  C   UNL     1     -14.212  58.620  50.948  0.00  0.00    +0.000 A 
ATOM     18  C   UNL     1     -12.422  56.748  49.642  0.00  0.00    +0.000 C 
ATOM     19  C   UNL     1     -13.965  57.302  51.323  0.00  0.00    +0.000 A 
ATOM     20  C   UNL     1     -14.953  59.499  51.741  0.00  0.00    +0.000 A 
ATOM     21  N   UNL     1     -13.241  56.369  50.572  0.00  0.00    +0.000 N 
ATOM     22  C   UNL     1     -14.459  56.878  52.561  0.00  0.00    +0.000 A 
ATOM     23  C   UNL     1     -15.460  59.045  52.954  0.00  0.00    +0.000 A 
ATOM     24  C   UNL     1     -15.204  57.740  53.370  0.00  0.00    +0.000 A 
ATOM     25  H   UNL     1     -11.478  58.363  48.791  0.00  0.00    +0.000 HD
ATOM     26  H   UNL     1     -13.357  55.408  50.753  0.00  0.00    +0.000 HD
ENDBRANCH   1  18
BRANCH   3  27
ATOM     27  O   UNL     1     -12.640  56.179  46.854  0.00  0.00    +0.000 OA
ATOM     28  H   UNL     1     -13.085  56.939  47.173  0.00  0.00    +0.000 HD
ENDBRANCH   3  27
BRANCH   5  29
ATOM     29  C   UNL     1      -8.780  53.242  49.869  0.00  0.00    +0.000 C 
BRANCH  29  30
ATOM     30  C   UNL     1      -7.532  54.023  50.315  0.00  0.00    +0.000 C 
BRANCH  30  31
ATOM     31  C   UNL     1      -6.903  54.832  49.219  0.00  0.00    +0.000 C 
ATOM     32  C   UNL     1      -6.007  54.249  48.159  0.00  0.00    +0.000 C 
ATOM     33  C   UNL     1      -5.414  55.061  49.275  0.00  0.00    +0.000 C 
ENDBRANCH  30  31
ENDBRANCH  29  30
ENDBRANCH   5  29
TORSDOF 5
ENDMDL
MODEL 3
REMARK VINA RESULT:      -8.3      3.839      7.391
REMARK  Name = 338168
REMARK  5 active torsions:
REMARK  status: ('A' for Active; 'I' for Inactive)
REMARK    1  A    between atoms: C_6  and  C_10
REMARK    2  A    between atoms: C_14  and  O_18
REMARK    3  A    between atoms: N_17  and  C_21
REMARK    4  A    between atoms: C_21  and  C_24
REMARK    5  A    between atoms: C_24  and  C_27
REMARK                            x       y       z     vdW  Elec       q    Type
REMARK                         _______ _______ _______ _____ _____    ______ ____
ROOT
ATOM      1  C   UNL     1     -10.159  55.108  50.846  0.00  0.00    +0.000 A 
ATOM      2  C   UNL     1      -9.806  55.152  49.406  0.00  0.00    +0.000 A 
ATOM      3  C   UNL     1     -11.343  55.579  51.273  0.00  0.00    +0.000 A 
ATOM      4  O   UNL     1      -8.658  54.829  49.098  0.00  0.00    +0.000 OA
ATOM      5  N   UNL     1     -10.788  55.508  48.480  0.00  0.00    +0.000 N 
ATOM      6  C   UNL     1     -12.330  56.078  50.311  0.00  0.00    +0.000 A 
ATOM      7  C   UNL     1     -12.059  56.020  48.928  0.00  0.00    +0.000 A 
ATOM      8  C   UNL     1     -13.571  56.555  50.770  0.00  0.00    +0.000 A 
ATOM      9  C   UNL     1     -13.060  56.452  48.040  0.00  0.00    +0.000 A 
ATOM     10  C   UNL     1     -14.549  56.935  49.868  0.00  0.00    +0.000 A 
ATOM     11  C   UNL     1     -14.306  56.884  48.508  0.00  0.00    +0.000 A 
ATOM     12  F   UNL     1     -15.744  57.339  50.316  0.00  0.00    +0.000 F 
ENDROOT
BRANCH   1  18
ATOM     13  S   UNL     1      -6.883  54.895  53.078  0.00  0.00    +0.000 S 
ATOM     14  O   UNL     1      -7.175  55.979  53.978  0.00  0.00    +0.000 OA
ATOM     15  O   UNL     1      -5.558  54.673  52.542  0.00  0.00    +0.000 OA
ATOM     16  N   UNL     1      -7.908  54.992  51.792  0.00  0.00    +0.000 N 
ATOM     17  C   UNL     1      -7.417  53.415  53.827  0.00  0.00    +0.000 A 
ATOM     18  C   UNL     1      -9.217  54.527  51.843  0.00  0.00    +0.000 C 
ATOM     19  C   UNL     1      -8.698  52.966  53.519  0.00  0.00    +0.000 A 
ATOM     20  C   UNL     1      -6.557  52.709  54.671  0.00  0.00    +0.000 A 
ATOM     21  N   UNL     1      -9.612  53.630  52.692  0.00  0.00    +0.000 N 
ATOM     22  C   UNL     1      -9.102  51.742  54.060  0.00  0.00    +0.000 A 
ATOM     23  C   UNL     1      -6.994  51.508  55.221  0.00  0.00    +0.000 A 
ATOM     24  C   UNL     1      -8.259  51.019  54.908  0.00  0.00    +0.000 A 
ATOM     25  H   UNL     1      -7.580  55.394  50.955  0.00  0.00    +0.000 HD
ATOM     26  H   UNL     1     -10.570  53.413  52.756  0.00  0.00    +0.000 HD
ENDBRANCH   1  18
BRANCH   3  27
ATOM     27  O   UNL     1     -11.754  55.597  52.597  0.00  0.00    +0.000 OA
ATOM     28  H   UNL     1     -12.575  55.984  52.827  0.00  0.00    +0.000 HD
ENDBRANCH   3  27
BRANCH   5  29
ATOM     29  C   UNL     1     -10.457  55.507  47.035  0.00  0.00    +0.000 C 
BRANCH  29  30
ATOM     30  C   UNL     1     -10.309  54.131  46.364  0.00  0.00    +0.000 C 
BRANCH  30  31
ATOM     31  C   UNL     1     -11.294  53.889  45.258  0.00  0.00    +0.000 C 
ATOM     32  C   UNL     1     -12.052  52.601  45.082  0.00  0.00    +0.000 C 
ATOM     33  C   UNL     1     -10.907  52.925  44.166  0.00  0.00    +0.000 C 
ENDBRANCH  30  31
ENDBRANCH  29  30
ENDBRANCH   5  29
TORSDOF 5
ENDMDL
MODEL 4
REMARK VINA RESULT:      -8.2      3.875      5.761
REMARK  Name = 338168
REMARK  5 active torsions:
REMARK  status: ('A' for Active; 'I' for Inactive)
REMARK    1  A    between atoms: C_6  and  C_10
REMARK    2  A    between atoms: C_14  and  O_18
REMARK    3  A    between atoms: N_17  and  C_21
REMARK    4  A    between atoms: C_21  and  C_24
REMARK    5  A    between atoms: C_24  and  C_27
REMARK                            x       y       z     vdW  Elec       q    Type
REMARK                         _______ _______ _______ _____ _____    ______ ____
ROOT
ATOM      1  C   UNL     1     -11.526  55.802  48.935  0.00  0.00    +0.000 A 
ATOM      2  C   UNL     1     -10.455  55.095  49.679  0.00  0.00    +0.000 A 
ATOM      3  C   UNL     1     -11.718  55.565  47.626  0.00  0.00    +0.000 A 
ATOM      4  O   UNL     1     -10.245  55.453  50.838  0.00  0.00    +0.000 OA
ATOM      5  N   UNL     1      -9.780  54.045  49.055  0.00  0.00    +0.000 N 
ATOM      6  C   UNL     1     -10.918  54.552  46.933  0.00  0.00    +0.000 A 
ATOM      7  C   UNL     1      -9.974  53.786  47.651  0.00  0.00    +0.000 A 
ATOM      8  C   UNL     1     -11.139  54.303  45.566  0.00  0.00    +0.000 A 
ATOM      9  C   UNL     1      -9.273  52.783  46.958  0.00  0.00    +0.000 A 
ATOM     10  C   UNL     1     -10.461  53.282  44.925  0.00  0.00    +0.000 A 
ATOM     11  C   UNL     1      -9.534  52.517  45.609  0.00  0.00    +0.000 A 
ATOM     12  F   UNL     1     -10.716  53.022  43.637  0.00  0.00    +0.000 F 
ENDROOT
BRANCH   1  18
ATOM     13  S   UNL     1     -13.509  59.201  49.456  0.00  0.00    +0.000 S 
ATOM     14  O   UNL     1     -14.492  59.029  48.418  0.00  0.00    +0.000 OA
ATOM     15  O   UNL     1     -12.870  60.474  49.709  0.00  0.00    +0.000 OA
ATOM     16  N   UNL     1     -12.305  58.101  49.224  0.00  0.00    +0.000 N 
ATOM     17  C   UNL     1     -14.203  58.637  50.951  0.00  0.00    +0.000 A 
ATOM     18  C   UNL     1     -12.419  56.774  49.625  0.00  0.00    +0.000 C 
ATOM     19  C   UNL     1     -13.957  57.316  51.315  0.00  0.00    +0.000 A 
ATOM     20  C   UNL     1     -14.941  59.511  51.753  0.00  0.00    +0.000 A 
ATOM     21  N   UNL     1     -13.237  56.388  50.553  0.00  0.00    +0.000 N 
ATOM     22  C   UNL     1     -14.449  56.882  52.549  0.00  0.00    +0.000 A 
ATOM     23  C   UNL     1     -15.446  59.047  52.963  0.00  0.00    +0.000 A 
ATOM     24  C   UNL     1     -15.192  57.738  53.367  0.00  0.00    +0.000 A 
ATOM     25  H   UNL     1     -11.474  58.394  48.787  0.00  0.00    +0.000 HD
ATOM     26  H   UNL     1     -13.353  55.425  50.726  0.00  0.00    +0.000 HD
ENDBRANCH   1  18
BRANCH   3  27
ATOM     27  O   UNL     1     -12.679  56.188  46.844  0.00  0.00    +0.000 OA
ATOM     28  H   UNL     1     -13.513  55.782  46.716  0.00  0.00    +0.000 HD
ENDBRANCH   3  27
BRANCH   5  29
ATOM     29  C   UNL     1      -8.742  53.301  49.808  0.00  0.00    +0.000 C 
BRANCH  29  30
ATOM     30  C   UNL     1      -9.235  52.164  50.720  0.00  0.00    +0.000 C 
BRANCH  30  31
ATOM     31  C   UNL     1      -9.068  52.447  52.183  0.00  0.00    +0.000 C 
ATOM     32  C   UNL     1      -9.309  51.428  53.265  0.00  0.00    +0.000 C 
ATOM     33  C   UNL     1     -10.309  52.524  53.035  0.00  0.00    +0.000 C 
ENDBRANCH  30  31
ENDBRANCH  29  30
ENDBRANCH   5  29
TORSDOF 5
ENDMDL
MODEL 5
REMARK VINA RESULT:      -8.1      3.666      7.254
REMARK  Name = 338168
REMARK  5 active torsions:
REMARK  status: ('A' for Active; 'I' for Inactive)
REMARK    1  A    between atoms: C_6  and  C_10
REMARK    2  A    between atoms: C_14  and  O_18
REMARK    3  A    between atoms: N_17  and  C_21
REMARK    4  A    between atoms: C_21  and  C_24
REMARK    5  A    between atoms: C_24  and  C_27
REMARK                            x       y       z     vdW  Elec       q    Type
REMARK                         _______ _______ _______ _____ _____    ______ ____
ROOT
ATOM      1  C   UNL     1     -10.206  55.391  50.523  0.00  0.00    +0.000 A 
ATOM      2  C   UNL     1     -10.347  55.630  49.066  0.00  0.00    +0.000 A 
ATOM      3  C   UNL     1     -11.241  55.606  51.353  0.00  0.00    +0.000 A 
ATOM      4  O   UNL     1      -9.327  55.543  48.381  0.00  0.00    +0.000 OA
ATOM      5  N   UNL     1     -11.614  55.892  48.544  0.00  0.00    +0.000 N 
ATOM      6  C   UNL     1     -12.544  56.011  50.819  0.00  0.00    +0.000 A 
ATOM      7  C   UNL     1     -12.730  56.130  49.425  0.00  0.00    +0.000 A 
ATOM      8  C   UNL     1     -13.623  56.219  51.697  0.00  0.00    +0.000 A 
ATOM      9  C   UNL     1     -14.013  56.460  48.955  0.00  0.00    +0.000 A 
ATOM     10  C   UNL     1     -14.882  56.504  51.199  0.00  0.00    +0.000 A 
ATOM     11  C   UNL     1     -15.088  56.622  49.836  0.00  0.00    +0.000 A 
ATOM     12  F   UNL     1     -15.912  56.649  52.042  0.00  0.00    +0.000 F 
ENDROOT
BRANCH   1  18
ATOM     13  S   UNL     1      -6.733  53.468  50.560  0.00  0.00    +0.000 S 
ATOM     14  O   UNL     1      -6.008  54.333  49.667  0.00  0.00    +0.000 OA
ATOM     15  O   UNL     1      -6.611  52.028  50.507  0.00  0.00    +0.000 OA
ATOM     16  N   UNL     1      -8.338  53.816  50.436  0.00  0.00    +0.000 N 
ATOM     17  C   UNL     1      -6.399  53.979  52.192  0.00  0.00    +0.000 A 
ATOM     18  C   UNL     1      -8.922  54.894  51.093  0.00  0.00    +0.000 C 
ATOM     19  C   UNL     1      -7.287  54.877  52.778  0.00  0.00    +0.000 A 
ATOM     20  C   UNL     1      -5.296  53.461  52.875  0.00  0.00    +0.000 A 
ATOM     21  N   UNL     1      -8.403  55.440  52.147  0.00  0.00    +0.000 N 
ATOM     22  C   UNL     1      -7.064  55.231  54.112  0.00  0.00    +0.000 A 
ATOM     23  C   UNL     1      -5.078  53.853  54.191  0.00  0.00    +0.000 A 
ATOM     24  C   UNL     1      -5.966  54.727  54.814  0.00  0.00    +0.000 A 
ATOM     25  H   UNL     1      -8.906  53.237  49.878  0.00  0.00    +0.000 HD
ATOM     26  H   UNL     1      -8.799  56.265  52.510  0.00  0.00    +0.000 HD
ENDBRANCH   1  18
BRANCH   3  27
ATOM     27  O   UNL     1     -11.200  55.429  52.727  0.00  0.00    +0.000 OA
ATOM     28  H   UNL     1     -11.315  54.575  53.092  0.00  0.00    +0.000 HD
ENDBRANCH   3  27
BRANCH   5  29
ATOM     29  C   UNL     1     -11.771  56.083  47.082  0.00  0.00    +0.000 C 
BRANCH  29  30
ATOM     30  C   UNL     1     -12.084  54.825  46.253  0.00  0.00    +0.000 C 
BRANCH  30  31
ATOM     31  C   UNL     1     -10.877  54.212  45.607  0.00  0.00    +0.000 C 
ATOM     32  C   UNL     1     -10.946  53.112  44.581  0.00  0.00    +0.000 C 
ATOM     33  C   UNL     1     -10.514  52.799  45.985  0.00  0.00    +0.000 C 
ENDBRANCH  30  31
ENDBRANCH  29  30
ENDBRANCH   5  29
TORSDOF 5
ENDMDL
MODEL 6
REMARK VINA RESULT:      -8.0      3.616      5.300
REMARK  Name = 338168
REMARK  5 active torsions:
REMARK  status: ('A' for Active; 'I' for Inactive)
REMARK    1  A    between atoms: C_6  and  C_10
REMARK    2  A    between atoms: C_14  and  O_18
REMARK    3  A    between atoms: N_17  and  C_21
REMARK    4  A    between atoms: C_21  and  C_24
REMARK    5  A    between atoms: C_24  and  C_27
REMARK                            x       y       z     vdW  Elec       q    Type
REMARK                         _______ _______ _______ _____ _____    ______ ____
ROOT
ATOM      1  C   UNL     1     -10.396  55.785  48.934  0.00  0.00    +0.000 A 
ATOM      2  C   UNL     1     -10.307  55.307  47.532  0.00  0.00    +0.000 A 
ATOM      3  C   UNL     1      -9.349  55.656  49.766  0.00  0.00    +0.000 A 
ATOM      4  O   UNL     1     -11.340  55.332  46.863  0.00  0.00    +0.000 OA
ATOM      5  N   UNL     1      -9.068  54.901  47.034  0.00  0.00    +0.000 N 
ATOM      6  C   UNL     1      -8.081  55.106  49.279  0.00  0.00    +0.000 A 
ATOM      7  C   UNL     1      -7.940  54.754  47.919  0.00  0.00    +0.000 A 
ATOM      8  C   UNL     1      -6.988  54.990  50.157  0.00  0.00    +0.000 A 
ATOM      9  C   UNL     1      -6.686  54.289  47.484  0.00  0.00    +0.000 A 
ATOM     10  C   UNL     1      -5.758  54.567  49.687  0.00  0.00    +0.000 A 
ATOM     11  C   UNL     1      -5.596  54.220  48.358  0.00  0.00    +0.000 A 
ATOM     12  F   UNL     1      -4.712  54.509  50.521  0.00  0.00    +0.000 F 
ENDROOT
BRANCH   1  18
ATOM     13  S   UNL     1     -13.834  57.757  48.711  0.00  0.00    +0.000 S 
ATOM     14  O   UNL     1     -14.619  56.733  48.074  0.00  0.00    +0.000 OA
ATOM     15  O   UNL     1     -13.938  59.151  48.341  0.00  0.00    +0.000 OA
ATOM     16  N   UNL     1     -12.243  57.349  48.588  0.00  0.00    +0.000 N 
ATOM     17  C   UNL     1     -14.085  57.634  50.431  0.00  0.00    +0.000 A 
ATOM     18  C   UNL     1     -11.639  56.430  49.440  0.00  0.00    +0.000 C 
ATOM     19  C   UNL     1     -13.179  56.867  51.159  0.00  0.00    +0.000 A 
ATOM     20  C   UNL     1     -15.142  58.320  51.035  0.00  0.00    +0.000 A 
ATOM     21  N   UNL     1     -12.108  56.148  50.615  0.00  0.00    +0.000 N 
ATOM     22  C   UNL     1     -13.334  56.827  52.547  0.00  0.00    +0.000 A 
ATOM     23  C   UNL     1     -15.293  58.239  52.414  0.00  0.00    +0.000 A 
ATOM     24  C   UNL     1     -14.384  57.503  53.172  0.00  0.00    +0.000 A 
ATOM     25  H   UNL     1     -11.698  57.772  47.886  0.00  0.00    +0.000 HD
ATOM     26  H   UNL     1     -11.703  55.415  51.135  0.00  0.00    +0.000 HD
ENDBRANCH   1  18
BRANCH   3  27
ATOM     27  O   UNL     1      -9.343  56.055  51.094  0.00  0.00    +0.000 OA
ATOM     28  H   UNL     1      -8.710  55.700  51.686  0.00  0.00    +0.000 HD
ENDBRANCH   3  27
BRANCH   5  29
ATOM     29  C   UNL     1      -8.960  54.469  45.620  0.00  0.00    +0.000 C 
BRANCH  29  30
ATOM     30  C   UNL     1      -9.344  53.010  45.315  0.00  0.00    +0.000 C 
BRANCH  30  31
ATOM     31  C   UNL     1     -10.573  52.874  44.466  0.00  0.00    +0.000 C 
ATOM     32  C   UNL     1     -11.909  52.426  44.994  0.00  0.00    +0.000 C 
ATOM     33  C   UNL     1     -11.078  51.484  44.171  0.00  0.00    +0.000 C 
ENDBRANCH  30  31
ENDBRANCH  29  30
ENDBRANCH   5  29
TORSDOF 5
ENDMDL
MODEL 7
REMARK VINA RESULT:      -7.9      4.865      7.774
REMARK  Name = 338168
REMARK  5 active torsions:
REMARK  status: ('A' for Active; 'I' for Inactive)
REMARK    1  A    between atoms: C_6  and  C_10
REMARK    2  A    between atoms: C_14  and  O_18
REMARK    3  A    between atoms: N_17  and  C_21
REMARK    4  A    between atoms: C_21  and  C_24
REMARK    5  A    between atoms: C_24  and  C_27
REMARK                            x       y       z     vdW  Elec       q    Type
REMARK                         _______ _______ _______ _____ _____    ______ ____
ROOT
ATOM      1  C   UNL     1     -11.439  54.249  47.912  0.00  0.00    +0.000 A 
ATOM      2  C   UNL     1     -11.501  53.420  49.141  0.00  0.00    +0.000 A 
ATOM      3  C   UNL     1     -12.113  55.408  47.836  0.00  0.00    +0.000 A 
ATOM      4  O   UNL     1     -10.972  52.309  49.098  0.00  0.00    +0.000 OA
ATOM      5  N   UNL     1     -12.108  53.948  50.281  0.00  0.00    +0.000 N 
ATOM      6  C   UNL     1     -12.863  55.904  48.994  0.00  0.00    +0.000 A 
ATOM      7  C   UNL     1     -12.839  55.188  50.209  0.00  0.00    +0.000 A 
ATOM      8  C   UNL     1     -13.553  57.127  48.906  0.00  0.00    +0.000 A 
ATOM      9  C   UNL     1     -13.521  55.734  51.311  0.00  0.00    +0.000 A 
ATOM     10  C   UNL     1     -14.181  57.655  50.020  0.00  0.00    +0.000 A 
ATOM     11  C   UNL     1     -14.167  56.972  51.222  0.00  0.00    +0.000 A 
ATOM     12  F   UNL     1     -14.790  58.844  49.937  0.00  0.00    +0.000 F 
ENDROOT
BRANCH   1  18
ATOM     13  S   UNL     1      -8.221  54.047  45.596  0.00  0.00    +0.000 S 
ATOM     14  O   UNL     1      -7.379  53.282  46.477  0.00  0.00    +0.000 OA
ATOM     15  O   UNL     1      -7.718  55.159  44.820  0.00  0.00    +0.000 OA
ATOM     16  N   UNL     1      -9.507  54.609  46.458  0.00  0.00    +0.000 N 
ATOM     17  C   UNL     1      -9.003  52.937  44.504  0.00  0.00    +0.000 A 
ATOM     18  C   UNL     1     -10.616  53.821  46.747  0.00  0.00    +0.000 C 
ATOM     19  C   UNL     1     -10.265  52.468  44.860  0.00  0.00    +0.000 A 
ATOM     20  C   UNL     1      -8.380  52.578  43.306  0.00  0.00    +0.000 A 
ATOM     21  N   UNL     1     -10.938  52.779  46.047  0.00  0.00    +0.000 N 
ATOM     22  C   UNL     1     -10.926  51.637  43.951  0.00  0.00    +0.000 A 
ATOM     23  C   UNL     1      -9.046  51.725  42.432  0.00  0.00    +0.000 A 
ATOM     24  C   UNL     1     -10.321  51.263  42.748  0.00  0.00    +0.000 A 
ATOM     25  H   UNL     1      -9.490  55.540  46.780  0.00  0.00    +0.000 HD
ATOM     26  H   UNL     1     -11.670  52.196  46.355  0.00  0.00    +0.000 HD
ENDBRANCH   1  18
BRANCH   3  27
ATOM     27  O   UNL     1     -12.130  56.240  46.727  0.00  0.00    +0.000 OA
ATOM     28  H   UNL     1     -12.929  56.651  46.463  0.00  0.00    +0.000 HD
ENDBRANCH   3  27
BRANCH   5  29
ATOM     29  C   UNL     1     -12.131  53.146  51.528  0.00  0.00    +0.000 C 
BRANCH  29  30
ATOM     30  C   UNL     1     -10.875  53.213  52.413  0.00  0.00    +0.000 C 
BRANCH  30  31
ATOM     31  C   UNL     1     -10.425  54.611  52.719  0.00  0.00    +0.000 C 
ATOM     32  C   UNL     1      -9.220  55.258  52.090  0.00  0.00    +0.000 C 
ATOM     33  C   UNL     1      -9.158  54.788  53.516  0.00  0.00    +0.000 C 
ENDBRANCH  30  31
ENDBRANCH  29  30
ENDBRANCH   5  29
TORSDOF 5
ENDMDL
MODEL 8
REMARK VINA RESULT:      -7.9      3.521      7.939
REMARK  Name = 338168
REMARK  5 active torsions:
REMARK  status: ('A' for Active; 'I' for Inactive)
REMARK    1  A    between atoms: C_6  and  C_10
REMARK    2  A    between atoms: C_14  and  O_18
REMARK    3  A    between atoms: N_17  and  C_21
REMARK    4  A    between atoms: C_21  and  C_24
REMARK    5  A    between atoms: C_24  and  C_27
REMARK                            x       y       z     vdW  Elec       q    Type
REMARK                         _______ _______ _______ _____ _____    ______ ____
ROOT
ATOM      1  C   UNL     1     -10.016  54.270  50.757  0.00  0.00    +0.000 A 
ATOM      2  C   UNL     1     -11.112  55.225  51.052  0.00  0.00    +0.000 A 
ATOM      3  C   UNL     1      -9.818  53.824  49.504  0.00  0.00    +0.000 A 
ATOM      4  O   UNL     1     -11.324  55.490  52.235  0.00  0.00    +0.000 OA
ATOM      5  N   UNL     1     -11.809  55.802  49.989  0.00  0.00    +0.000 N 
ATOM      6  C   UNL     1     -10.639  54.331  48.401  0.00  0.00    +0.000 A 
ATOM      7  C   UNL     1     -11.609  55.328  48.643  0.00  0.00    +0.000 A 
ATOM      8  C   UNL     1     -10.412  53.867  47.093  0.00  0.00    +0.000 A 
ATOM      9  C   UNL     1     -12.329  55.829  47.545  0.00  0.00    +0.000 A 
ATOM     10  C   UNL     1     -11.110  54.411  46.029  0.00  0.00    +0.000 A 
ATOM     11  C   UNL     1     -12.064  55.390  46.243  0.00  0.00    +0.000 A 
ATOM     12  F   UNL     1     -10.850  53.997  44.783  0.00  0.00    +0.000 F 
ENDROOT
BRANCH   1  18
ATOM     13  S   UNL     1      -6.760  54.241  53.028  0.00  0.00    +0.000 S 
ATOM     14  O   UNL     1      -7.006  55.457  53.758  0.00  0.00    +0.000 OA
ATOM     15  O   UNL     1      -5.445  53.886  52.543  0.00  0.00    +0.000 OA
ATOM     16  N   UNL     1      -7.775  54.195  51.731  0.00  0.00    +0.000 N 
ATOM     17  C   UNL     1      -7.363  52.912  53.980  0.00  0.00    +0.000 A 
ATOM     18  C   UNL     1      -9.105  53.800  51.837  0.00  0.00    +0.000 C 
ATOM     19  C   UNL     1      -8.662  52.480  53.728  0.00  0.00    +0.000 A 
ATOM     20  C   UNL     1      -6.539  52.299  54.926  0.00  0.00    +0.000 A 
ATOM     21  N   UNL     1      -9.542  53.055  52.804  0.00  0.00    +0.000 N 
ATOM     22  C   UNL     1      -9.123  51.367  54.437  0.00  0.00    +0.000 A 
ATOM     23  C   UNL     1      -7.030  51.213  55.641  0.00  0.00    +0.000 A 
ATOM     24  C   UNL     1      -8.316  50.739  55.390  0.00  0.00    +0.000 A 
ATOM     25  H   UNL     1      -7.427  54.455  50.848  0.00  0.00    +0.000 HD
ATOM     26  H   UNL     1     -10.509  52.892  52.889  0.00  0.00    +0.000 HD
ENDBRANCH   1  18
BRANCH   3  27
ATOM     27  O   UNL     1      -8.834  52.920  49.135  0.00  0.00    +0.000 OA
ATOM     28  H   UNL     1      -8.973  52.002  49.258  0.00  0.00    +0.000 HD
ENDBRANCH   3  27
BRANCH   5  29
ATOM     29  C   UNL     1     -12.873  56.795  50.274  0.00  0.00    +0.000 C 
BRANCH  29  30
ATOM     30  C   UNL     1     -14.262  56.233  50.626  0.00  0.00    +0.000 C 
BRANCH  30  31
ATOM     31  C   UNL     1     -15.183  57.244  51.243  0.00  0.00    +0.000 C 
ATOM     32  C   UNL     1     -14.750  58.246  52.281  0.00  0.00    +0.000 C 
ATOM     33  C   UNL     1     -15.572  57.057  52.688  0.00  0.00    +0.000 C 
ENDBRANCH  30  31
ENDBRANCH  29  30
ENDBRANCH   5  29
TORSDOF 5
ENDMDL
MODEL 9
REMARK VINA RESULT:      -7.9      3.856      7.409
REMARK  Name = 338168
REMARK  5 active torsions:
REMARK  status: ('A' for Active; 'I' for Inactive)
REMARK    1  A    between atoms: C_6  and  C_10
REMARK    2  A    between atoms: C_14  and  O_18
REMARK    3  A    between atoms: N_17  and  C_21
REMARK    4  A    between atoms: C_21  and  C_24
REMARK    5  A    between atoms: C_24  and  C_27
REMARK                            x       y       z     vdW  Elec       q    Type
REMARK                         _______ _______ _______ _____ _____    ______ ____
ROOT
ATOM      1  C   UNL     1     -10.310  55.018  50.678  0.00  0.00    +0.000 A 
ATOM      2  C   UNL     1      -9.928  55.119  49.248  0.00  0.00    +0.000 A 
ATOM      3  C   UNL     1     -11.494  55.491  51.102  0.00  0.00    +0.000 A 
ATOM      4  O   UNL     1      -8.780  54.789  48.948  0.00  0.00    +0.000 OA
ATOM      5  N   UNL     1     -10.885  55.532  48.321  0.00  0.00    +0.000 N 
ATOM      6  C   UNL     1     -12.453  56.049  50.145  0.00  0.00    +0.000 A 
ATOM      7  C   UNL     1     -12.156  56.047  48.765  0.00  0.00    +0.000 A 
ATOM      8  C   UNL     1     -13.695  56.529  50.601  0.00  0.00    +0.000 A 
ATOM      9  C   UNL     1     -13.132  56.535  47.878  0.00  0.00    +0.000 A 
ATOM     10  C   UNL     1     -14.648  56.965  49.698  0.00  0.00    +0.000 A 
ATOM     11  C   UNL     1     -14.380  56.968  48.341  0.00  0.00    +0.000 A 
ATOM     12  F   UNL     1     -15.845  57.370  50.139  0.00  0.00    +0.000 F 
ENDROOT
BRANCH   1  18
ATOM     13  S   UNL     1      -8.842  52.094  52.925  0.00  0.00    +0.000 S 
ATOM     14  O   UNL     1      -8.277  51.289  51.874  0.00  0.00    +0.000 OA
ATOM     15  O   UNL     1      -9.545  51.513  54.048  0.00  0.00    +0.000 OA
ATOM     16  N   UNL     1      -9.858  53.200  52.248  0.00  0.00    +0.000 N 
ATOM     17  C   UNL     1      -7.583  53.124  53.549  0.00  0.00    +0.000 A 
ATOM     18  C   UNL     1      -9.399  54.377  51.666  0.00  0.00    +0.000 C 
ATOM     19  C   UNL     1      -7.470  54.400  53.005  0.00  0.00    +0.000 A 
ATOM     20  C   UNL     1      -6.759  52.673  54.583  0.00  0.00    +0.000 A 
ATOM     21  N   UNL     1      -8.255  54.909  51.963  0.00  0.00    +0.000 N 
ATOM     22  C   UNL     1      -6.510  55.255  53.554  0.00  0.00    +0.000 A 
ATOM     23  C   UNL     1      -5.791  53.532  55.092  0.00  0.00    +0.000 A 
ATOM     24  C   UNL     1      -5.673  54.825  54.587  0.00  0.00    +0.000 A 
ATOM     25  H   UNL     1     -10.826  53.022  52.257  0.00  0.00    +0.000 HD
ATOM     26  H   UNL     1      -7.932  55.683  51.447  0.00  0.00    +0.000 HD
ENDBRANCH   1  18
BRANCH   3  27
ATOM     27  O   UNL     1     -11.931  55.459  52.418  0.00  0.00    +0.000 OA
ATOM     28  H   UNL     1     -11.507  54.899  53.037  0.00  0.00    +0.000 HD
ENDBRANCH   3  27
BRANCH   5  29
ATOM     29  C   UNL     1     -10.526  55.589  46.883  0.00  0.00    +0.000 C 
BRANCH  29  30
ATOM     30  C   UNL     1     -10.387  54.241  46.155  0.00  0.00    +0.000 C 
BRANCH  30  31
ATOM     31  C   UNL     1     -11.699  53.635  45.749  0.00  0.00    +0.000 C 
ATOM     32  C   UNL     1     -12.141  52.253  46.150  0.00  0.00    +0.000 C 
ATOM     33  C   UNL     1     -11.678  52.512  44.744  0.00  0.00    +0.000 C 
ENDBRANCH  30  31
ENDBRANCH  29  30
ENDBRANCH   5  29
TORSDOF 5
ENDMDL
