MODEL 1
REMARK VINA RESULT:      -8.6      0.000      0.000
REMARK  Name = 338168
REMARK  5 active torsions:
REMARK  status: ('A' for Active; 'I' for Inactive)
REMARK    1  A    between atoms: C_6  and  C_10
REMARK    2  A    between atoms: C_14  and  O_18
REMARK    3  A    between atoms: N_17  and  C_21
REMARK    4  A    between atoms: C_21  and  C_24
REMARK    5  A    between atoms: C_24  and  C_27
REMARK                            x       y       z     vdW  Elec       q    Type
REMARK                         _______ _______ _______ _____ _____    ______ ____
ROOT
ATOM      1  C   UNL     1      -9.996  54.554  52.372  0.00  0.00    +0.000 A 
ATOM      2  C   UNL     1      -8.604  55.059  52.261  0.00  0.00    +0.000 A 
ATOM      3  C   UNL     1     -10.250  53.423  53.051  0.00  0.00    +0.000 A 
ATOM      4  O   UNL     1      -8.399  55.995  51.485  0.00  0.00    +0.000 OA
ATOM      5  N   UNL     1      -7.610  54.484  53.056  0.00  0.00    +0.000 N 
ATOM      6  C   UNL     1      -9.169  52.710  53.740  0.00  0.00    +0.000 A 
ATOM      7  C   UNL     1      -7.867  53.253  53.759  0.00  0.00    +0.000 A 
ATOM      8  C   UNL     1      -9.444  51.508  54.419  0.00  0.00    +0.000 A 
ATOM      9  C   UNL     1      -6.872  52.556  54.470  0.00  0.00    +0.000 A 
ATOM     10  C   UNL     1      -8.447  50.861  55.129  0.00  0.00    +0.000 A 
ATOM     11  C   UNL     1      -7.164  51.376  55.163  0.00  0.00    +0.000 A 
ATOM     12  F   UNL     1      -8.729  49.734  55.794  0.00  0.00    +0.000 F 
ENDROOT
BRANCH   1  18
ATOM     13  S   UNL     1     -12.384  55.793  49.430  0.00  0.00    +0.000 S 
ATOM     14  O   UNL     1     -13.063  54.548  49.144  0.00  0.00    +0.000 OA
ATOM     15  O   UNL     1     -11.942  56.684  48.382  0.00  0.00    +0.000 OA
ATOM     16  N   UNL     1     -11.061  55.456  50.359  0.00  0.00    +0.000 N 
ATOM     17  C   UNL     1     -13.371  56.702  50.538  0.00  0.00    +0.000 A 
ATOM     18  C   UNL     1     -11.135  55.284  51.736  0.00  0.00    +0.000 C 
ATOM     19  C   UNL     1     -13.111  56.562  51.896  0.00  0.00    +0.000 A 
ATOM     20  C   UNL     1     -14.364  57.558  50.050  0.00  0.00    +0.000 A 
ATOM     21  N   UNL     1     -12.120  55.735  52.451  0.00  0.00    +0.000 N 
ATOM     22  C   UNL     1     -13.874  57.328  52.785  0.00  0.00    +0.000 A 
ATOM     23  C   UNL     1     -15.119  58.302  50.952  0.00  0.00    +0.000 A 
ATOM     24  C   UNL     1     -14.870  58.192  52.319  0.00  0.00    +0.000 A 
ATOM     25  H   UNL     1     -10.184  55.375  49.920  0.00  0.00    +0.000 HD
ATOM     26  H   UNL     1     -12.173  55.493  53.403  0.00  0.00    +0.000 HD
ENDBRANCH   1  18
BRANCH   3  27
ATOM     27  O   UNL     1     -11.504  52.848  53.187  0.00  0.00    +0.000 OA
ATOM     28  H   UNL     1     -12.008  52.640  52.425  0.00  0.00    +0.000 HD
ENDBRANCH   3  27
BRANCH   5  29
ATOM     29  C   UNL     1      -6.235  55.031  52.993  0.00  0.00    +0.000 C 
BRANCH  29  30
ATOM     30  C   UNL     1      -5.218  54.241  52.147  0.00  0.00    +0.000 C 
BRANCH  30  31
ATOM     31  C   UNL     1      -5.342  54.507  50.672  0.00  0.00    +0.000 C 
ATOM     32  C   UNL     1      -6.137  53.633  49.738  0.00  0.00    +0.000 C 
ATOM     33  C   UNL     1      -4.636  53.579  49.715  0.00  0.00    +0.000 C 
ENDBRANCH  30  31
ENDBRANCH  29  30
ENDBRANCH   5  29
TORSDOF 5
ENDMDL
MODEL 2
REMARK VINA RESULT:      -8.3      3.868      7.429
REMARK  Name = 338168
REMARK  5 active torsions:
REMARK  status: ('A' for Active; 'I' for Inactive)
REMARK    1  A    between atoms: C_6  and  C_10
REMARK    2  A    between atoms: C_14  and  O_18
REMARK    3  A    between atoms: N_17  and  C_21
REMARK    4  A    between atoms: C_21  and  C_24
REMARK    5  A    between atoms: C_24  and  C_27
REMARK                            x       y       z     vdW  Elec       q    Type
REMARK                         _______ _______ _______ _____ _____    ______ ____
ROOT
ATOM      1  C   UNL     1     -10.181  55.101  50.833  0.00  0.00    +0.000 A 
ATOM      2  C   UNL     1      -9.830  55.168  49.392  0.00  0.00    +0.000 A 
ATOM      3  C   UNL     1     -11.373  55.552  51.258  0.00  0.00    +0.000 A 
ATOM      4  O   UNL     1      -8.666  54.909  49.078  0.00  0.00    +0.000 OA
ATOM      5  N   UNL     1     -10.827  55.481  48.466  0.00  0.00    +0.000 N 
ATOM      6  C   UNL     1     -12.361  56.056  50.299  0.00  0.00    +0.000 A 
ATOM      7  C   UNL     1     -12.095  55.997  48.915  0.00  0.00    +0.000 A 
ATOM      8  C   UNL     1     -13.593  56.557  50.761  0.00  0.00    +0.000 A 
ATOM      9  C   UNL     1     -13.091  56.452  48.031  0.00  0.00    +0.000 A 
ATOM     10  C   UNL     1     -14.561  56.974  49.863  0.00  0.00    +0.000 A 
ATOM     11  C   UNL     1     -14.323  56.923  48.502  0.00  0.00    +0.000 A 
ATOM     12  F   UNL     1     -15.739  57.421  50.315  0.00  0.00    +0.000 F 
ENDROOT
BRANCH   1  18
ATOM     13  S   UNL     1      -6.872  54.896  53.048  0.00  0.00    +0.000 S 
ATOM     14  O   UNL     1      -7.138  55.986  53.961  0.00  0.00    +0.000 OA
ATOM     15  O   UNL     1      -5.561  54.670  52.483  0.00  0.00    +0.000 OA
ATOM     16  N   UNL     1      -7.923  55.019  51.780  0.00  0.00    +0.000 N 
ATOM     17  C   UNL     1      -7.401  53.420  53.803  0.00  0.00    +0.000 A 
ATOM     18  C   UNL     1      -9.225  54.536  51.835  0.00  0.00    +0.000 C 
ATOM     19  C   UNL     1      -8.689  52.980  53.525  0.00  0.00    +0.000 A 
ATOM     20  C   UNL     1      -6.529  52.707  54.632  0.00  0.00    +0.000 A 
ATOM     21  N   UNL     1      -9.608  53.637  52.689  0.00  0.00    +0.000 N 
ATOM     22  C   UNL     1      -9.099  51.770  54.095  0.00  0.00    +0.000 A 
ATOM     23  C   UNL     1      -6.960  51.511  55.198  0.00  0.00    +0.000 A 
ATOM     24  C   UNL     1      -8.243  51.038  54.924  0.00  0.00    +0.000 A 
ATOM     25  H   UNL     1      -7.614  55.450  50.951  0.00  0.00    +0.000 HD
ATOM     26  H   UNL     1     -10.564  53.411  52.753  0.00  0.00    +0.000 HD
ENDBRANCH   1  18
BRANCH   3  27
ATOM     27  O   UNL     1     -11.786  55.566  52.581  0.00  0.00    +0.000 OA
ATOM     28  H   UNL     1     -12.426  54.949  52.877  0.00  0.00    +0.000 HD
ENDBRANCH   3  27
BRANCH   5  29
ATOM     29  C   UNL     1     -10.491  55.484  47.023  0.00  0.00    +0.000 C 
BRANCH  29  30
ATOM     30  C   UNL     1     -10.309  54.108  46.356  0.00  0.00    +0.000 C 
BRANCH  30  31
ATOM     31  C   UNL     1     -11.264  53.871  45.219  0.00  0.00    +0.000 C 
ATOM     32  C   UNL     1     -12.033  52.588  45.039  0.00  0.00    +0.000 C 
ATOM     33  C   UNL     1     -10.867  52.892  44.142  0.00  0.00    +0.000 C 
ENDBRANCH  30  31
ENDBRANCH  29  30
ENDBRANCH   5  29
TORSDOF 5
ENDMDL
MODEL 3
REMARK VINA RESULT:      -8.3      3.816      5.391
REMARK  Name = 338168
REMARK  5 active torsions:
REMARK  status: ('A' for Active; 'I' for Inactive)
REMARK    1  A    between atoms: C_6  and  C_10
REMARK    2  A    between atoms: C_14  and  O_18
REMARK    3  A    between atoms: N_17  and  C_21
REMARK    4  A    between atoms: C_21  and  C_24
REMARK    5  A    between atoms: C_24  and  C_27
REMARK                            x       y       z     vdW  Elec       q    Type
REMARK                         _______ _______ _______ _____ _____    ______ ____
ROOT
ATOM      1  C   UNL     1     -11.460  55.816  48.986  0.00  0.00    +0.000 A 
ATOM      2  C   UNL     1     -10.366  55.156  49.743  0.00  0.00    +0.000 A 
ATOM      3  C   UNL     1     -11.632  55.549  47.681  0.00  0.00    +0.000 A 
ATOM      4  O   UNL     1     -10.138  55.564  50.884  0.00  0.00    +0.000 OA
ATOM      5  N   UNL     1      -9.679  54.094  49.151  0.00  0.00    +0.000 N 
ATOM      6  C   UNL     1     -10.785  54.560  47.006  0.00  0.00    +0.000 A 
ATOM      7  C   UNL     1      -9.835  53.825  47.744  0.00  0.00    +0.000 A 
ATOM      8  C   UNL     1     -10.954  54.315  45.631  0.00  0.00    +0.000 A 
ATOM      9  C   UNL     1      -9.074  52.855  47.064  0.00  0.00    +0.000 A 
ATOM     10  C   UNL     1     -10.207  53.337  44.996  0.00  0.00    +0.000 A 
ATOM     11  C   UNL     1      -9.271  52.602  45.701  0.00  0.00    +0.000 A 
ATOM     12  F   UNL     1     -10.399  53.093  43.694  0.00  0.00    +0.000 F 
ENDROOT
BRANCH   1  18
ATOM     13  S   UNL     1     -13.526  59.192  49.464  0.00  0.00    +0.000 S 
ATOM     14  O   UNL     1     -14.518  59.003  48.429  0.00  0.00    +0.000 OA
ATOM     15  O   UNL     1     -12.896  60.471  49.700  0.00  0.00    +0.000 OA
ATOM     16  N   UNL     1     -12.311  58.102  49.216  0.00  0.00    +0.000 N 
ATOM     17  C   UNL     1     -14.202  58.632  50.966  0.00  0.00    +0.000 A 
ATOM     18  C   UNL     1     -12.384  56.784  49.652  0.00  0.00    +0.000 C 
ATOM     19  C   UNL     1     -13.945  57.318  51.338  0.00  0.00    +0.000 A 
ATOM     20  C   UNL     1     -14.947  59.505  51.766  0.00  0.00    +0.000 A 
ATOM     21  N   UNL     1     -13.191  56.397  50.592  0.00  0.00    +0.000 N 
ATOM     22  C   UNL     1     -14.449  56.881  52.568  0.00  0.00    +0.000 A 
ATOM     23  C   UNL     1     -15.449  59.046  52.981  0.00  0.00    +0.000 A 
ATOM     24  C   UNL     1     -15.195  57.737  53.385  0.00  0.00    +0.000 A 
ATOM     25  H   UNL     1     -11.501  58.397  48.741  0.00  0.00    +0.000 HD
ATOM     26  H   UNL     1     -13.277  55.436  50.785  0.00  0.00    +0.000 HD
ENDBRANCH   1  18
BRANCH   3  27
ATOM     27  O   UNL     1     -12.597  56.133  46.876  0.00  0.00    +0.000 OA
ATOM     28  H   UNL     1     -12.867  57.016  47.035  0.00  0.00    +0.000 HD
ENDBRANCH   3  27
BRANCH   5  29
ATOM     29  C   UNL     1      -8.632  53.394  49.932  0.00  0.00    +0.000 C 
BRANCH  29  30
ATOM     30  C   UNL     1      -7.418  54.237  50.365  0.00  0.00    +0.000 C 
BRANCH  30  31
ATOM     31  C   UNL     1      -6.677  54.847  49.207  0.00  0.00    +0.000 C 
ATOM     32  C   UNL     1      -5.749  54.064  48.315  0.00  0.00    +0.000 C 
ATOM     33  C   UNL     1      -5.184  55.023  49.325  0.00  0.00    +0.000 C 
ENDBRANCH  30  31
ENDBRANCH  29  30
ENDBRANCH   5  29
TORSDOF 5
ENDMDL
MODEL 4
REMARK VINA RESULT:      -8.2      3.678      7.284
REMARK  Name = 338168
REMARK  5 active torsions:
REMARK  status: ('A' for Active; 'I' for Inactive)
REMARK    1  A    between atoms: C_6  and  C_10
REMARK    2  A    between atoms: C_14  and  O_18
REMARK    3  A    between atoms: N_17  and  C_21
REMARK    4  A    between atoms: C_21  and  C_24
REMARK    5  A    between atoms: C_24  and  C_27
REMARK                            x       y       z     vdW  Elec       q    Type
REMARK                         _______ _______ _______ _____ _____    ______ ____
ROOT
ATOM      1  C   UNL     1     -10.174  55.444  50.469  0.00  0.00    +0.000 A 
ATOM      2  C   UNL     1     -10.346  55.703  49.017  0.00  0.00    +0.000 A 
ATOM      3  C   UNL     1     -11.208  55.612  51.310  0.00  0.00    +0.000 A 
ATOM      4  O   UNL     1      -9.332  55.707  48.316  0.00  0.00    +0.000 OA
ATOM      5  N   UNL     1     -11.634  55.891  48.511  0.00  0.00    +0.000 N 
ATOM      6  C   UNL     1     -12.529  55.992  50.798  0.00  0.00    +0.000 A 
ATOM      7  C   UNL     1     -12.740  56.106  49.409  0.00  0.00    +0.000 A 
ATOM      8  C   UNL     1     -13.594  56.198  51.695  0.00  0.00    +0.000 A 
ATOM      9  C   UNL     1     -14.035  56.430  48.962  0.00  0.00    +0.000 A 
ATOM     10  C   UNL     1     -14.861  56.492  51.221  0.00  0.00    +0.000 A 
ATOM     11  C   UNL     1     -15.093  56.607  49.862  0.00  0.00    +0.000 A 
ATOM     12  F   UNL     1     -15.872  56.656  52.083  0.00  0.00    +0.000 F 
ENDROOT
BRANCH   1  18
ATOM     13  S   UNL     1      -6.564  53.753  50.456  0.00  0.00    +0.000 S 
ATOM     14  O   UNL     1      -5.858  54.722  49.647  0.00  0.00    +0.000 OA
ATOM     15  O   UNL     1      -6.364  52.330  50.298  0.00  0.00    +0.000 OA
ATOM     16  N   UNL     1      -8.184  54.026  50.291  0.00  0.00    +0.000 N 
ATOM     17  C   UNL     1      -6.306  54.157  52.128  0.00  0.00    +0.000 A 
ATOM     18  C   UNL     1      -8.860  54.995  51.022  0.00  0.00    +0.000 C 
ATOM     19  C   UNL     1      -7.253  54.962  52.750  0.00  0.00    +0.000 A 
ATOM     20  C   UNL     1      -5.193  53.651  52.807  0.00  0.00    +0.000 A 
ATOM     21  N   UNL     1      -8.402  55.487  52.133  0.00  0.00    +0.000 N 
ATOM     22  C   UNL     1      -7.071  55.249  54.107  0.00  0.00    +0.000 A 
ATOM     23  C   UNL     1      -5.024  53.959  54.153  0.00  0.00    +0.000 A 
ATOM     24  C   UNL     1      -5.967  54.753  54.806  0.00  0.00    +0.000 A 
ATOM     25  H   UNL     1      -8.692  53.481  49.648  0.00  0.00    +0.000 HD
ATOM     26  H   UNL     1      -8.869  56.245  52.552  0.00  0.00    +0.000 HD
ENDBRANCH   1  18
BRANCH   3  27
ATOM     27  O   UNL     1     -11.146  55.430  52.683  0.00  0.00    +0.000 OA
ATOM     28  H   UNL     1     -11.780  54.890  53.112  0.00  0.00    +0.000 HD
ENDBRANCH   3  27
BRANCH   5  29
ATOM     29  C   UNL     1     -11.811  56.086  47.053  0.00  0.00    +0.000 C 
BRANCH  29  30
ATOM     30  C   UNL     1     -12.094  54.821  46.220  0.00  0.00    +0.000 C 
BRANCH  30  31
ATOM     31  C   UNL     1     -10.858  54.234  45.595  0.00  0.00    +0.000 C 
ATOM     32  C   UNL     1     -10.894  53.128  44.573  0.00  0.00    +0.000 C 
ATOM     33  C   UNL     1     -10.458  52.832  45.981  0.00  0.00    +0.000 C 
ENDBRANCH  30  31
ENDBRANCH  29  30
ENDBRANCH   5  29
TORSDOF 5
ENDMDL
MODEL 5
REMARK VINA RESULT:      -8.0      3.517      7.964
REMARK  Name = 338168
REMARK  5 active torsions:
REMARK  status: ('A' for Active; 'I' for Inactive)
REMARK    1  A    between atoms: C_6  and  C_10
REMARK    2  A    between atoms: C_14  and  O_18
REMARK    3  A    between atoms: N_17  and  C_21
REMARK    4  A    between atoms: C_21  and  C_24
REMARK    5  A    between atoms: C_24  and  C_27
REMARK                            x       y       z     vdW  Elec       q    Type
REMARK                         _______ _______ _______ _____ _____    ______ ____
ROOT
ATOM      1  C   UNL     1      -9.979  54.421  50.725  0.00  0.00    +0.000 A 
ATOM      2  C   UNL     1     -11.127  55.321  51.001  0.00  0.00    +0.000 A 
ATOM      3  C   UNL     1      -9.748  53.989  49.474  0.00  0.00    +0.000 A 
ATOM      4  O   UNL     1     -11.402  55.546  52.182  0.00  0.00    +0.000 OA
ATOM      5  N   UNL     1     -11.813  55.893  49.927  0.00  0.00    +0.000 N 
ATOM      6  C   UNL     1     -10.586  54.448  48.362  0.00  0.00    +0.000 A 
ATOM      7  C   UNL     1     -11.593  55.409  48.588  0.00  0.00    +0.000 A 
ATOM      8  C   UNL     1     -10.354  53.960  47.063  0.00  0.00    +0.000 A 
ATOM      9  C   UNL     1     -12.344  55.852  47.483  0.00  0.00    +0.000 A 
ATOM     10  C   UNL     1     -11.095  54.435  45.993  0.00  0.00    +0.000 A 
ATOM     11  C   UNL     1     -12.085  55.379  46.191  0.00  0.00    +0.000 A 
ATOM     12  F   UNL     1     -10.844  53.984  44.758  0.00  0.00    +0.000 F 
ENDROOT
BRANCH   1  18
ATOM     13  S   UNL     1      -6.783  54.512  53.107  0.00  0.00    +0.000 S 
ATOM     14  O   UNL     1      -7.117  55.677  53.897  0.00  0.00    +0.000 OA
ATOM     15  O   UNL     1      -5.441  54.267  52.630  0.00  0.00    +0.000 OA
ATOM     16  N   UNL     1      -7.770  54.487  51.784  0.00  0.00    +0.000 N 
ATOM     17  C   UNL     1      -7.319  53.102  53.974  0.00  0.00    +0.000 A 
ATOM     18  C   UNL     1      -9.063  53.980  51.821  0.00  0.00    +0.000 C 
ATOM     19  C   UNL     1      -8.582  52.605  53.678  0.00  0.00    +0.000 A 
ATOM     20  C   UNL     1      -6.475  52.493  54.909  0.00  0.00    +0.000 A 
ATOM     21  N   UNL     1      -9.470  53.156  52.739  0.00  0.00    +0.000 N 
ATOM     22  C   UNL     1      -8.995  51.444  54.341  0.00  0.00    +0.000 A 
ATOM     23  C   UNL     1      -6.910  51.346  55.566  0.00  0.00    +0.000 A 
ATOM     24  C   UNL     1      -8.167  50.817  55.277  0.00  0.00    +0.000 A 
ATOM     25  H   UNL     1      -7.429  54.846  50.933  0.00  0.00    +0.000 HD
ATOM     26  H   UNL     1     -10.423  52.913  52.778  0.00  0.00    +0.000 HD
ENDBRANCH   1  18
BRANCH   3  27
ATOM     27  O   UNL     1      -8.727  53.123  49.114  0.00  0.00    +0.000 OA
ATOM     28  H   UNL     1      -8.080  52.875  49.745  0.00  0.00    +0.000 HD
ENDBRANCH   3  27
BRANCH   5  29
ATOM     29  C   UNL     1     -12.917  56.841  50.205  0.00  0.00    +0.000 C 
BRANCH  29  30
ATOM     30  C   UNL     1     -14.292  56.222  50.517  0.00  0.00    +0.000 C 
BRANCH  30  31
ATOM     31  C   UNL     1     -15.254  57.200  51.135  0.00  0.00    +0.000 C 
ATOM     32  C   UNL     1     -14.839  58.250  52.132  0.00  0.00    +0.000 C 
ATOM     33  C   UNL     1     -15.600  57.039  52.594  0.00  0.00    +0.000 C 
ENDBRANCH  30  31
ENDBRANCH  29  30
ENDBRANCH   5  29
TORSDOF 5
ENDMDL
MODEL 6
REMARK VINA RESULT:      -8.0      3.761      7.372
REMARK  Name = 338168
REMARK  5 active torsions:
REMARK  status: ('A' for Active; 'I' for Inactive)
REMARK    1  A    between atoms: C_6  and  C_10
REMARK    2  A    between atoms: C_14  and  O_18
REMARK    3  A    between atoms: N_17  and  C_21
REMARK    4  A    between atoms: C_21  and  C_24
REMARK    5  A    between atoms: C_24  and  C_27
REMARK                            x       y       z     vdW  Elec       q    Type
REMARK                         _______ _______ _______ _____ _____    ______ ____
ROOT
ATOM      1  C   UNL     1     -10.441  55.100  50.691  0.00  0.00    +0.000 A 
ATOM      2  C   UNL     1     -10.147  55.172  49.238  0.00  0.00    +0.000 A 
ATOM      3  C   UNL     1     -11.568  55.647  51.178  0.00  0.00    +0.000 A 
ATOM      4  O   UNL     1      -9.026  54.817  48.867  0.00  0.00    +0.000 OA
ATOM      5  N   UNL     1     -11.149  55.599  48.364  0.00  0.00    +0.000 N 
ATOM      6  C   UNL     1     -12.545  56.264  50.275  0.00  0.00    +0.000 A 
ATOM      7  C   UNL     1     -12.344  56.216  48.880  0.00  0.00    +0.000 A 
ATOM      8  C   UNL     1     -13.705  56.862  50.802  0.00  0.00    +0.000 A 
ATOM      9  C   UNL     1     -13.330  56.783  48.051  0.00  0.00    +0.000 A 
ATOM     10  C   UNL     1     -14.667  57.389  49.957  0.00  0.00    +0.000 A 
ATOM     11  C   UNL     1     -14.492  57.352  48.586  0.00  0.00    +0.000 A 
ATOM     12  F   UNL     1     -15.779  57.929  50.471  0.00  0.00    +0.000 F 
ENDROOT
BRANCH   1  18
ATOM     13  S   UNL     1      -8.875  52.109  52.811  0.00  0.00    +0.000 S 
ATOM     14  O   UNL     1      -8.292  51.343  51.732  0.00  0.00    +0.000 OA
ATOM     15  O   UNL     1      -9.567  51.481  53.913  0.00  0.00    +0.000 OA
ATOM     16  N   UNL     1      -9.920  53.207  52.156  0.00  0.00    +0.000 N 
ATOM     17  C   UNL     1      -7.639  53.145  53.465  0.00  0.00    +0.000 A 
ATOM     18  C   UNL     1      -9.500  54.425  51.637  0.00  0.00    +0.000 C 
ATOM     19  C   UNL     1      -7.546  54.436  52.960  0.00  0.00    +0.000 A 
ATOM     20  C   UNL     1      -6.802  52.678  54.484  0.00  0.00    +0.000 A 
ATOM     21  N   UNL     1      -8.366  54.973  51.952  0.00  0.00    +0.000 N 
ATOM     22  C   UNL     1      -6.583  55.284  53.517  0.00  0.00    +0.000 A 
ATOM     23  C   UNL     1      -5.842  53.534  55.016  0.00  0.00    +0.000 A 
ATOM     24  C   UNL     1      -5.737  54.839  54.538  0.00  0.00    +0.000 A 
ATOM     25  H   UNL     1     -10.879  52.990  52.133  0.00  0.00    +0.000 HD
ATOM     26  H   UNL     1      -8.073  55.782  51.474  0.00  0.00    +0.000 HD
ENDBRANCH   1  18
BRANCH   3  27
ATOM     27  O   UNL     1     -11.922  55.664  52.518  0.00  0.00    +0.000 OA
ATOM     28  H   UNL     1     -12.502  55.011  52.857  0.00  0.00    +0.000 HD
ENDBRANCH   3  27
BRANCH   5  29
ATOM     29  C   UNL     1     -10.875  55.609  46.908  0.00  0.00    +0.000 C 
BRANCH  29  30
ATOM     30  C   UNL     1     -11.426  54.422  46.096  0.00  0.00    +0.000 C 
BRANCH  30  31
ATOM     31  C   UNL     1     -10.385  53.379  45.791  0.00  0.00    +0.000 C 
ATOM     32  C   UNL     1      -9.083  53.689  45.101  0.00  0.00    +0.000 C 
ATOM     33  C   UNL     1     -10.174  52.977  44.353  0.00  0.00    +0.000 C 
ENDBRANCH  30  31
ENDBRANCH  29  30
ENDBRANCH   5  29
TORSDOF 5
ENDMDL
MODEL 7
REMARK VINA RESULT:      -8.0      4.897      7.785
REMARK  Name = 338168
REMARK  5 active torsions:
REMARK  status: ('A' for Active; 'I' for Inactive)
REMARK    1  A    between atoms: C_6  and  C_10
REMARK    2  A    between atoms: C_14  and  O_18
REMARK    3  A    between atoms: N_17  and  C_21
REMARK    4  A    between atoms: C_21  and  C_24
REMARK    5  A    between atoms: C_24  and  C_27
REMARK                            x       y       z     vdW  Elec       q    Type
REMARK                         _______ _______ _______ _____ _____    ______ ____
ROOT
ATOM      1  C   UNL     1     -11.378  54.275  47.946  0.00  0.00    +0.000 A 
ATOM      2  C   UNL     1     -11.497  53.438  49.167  0.00  0.00    +0.000 A 
ATOM      3  C   UNL     1     -12.024  55.451  47.871  0.00  0.00    +0.000 A 
ATOM      4  O   UNL     1     -11.035  52.295  49.120  0.00  0.00    +0.000 OA
ATOM      5  N   UNL     1     -12.086  53.985  50.309  0.00  0.00    +0.000 N 
ATOM      6  C   UNL     1     -12.800  55.947  49.012  0.00  0.00    +0.000 A 
ATOM      7  C   UNL     1     -12.808  55.229  50.225  0.00  0.00    +0.000 A 
ATOM      8  C   UNL     1     -13.499  57.164  48.906  0.00  0.00    +0.000 A 
ATOM      9  C   UNL     1     -13.532  55.766  51.306  0.00  0.00    +0.000 A 
ATOM     10  C   UNL     1     -14.181  57.677  49.996  0.00  0.00    +0.000 A 
ATOM     11  C   UNL     1     -14.201  56.991  51.197  0.00  0.00    +0.000 A 
ATOM     12  F   UNL     1     -14.817  58.850  49.891  0.00  0.00    +0.000 F 
ENDROOT
BRANCH   1  18
ATOM     13  S   UNL     1      -8.149  54.021  45.622  0.00  0.00    +0.000 S 
ATOM     14  O   UNL     1      -7.302  53.233  46.490  0.00  0.00    +0.000 OA
ATOM     15  O   UNL     1      -7.640  55.139  44.860  0.00  0.00    +0.000 OA
ATOM     16  N   UNL     1      -9.413  54.592  46.517  0.00  0.00    +0.000 N 
ATOM     17  C   UNL     1      -8.954  52.936  44.525  0.00  0.00    +0.000 A 
ATOM     18  C   UNL     1     -10.546  53.833  46.785  0.00  0.00    +0.000 C 
ATOM     19  C   UNL     1     -10.214  52.474  44.886  0.00  0.00    +0.000 A 
ATOM     20  C   UNL     1      -8.344  52.583  43.317  0.00  0.00    +0.000 A 
ATOM     21  N   UNL     1     -10.890  52.804  46.073  0.00  0.00    +0.000 N 
ATOM     22  C   UNL     1     -10.882  51.639  43.983  0.00  0.00    +0.000 A 
ATOM     23  C   UNL     1      -9.021  51.740  42.439  0.00  0.00    +0.000 A 
ATOM     24  C   UNL     1     -10.292  51.274  42.769  0.00  0.00    +0.000 A 
ATOM     25  H   UNL     1      -9.363  55.507  46.875  0.00  0.00    +0.000 HD
ATOM     26  H   UNL     1     -11.640  52.241  46.371  0.00  0.00    +0.000 HD
ENDBRANCH   1  18
BRANCH   3  27
ATOM     27  O   UNL     1     -12.007  56.291  46.769  0.00  0.00    +0.000 OA
ATOM     28  H   UNL     1     -11.202  56.455  46.318  0.00  0.00    +0.000 HD
ENDBRANCH   3  27
BRANCH   5  29
ATOM     29  C   UNL     1     -12.146  53.171  51.545  0.00  0.00    +0.000 C 
BRANCH  29  30
ATOM     30  C   UNL     1     -10.904  53.211  52.456  0.00  0.00    +0.000 C 
BRANCH  30  31
ATOM     31  C   UNL     1     -10.427  54.608  52.745  0.00  0.00    +0.000 C 
ATOM     32  C   UNL     1      -9.219  55.221  52.086  0.00  0.00    +0.000 C 
ATOM     33  C   UNL     1      -9.145  54.780  53.521  0.00  0.00    +0.000 C 
ENDBRANCH  30  31
ENDBRANCH  29  30
ENDBRANCH   5  29
TORSDOF 5
ENDMDL
MODEL 8
REMARK VINA RESULT:      -8.0      4.081      5.626
REMARK  Name = 338168
REMARK  5 active torsions:
REMARK  status: ('A' for Active; 'I' for Inactive)
REMARK    1  A    between atoms: C_6  and  C_10
REMARK    2  A    between atoms: C_14  and  O_18
REMARK    3  A    between atoms: N_17  and  C_21
REMARK    4  A    between atoms: C_21  and  C_24
REMARK    5  A    between atoms: C_24  and  C_27
REMARK                            x       y       z     vdW  Elec       q    Type
REMARK                         _______ _______ _______ _____ _____    ______ ____
ROOT
ATOM      1  C   UNL     1     -10.653  55.364  48.788  0.00  0.00    +0.000 A 
ATOM      2  C   UNL     1     -10.852  54.322  47.749  0.00  0.00    +0.000 A 
ATOM      3  C   UNL     1      -9.419  55.633  49.245  0.00  0.00    +0.000 A 
ATOM      4  O   UNL     1     -12.012  53.989  47.493  0.00  0.00    +0.000 OA
ATOM      5  N   UNL     1      -9.736  53.798  47.094  0.00  0.00    +0.000 N 
ATOM      6  C   UNL     1      -8.252  54.946  48.682  0.00  0.00    +0.000 A 
ATOM      7  C   UNL     1      -8.412  54.055  47.600  0.00  0.00    +0.000 A 
ATOM      8  C   UNL     1      -6.968  55.212  49.194  0.00  0.00    +0.000 A 
ATOM      9  C   UNL     1      -7.259  53.453  47.064  0.00  0.00    +0.000 A 
ATOM     10  C   UNL     1      -5.852  54.621  48.627  0.00  0.00    +0.000 A 
ATOM     11  C   UNL     1      -5.984  53.747  47.565  0.00  0.00    +0.000 A 
ATOM     12  F   UNL     1      -4.634  54.906  49.105  0.00  0.00    +0.000 F 
ENDROOT
BRANCH   1  18
ATOM     13  S   UNL     1     -13.949  57.606  48.725  0.00  0.00    +0.000 S 
ATOM     14  O   UNL     1     -14.883  56.628  48.210  0.00  0.00    +0.000 OA
ATOM     15  O   UNL     1     -13.955  58.981  48.281  0.00  0.00    +0.000 OA
ATOM     16  N   UNL     1     -12.420  57.034  48.482  0.00  0.00    +0.000 N 
ATOM     17  C   UNL     1     -14.060  57.593  50.461  0.00  0.00    +0.000 A 
ATOM     18  C   UNL     1     -11.810  56.131  49.344  0.00  0.00    +0.000 C 
ATOM     19  C   UNL     1     -13.173  56.780  51.157  0.00  0.00    +0.000 A 
ATOM     20  C   UNL     1     -14.996  58.406  51.108  0.00  0.00    +0.000 A 
ATOM     21  N   UNL     1     -12.198  55.956  50.570  0.00  0.00    +0.000 N 
ATOM     22  C   UNL     1     -13.230  56.805  52.555  0.00  0.00    +0.000 A 
ATOM     23  C   UNL     1     -15.044  58.406  52.500  0.00  0.00    +0.000 A 
ATOM     24  C   UNL     1     -14.157  57.611  53.223  0.00  0.00    +0.000 A 
ATOM     25  H   UNL     1     -11.918  57.346  47.694  0.00  0.00    +0.000 HD
ATOM     26  H   UNL     1     -11.801  55.228  51.101  0.00  0.00    +0.000 HD
ENDBRANCH   1  18
BRANCH   3  27
ATOM     27  O   UNL     1      -9.127  56.560  50.233  0.00  0.00    +0.000 OA
ATOM     28  H   UNL     1      -9.405  57.449  50.136  0.00  0.00    +0.000 HD
ENDBRANCH   3  27
BRANCH   5  29
ATOM     29  C   UNL     1      -9.940  52.805  46.013  0.00  0.00    +0.000 C 
BRANCH  29  30
ATOM     30  C   UNL     1     -10.100  53.364  44.587  0.00  0.00    +0.000 C 
BRANCH  30  31
ATOM     31  C   UNL     1      -9.788  52.353  43.517  0.00  0.00    +0.000 C 
ATOM     32  C   UNL     1      -8.434  51.714  43.353  0.00  0.00    +0.000 C 
ATOM     33  C   UNL     1      -8.886  52.768  42.382  0.00  0.00    +0.000 C 
ENDBRANCH  30  31
ENDBRANCH  29  30
ENDBRANCH   5  29
TORSDOF 5
ENDMDL
MODEL 9
REMARK VINA RESULT:      -7.9      3.590      7.551
REMARK  Name = 338168
REMARK  5 active torsions:
REMARK  status: ('A' for Active; 'I' for Inactive)
REMARK    1  A    between atoms: C_6  and  C_10
REMARK    2  A    between atoms: C_14  and  O_18
REMARK    3  A    between atoms: N_17  and  C_21
REMARK    4  A    between atoms: C_21  and  C_24
REMARK    5  A    between atoms: C_24  and  C_27
REMARK                            x       y       z     vdW  Elec       q    Type
REMARK                         _______ _______ _______ _____ _____    ______ ____
ROOT
ATOM      1  C   UNL     1      -9.873  55.417  50.460  0.00  0.00    +0.000 A 
ATOM      2  C   UNL     1     -10.037  55.687  49.009  0.00  0.00    +0.000 A 
ATOM      3  C   UNL     1     -10.918  55.557  51.292  0.00  0.00    +0.000 A 
ATOM      4  O   UNL     1      -9.015  55.719  48.318  0.00  0.00    +0.000 OA
ATOM      5  N   UNL     1     -11.323  55.855  48.492  0.00  0.00    +0.000 N 
ATOM      6  C   UNL     1     -12.241  55.915  50.772  0.00  0.00    +0.000 A 
ATOM      7  C   UNL     1     -12.442  56.039  49.381  0.00  0.00    +0.000 A 
ATOM      8  C   UNL     1     -13.319  56.091  51.660  0.00  0.00    +0.000 A 
ATOM      9  C   UNL     1     -13.738  56.341  48.925  0.00  0.00    +0.000 A 
ATOM     10  C   UNL     1     -14.587  56.364  51.176  0.00  0.00    +0.000 A 
ATOM     11  C   UNL     1     -14.808  56.487  49.817  0.00  0.00    +0.000 A 
ATOM     12  F   UNL     1     -15.610  56.500  52.030  0.00  0.00    +0.000 F 
ENDROOT
BRANCH   1  18
ATOM     13  S   UNL     1      -7.021  54.962  53.208  0.00  0.00    +0.000 S 
ATOM     14  O   UNL     1      -7.665  53.975  54.047  0.00  0.00    +0.000 OA
ATOM     15  O   UNL     1      -6.280  56.073  53.761  0.00  0.00    +0.000 OA
ATOM     16  N   UNL     1      -8.163  55.606  52.203  0.00  0.00    +0.000 N 
ATOM     17  C   UNL     1      -5.991  54.125  52.083  0.00  0.00    +0.000 A 
ATOM     18  C   UNL     1      -8.555  54.990  51.022  0.00  0.00    +0.000 C 
ATOM     19  C   UNL     1      -6.521  53.809  50.838  0.00  0.00    +0.000 A 
ATOM     20  C   UNL     1      -4.673  53.821  52.435  0.00  0.00    +0.000 A 
ATOM     21  N   UNL     1      -7.829  54.102  50.415  0.00  0.00    +0.000 N 
ATOM     22  C   UNL     1      -5.679  53.178  49.916  0.00  0.00    +0.000 A 
ATOM     23  C   UNL     1      -3.855  53.182  51.508  0.00  0.00    +0.000 A 
ATOM     24  C   UNL     1      -4.356  52.866  50.245  0.00  0.00    +0.000 A 
ATOM     25  H   UNL     1      -8.582  56.461  52.451  0.00  0.00    +0.000 HD
ATOM     26  H   UNL     1      -8.202  53.622  49.641  0.00  0.00    +0.000 HD
ENDBRANCH   1  18
BRANCH   3  27
ATOM     27  O   UNL     1     -10.866  55.362  52.664  0.00  0.00    +0.000 OA
ATOM     28  H   UNL     1     -10.084  55.570  53.136  0.00  0.00    +0.000 HD
ENDBRANCH   3  27
BRANCH   5  29
ATOM     29  C   UNL     1     -11.489  56.060  47.034  0.00  0.00    +0.000 C 
BRANCH  29  30
ATOM     30  C   UNL     1     -12.007  54.856  46.225  0.00  0.00    +0.000 C 
BRANCH  30  31
ATOM     31  C   UNL     1     -10.995  53.751  46.096  0.00  0.00    +0.000 C 
ATOM     32  C   UNL     1      -9.681  53.913  45.376  0.00  0.00    +0.000 C 
ATOM     33  C   UNL     1     -10.790  53.122  44.740  0.00  0.00    +0.000 C 
ENDBRANCH  30  31
ENDBRANCH  29  30
ENDBRANCH   5  29
TORSDOF 5
ENDMDL
