MODEL 1
REMARK VINA RESULT:      -8.6      0.000      0.000
REMARK  Name = 338168
REMARK  5 active torsions:
REMARK  status: ('A' for Active; 'I' for Inactive)
REMARK    1  A    between atoms: C_6  and  C_10
REMARK    2  A    between atoms: C_14  and  O_18
REMARK    3  A    between atoms: N_17  and  C_21
REMARK    4  A    between atoms: C_21  and  C_24
REMARK    5  A    between atoms: C_24  and  C_27
REMARK                            x       y       z     vdW  Elec       q    Type
REMARK                         _______ _______ _______ _____ _____    ______ ____
ROOT
ATOM      1  C   UNL     1      -9.984  54.551  52.384  0.00  0.00    +0.000 A 
ATOM      2  C   UNL     1      -8.590  55.054  52.264  0.00  0.00    +0.000 A 
ATOM      3  C   UNL     1     -10.238  53.423  53.069  0.00  0.00    +0.000 A 
ATOM      4  O   UNL     1      -8.390  55.993  51.490  0.00  0.00    +0.000 OA
ATOM      5  N   UNL     1      -7.592  54.472  53.048  0.00  0.00    +0.000 N 
ATOM      6  C   UNL     1      -9.155  52.709  53.753  0.00  0.00    +0.000 A 
ATOM      7  C   UNL     1      -7.851  53.246  53.760  0.00  0.00    +0.000 A 
ATOM      8  C   UNL     1      -9.433  51.514  54.443  0.00  0.00    +0.000 A 
ATOM      9  C   UNL     1      -6.854  52.548  54.469  0.00  0.00    +0.000 A 
ATOM     10  C   UNL     1      -8.435  50.868  55.153  0.00  0.00    +0.000 A 
ATOM     11  C   UNL     1      -7.149  51.376  55.175  0.00  0.00    +0.000 A 
ATOM     12  F   UNL     1      -8.720  49.749  55.832  0.00  0.00    +0.000 F 
ENDROOT
BRANCH   1  18
ATOM     13  S   UNL     1     -12.374  55.806  49.452  0.00  0.00    +0.000 S 
ATOM     14  O   UNL     1     -13.054  54.567  49.156  0.00  0.00    +0.000 OA
ATOM     15  O   UNL     1     -11.931  56.705  48.409  0.00  0.00    +0.000 OA
ATOM     16  N   UNL     1     -11.053  55.463  50.376  0.00  0.00    +0.000 N 
ATOM     17  C   UNL     1     -13.359  56.710  50.565  0.00  0.00    +0.000 A 
ATOM     18  C   UNL     1     -11.126  55.283  51.757  0.00  0.00    +0.000 C 
ATOM     19  C   UNL     1     -13.099  56.562  51.923  0.00  0.00    +0.000 A 
ATOM     20  C   UNL     1     -14.352  57.571  50.083  0.00  0.00    +0.000 A 
ATOM     21  N   UNL     1     -12.113  55.726  52.472  0.00  0.00    +0.000 N 
ATOM     22  C   UNL     1     -13.856  57.324  52.817  0.00  0.00    +0.000 A 
ATOM     23  C   UNL     1     -15.105  58.310  50.990  0.00  0.00    +0.000 A 
ATOM     24  C   UNL     1     -14.852  58.195  52.357  0.00  0.00    +0.000 A 
ATOM     25  H   UNL     1     -10.176  55.383  49.935  0.00  0.00    +0.000 HD
ATOM     26  H   UNL     1     -12.171  55.472  53.421  0.00  0.00    +0.000 HD
ENDBRANCH   1  18
BRANCH   3  27
ATOM     27  O   UNL     1     -11.495  52.857  53.217  0.00  0.00    +0.000 OA
ATOM     28  H   UNL     1     -12.224  53.204  52.741  0.00  0.00    +0.000 HD
ENDBRANCH   3  27
BRANCH   5  29
ATOM     29  C   UNL     1      -6.214  55.011  52.973  0.00  0.00    +0.000 C 
BRANCH  29  30
ATOM     30  C   UNL     1      -5.218  54.229  52.096  0.00  0.00    +0.000 C 
BRANCH  30  31
ATOM     31  C   UNL     1      -5.337  54.551  50.633  0.00  0.00    +0.000 C 
ATOM     32  C   UNL     1      -6.164  53.738  49.670  0.00  0.00    +0.000 C 
ATOM     33  C   UNL     1      -4.665  53.632  49.642  0.00  0.00    +0.000 C 
ENDBRANCH  30  31
ENDBRANCH  29  30
ENDBRANCH   5  29
TORSDOF 5
ENDMDL
MODEL 2
REMARK VINA RESULT:      -8.3      3.869      7.420
REMARK  Name = 338168
REMARK  5 active torsions:
REMARK  status: ('A' for Active; 'I' for Inactive)
REMARK    1  A    between atoms: C_6  and  C_10
REMARK    2  A    between atoms: C_14  and  O_18
REMARK    3  A    between atoms: N_17  and  C_21
REMARK    4  A    between atoms: C_21  and  C_24
REMARK    5  A    between atoms: C_24  and  C_27
REMARK                            x       y       z     vdW  Elec       q    Type
REMARK                         _______ _______ _______ _____ _____    ______ ____
ROOT
ATOM      1  C   UNL     1     -10.188  55.097  50.830  0.00  0.00    +0.000 A 
ATOM      2  C   UNL     1      -9.833  55.158  49.387  0.00  0.00    +0.000 A 
ATOM      3  C   UNL     1     -11.381  55.551  51.251  0.00  0.00    +0.000 A 
ATOM      4  O   UNL     1      -8.671  54.887  49.077  0.00  0.00    +0.000 OA
ATOM      5  N   UNL     1     -10.826  55.480  48.460  0.00  0.00    +0.000 N 
ATOM      6  C   UNL     1     -12.366  56.057  50.289  0.00  0.00    +0.000 A 
ATOM      7  C   UNL     1     -12.096  55.997  48.906  0.00  0.00    +0.000 A 
ATOM      8  C   UNL     1     -13.599  56.555  50.749  0.00  0.00    +0.000 A 
ATOM      9  C   UNL     1     -13.091  56.451  48.019  0.00  0.00    +0.000 A 
ATOM     10  C   UNL     1     -14.566  56.967  49.848  0.00  0.00    +0.000 A 
ATOM     11  C   UNL     1     -14.325  56.917  48.488  0.00  0.00    +0.000 A 
ATOM     12  F   UNL     1     -15.748  57.409  50.298  0.00  0.00    +0.000 F 
ENDROOT
BRANCH   1  18
ATOM     13  S   UNL     1      -6.885  54.886  53.049  0.00  0.00    +0.000 S 
ATOM     14  O   UNL     1      -7.145  55.974  53.962  0.00  0.00    +0.000 OA
ATOM     15  O   UNL     1      -5.573  54.657  52.484  0.00  0.00    +0.000 OA
ATOM     16  N   UNL     1      -7.932  55.012  51.783  0.00  0.00    +0.000 N 
ATOM     17  C   UNL     1      -7.416  53.411  53.802  0.00  0.00    +0.000 A 
ATOM     18  C   UNL     1      -9.240  54.531  51.835  0.00  0.00    +0.000 C 
ATOM     19  C   UNL     1      -8.707  52.973  53.523  0.00  0.00    +0.000 A 
ATOM     20  C   UNL     1      -6.547  52.694  54.631  0.00  0.00    +0.000 A 
ATOM     21  N   UNL     1      -9.625  53.637  52.693  0.00  0.00    +0.000 N 
ATOM     22  C   UNL     1      -9.120  51.764  54.087  0.00  0.00    +0.000 A 
ATOM     23  C   UNL     1      -6.981  51.499  55.196  0.00  0.00    +0.000 A 
ATOM     24  C   UNL     1      -8.264  51.027  54.917  0.00  0.00    +0.000 A 
ATOM     25  H   UNL     1      -7.621  55.445  50.954  0.00  0.00    +0.000 HD
ATOM     26  H   UNL     1     -10.582  53.419  52.762  0.00  0.00    +0.000 HD
ENDBRANCH   1  18
BRANCH   3  27
ATOM     27  O   UNL     1     -11.797  55.565  52.573  0.00  0.00    +0.000 OA
ATOM     28  H   UNL     1     -11.352  55.041  53.209  0.00  0.00    +0.000 HD
ENDBRANCH   3  27
BRANCH   5  29
ATOM     29  C   UNL     1     -10.488  55.483  47.017  0.00  0.00    +0.000 C 
BRANCH  29  30
ATOM     30  C   UNL     1     -10.309  54.106  46.351  0.00  0.00    +0.000 C 
BRANCH  30  31
ATOM     31  C   UNL     1     -11.273  53.863  45.224  0.00  0.00    +0.000 C 
ATOM     32  C   UNL     1     -12.036  52.576  45.049  0.00  0.00    +0.000 C 
ATOM     33  C   UNL     1     -10.878  52.885  44.145  0.00  0.00    +0.000 C 
ENDBRANCH  30  31
ENDBRANCH  29  30
ENDBRANCH   5  29
TORSDOF 5
ENDMDL
MODEL 3
REMARK VINA RESULT:      -8.2      3.847      5.432
REMARK  Name = 338168
REMARK  5 active torsions:
REMARK  status: ('A' for Active; 'I' for Inactive)
REMARK    1  A    between atoms: C_6  and  C_10
REMARK    2  A    between atoms: C_14  and  O_18
REMARK    3  A    between atoms: N_17  and  C_21
REMARK    4  A    between atoms: C_21  and  C_24
REMARK    5  A    between atoms: C_24  and  C_27
REMARK                            x       y       z     vdW  Elec       q    Type
REMARK                         _______ _______ _______ _____ _____    ______ ____
ROOT
ATOM      1  C   UNL     1     -11.544  55.714  48.971  0.00  0.00    +0.000 A 
ATOM      2  C   UNL     1     -10.499  54.988  49.742  0.00  0.00    +0.000 A 
ATOM      3  C   UNL     1     -11.695  55.482  47.656  0.00  0.00    +0.000 A 
ATOM      4  O   UNL     1     -10.291  55.356  50.900  0.00  0.00    +0.000 OA
ATOM      5  N   UNL     1      -9.838  53.916  49.140  0.00  0.00    +0.000 N 
ATOM      6  C   UNL     1     -10.874  54.472  46.979  0.00  0.00    +0.000 A 
ATOM      7  C   UNL     1      -9.973  53.682  47.724  0.00  0.00    +0.000 A 
ATOM      8  C   UNL     1     -11.025  54.261  45.596  0.00  0.00    +0.000 A 
ATOM      9  C   UNL     1      -9.241  52.694  47.038  0.00  0.00    +0.000 A 
ATOM     10  C   UNL     1     -10.309  53.262  44.959  0.00  0.00    +0.000 A 
ATOM     11  C   UNL     1      -9.421  52.475  45.667  0.00  0.00    +0.000 A 
ATOM     12  F   UNL     1     -10.487  53.050  43.648  0.00  0.00    +0.000 F 
ENDROOT
BRANCH   1  18
ATOM     13  S   UNL     1     -13.513  59.146  49.441  0.00  0.00    +0.000 S 
ATOM     14  O   UNL     1     -14.506  58.992  48.405  0.00  0.00    +0.000 OA
ATOM     15  O   UNL     1     -12.845  60.407  49.681  0.00  0.00    +0.000 OA
ATOM     16  N   UNL     1     -12.331  58.023  49.197  0.00  0.00    +0.000 N 
ATOM     17  C   UNL     1     -14.208  58.607  50.941  0.00  0.00    +0.000 A 
ATOM     18  C   UNL     1     -12.445  56.703  49.634  0.00  0.00    +0.000 C 
ATOM     19  C   UNL     1     -13.993  57.285  51.314  0.00  0.00    +0.000 A 
ATOM     20  C   UNL     1     -14.930  59.501  51.741  0.00  0.00    +0.000 A 
ATOM     21  N   UNL     1     -13.270  56.341  50.566  0.00  0.00    +0.000 N 
ATOM     22  C   UNL     1     -14.509  56.862  52.541  0.00  0.00    +0.000 A 
ATOM     23  C   UNL     1     -15.449  59.057  52.954  0.00  0.00    +0.000 A 
ATOM     24  C   UNL     1     -15.231  57.741  53.360  0.00  0.00    +0.000 A 
ATOM     25  H   UNL     1     -11.512  58.295  48.724  0.00  0.00    +0.000 HD
ATOM     26  H   UNL     1     -13.392  55.382  50.754  0.00  0.00    +0.000 HD
ENDBRANCH   1  18
BRANCH   3  27
ATOM     27  O   UNL     1     -12.617  56.123  46.843  0.00  0.00    +0.000 OA
ATOM     28  H   UNL     1     -13.407  56.466  47.212  0.00  0.00    +0.000 HD
ENDBRANCH   3  27
BRANCH   5  29
ATOM     29  C   UNL     1      -8.839  53.155  49.926  0.00  0.00    +0.000 C 
BRANCH  29  30
ATOM     30  C   UNL     1      -7.567  53.917  50.343  0.00  0.00    +0.000 C 
BRANCH  30  31
ATOM     31  C   UNL     1      -6.978  54.740  49.232  0.00  0.00    +0.000 C 
ATOM     32  C   UNL     1      -5.984  54.199  48.237  0.00  0.00    +0.000 C 
ATOM     33  C   UNL     1      -5.523  55.128  49.324  0.00  0.00    +0.000 C 
ENDBRANCH  30  31
ENDBRANCH  29  30
ENDBRANCH   5  29
TORSDOF 5
ENDMDL
MODEL 4
REMARK VINA RESULT:      -8.2      3.679      7.277
REMARK  Name = 338168
REMARK  5 active torsions:
REMARK  status: ('A' for Active; 'I' for Inactive)
REMARK    1  A    between atoms: C_6  and  C_10
REMARK    2  A    between atoms: C_14  and  O_18
REMARK    3  A    between atoms: N_17  and  C_21
REMARK    4  A    between atoms: C_21  and  C_24
REMARK    5  A    between atoms: C_24  and  C_27
REMARK                            x       y       z     vdW  Elec       q    Type
REMARK                         _______ _______ _______ _____ _____    ______ ____
ROOT
ATOM      1  C   UNL     1     -10.169  55.443  50.474  0.00  0.00    +0.000 A 
ATOM      2  C   UNL     1     -10.339  55.693  49.018  0.00  0.00    +0.000 A 
ATOM      3  C   UNL     1     -11.204  55.615  51.314  0.00  0.00    +0.000 A 
ATOM      4  O   UNL     1      -9.324  55.683  48.318  0.00  0.00    +0.000 OA
ATOM      5  N   UNL     1     -11.625  55.889  48.512  0.00  0.00    +0.000 N 
ATOM      6  C   UNL     1     -12.524  55.995  50.800  0.00  0.00    +0.000 A 
ATOM      7  C   UNL     1     -12.733  56.105  49.409  0.00  0.00    +0.000 A 
ATOM      8  C   UNL     1     -13.591  56.199  51.694  0.00  0.00    +0.000 A 
ATOM      9  C   UNL     1     -14.029  56.426  48.960  0.00  0.00    +0.000 A 
ATOM     10  C   UNL     1     -14.858  56.486  51.218  0.00  0.00    +0.000 A 
ATOM     11  C   UNL     1     -15.088  56.599  49.860  0.00  0.00    +0.000 A 
ATOM     12  F   UNL     1     -15.871  56.646  52.080  0.00  0.00    +0.000 F 
ENDROOT
BRANCH   1  18
ATOM     13  S   UNL     1      -6.569  53.734  50.470  0.00  0.00    +0.000 S 
ATOM     14  O   UNL     1      -5.854  54.695  49.663  0.00  0.00    +0.000 OA
ATOM     15  O   UNL     1      -6.377  52.309  50.315  0.00  0.00    +0.000 OA
ATOM     16  N   UNL     1      -8.184  54.017  50.301  0.00  0.00    +0.000 N 
ATOM     17  C   UNL     1      -6.313  54.137  52.142  0.00  0.00    +0.000 A 
ATOM     18  C   UNL     1      -8.859  54.993  51.032  0.00  0.00    +0.000 C 
ATOM     19  C   UNL     1      -7.257  54.949  52.762  0.00  0.00    +0.000 A 
ATOM     20  C   UNL     1      -5.204  53.625  52.826  0.00  0.00    +0.000 A 
ATOM     21  N   UNL     1      -8.396  55.486  52.139  0.00  0.00    +0.000 N 
ATOM     22  C   UNL     1      -7.080  55.235  54.118  0.00  0.00    +0.000 A 
ATOM     23  C   UNL     1      -5.037  53.933  54.172  0.00  0.00    +0.000 A 
ATOM     24  C   UNL     1      -5.979  54.730  54.823  0.00  0.00    +0.000 A 
ATOM     25  H   UNL     1      -8.693  53.473  49.657  0.00  0.00    +0.000 HD
ATOM     26  H   UNL     1      -8.855  56.252  52.554  0.00  0.00    +0.000 HD
ENDBRANCH   1  18
BRANCH   3  27
ATOM     27  O   UNL     1     -11.143  55.436  52.687  0.00  0.00    +0.000 OA
ATOM     28  H   UNL     1     -10.494  55.887  53.190  0.00  0.00    +0.000 HD
ENDBRANCH   3  27
BRANCH   5  29
ATOM     29  C   UNL     1     -11.803  56.079  47.054  0.00  0.00    +0.000 C 
BRANCH  29  30
ATOM     30  C   UNL     1     -12.090  54.813  46.225  0.00  0.00    +0.000 C 
BRANCH  30  31
ATOM     31  C   UNL     1     -10.860  54.227  45.592  0.00  0.00    +0.000 C 
ATOM     32  C   UNL     1     -10.899  53.112  44.578  0.00  0.00    +0.000 C 
ATOM     33  C   UNL     1     -10.450  52.829  45.984  0.00  0.00    +0.000 C 
ENDBRANCH  30  31
ENDBRANCH  29  30
ENDBRANCH   5  29
TORSDOF 5
ENDMDL
MODEL 5
REMARK VINA RESULT:      -8.0      3.515      7.962
REMARK  Name = 338168
REMARK  5 active torsions:
REMARK  status: ('A' for Active; 'I' for Inactive)
REMARK    1  A    between atoms: C_6  and  C_10
REMARK    2  A    between atoms: C_14  and  O_18
REMARK    3  A    between atoms: N_17  and  C_21
REMARK    4  A    between atoms: C_21  and  C_24
REMARK    5  A    between atoms: C_24  and  C_27
REMARK                            x       y       z     vdW  Elec       q    Type
REMARK                         _______ _______ _______ _____ _____    ______ ____
ROOT
ATOM      1  C   UNL     1      -9.962  54.471  50.734  0.00  0.00    +0.000 A 
ATOM      2  C   UNL     1     -11.112  55.371  51.017  0.00  0.00    +0.000 A 
ATOM      3  C   UNL     1      -9.738  54.035  49.483  0.00  0.00    +0.000 A 
ATOM      4  O   UNL     1     -11.372  55.605  52.199  0.00  0.00    +0.000 OA
ATOM      5  N   UNL     1     -11.812  55.929  49.946  0.00  0.00    +0.000 N 
ATOM      6  C   UNL     1     -10.587  54.486  48.375  0.00  0.00    +0.000 A 
ATOM      7  C   UNL     1     -11.598  55.444  48.606  0.00  0.00    +0.000 A 
ATOM      8  C   UNL     1     -10.357  53.999  47.075  0.00  0.00    +0.000 A 
ATOM      9  C   UNL     1     -12.356  55.881  47.503  0.00  0.00    +0.000 A 
ATOM     10  C   UNL     1     -11.102  54.471  46.009  0.00  0.00    +0.000 A 
ATOM     11  C   UNL     1     -12.098  55.410  46.210  0.00  0.00    +0.000 A 
ATOM     12  F   UNL     1     -10.851  54.023  44.772  0.00  0.00    +0.000 F 
ENDROOT
BRANCH   1  18
ATOM     13  S   UNL     1      -6.744  54.595  53.080  0.00  0.00    +0.000 S 
ATOM     14  O   UNL     1      -7.076  55.753  53.875  0.00  0.00    +0.000 OA
ATOM     15  O   UNL     1      -5.403  54.363  52.586  0.00  0.00    +0.000 OA
ATOM     16  N   UNL     1      -7.744  54.561  51.771  0.00  0.00    +0.000 N 
ATOM     17  C   UNL     1      -7.253  53.178  53.951  0.00  0.00    +0.000 A 
ATOM     18  C   UNL     1      -9.035  54.038  51.822  0.00  0.00    +0.000 C 
ATOM     19  C   UNL     1      -8.516  52.667  53.669  0.00  0.00    +0.000 A 
ATOM     20  C   UNL     1      -6.393  52.575  54.876  0.00  0.00    +0.000 A 
ATOM     21  N   UNL     1      -9.423  53.215  52.747  0.00  0.00    +0.000 N 
ATOM     22  C   UNL     1      -8.909  51.502  54.331  0.00  0.00    +0.000 A 
ATOM     23  C   UNL     1      -6.808  51.423  55.535  0.00  0.00    +0.000 A 
ATOM     24  C   UNL     1      -8.062  50.879  55.258  0.00  0.00    +0.000 A 
ATOM     25  H   UNL     1      -7.415  54.925  50.916  0.00  0.00    +0.000 HD
ATOM     26  H   UNL     1     -10.374  52.968  52.802  0.00  0.00    +0.000 HD
ENDBRANCH   1  18
BRANCH   3  27
ATOM     27  O   UNL     1      -8.714  53.175  49.120  0.00  0.00    +0.000 OA
ATOM     28  H   UNL     1      -8.466  52.474  49.690  0.00  0.00    +0.000 HD
ENDBRANCH   3  27
BRANCH   5  29
ATOM     29  C   UNL     1     -12.920  56.872  50.225  0.00  0.00    +0.000 C 
BRANCH  29  30
ATOM     30  C   UNL     1     -14.292  56.246  50.539  0.00  0.00    +0.000 C 
BRANCH  30  31
ATOM     31  C   UNL     1     -15.250  57.209  51.184  0.00  0.00    +0.000 C 
ATOM     32  C   UNL     1     -14.824  58.268  52.167  0.00  0.00    +0.000 C 
ATOM     33  C   UNL     1     -15.548  57.045  52.653  0.00  0.00    +0.000 C 
ENDBRANCH  30  31
ENDBRANCH  29  30
ENDBRANCH   5  29
TORSDOF 5
ENDMDL
MODEL 6
REMARK VINA RESULT:      -8.0      3.283      4.402
REMARK  Name = 338168
REMARK  5 active torsions:
REMARK  status: ('A' for Active; 'I' for Inactive)
REMARK    1  A    between atoms: C_6  and  C_10
REMARK    2  A    between atoms: C_14  and  O_18
REMARK    3  A    between atoms: N_17  and  C_21
REMARK    4  A    between atoms: C_21  and  C_24
REMARK    5  A    between atoms: C_24  and  C_27
REMARK                            x       y       z     vdW  Elec       q    Type
REMARK                         _______ _______ _______ _____ _____    ______ ____
ROOT
ATOM      1  C   UNL     1     -12.197  54.413  50.199  0.00  0.00    +0.000 A 
ATOM      2  C   UNL     1     -12.065  53.919  48.802  0.00  0.00    +0.000 A 
ATOM      3  C   UNL     1     -11.643  53.726  51.212  0.00  0.00    +0.000 A 
ATOM      4  O   UNL     1     -12.728  54.489  47.933  0.00  0.00    +0.000 OA
ATOM      5  N   UNL     1     -11.182  52.870  48.537  0.00  0.00    +0.000 N 
ATOM      6  C   UNL     1     -10.856  52.517  50.949  0.00  0.00    +0.000 A 
ATOM      7  C   UNL     1     -10.610  52.111  49.620  0.00  0.00    +0.000 A 
ATOM      8  C   UNL     1     -10.307  51.793  52.024  0.00  0.00    +0.000 A 
ATOM      9  C   UNL     1      -9.810  50.970  49.417  0.00  0.00    +0.000 A 
ATOM     10  C   UNL     1      -9.501  50.692  51.787  0.00  0.00    +0.000 A 
ATOM     11  C   UNL     1      -9.245  50.276  50.494  0.00  0.00    +0.000 A 
ATOM     12  F   UNL     1      -8.958  50.032  52.818  0.00  0.00    +0.000 F 
ENDROOT
BRANCH   1  18
ATOM     13  S   UNL     1     -14.435  56.932  52.324  0.00  0.00    +0.000 S 
ATOM     14  O   UNL     1     -13.483  57.285  53.350  0.00  0.00    +0.000 OA
ATOM     15  O   UNL     1     -15.828  56.682  52.625  0.00  0.00    +0.000 OA
ATOM     16  N   UNL     1     -13.874  55.600  51.533  0.00  0.00    +0.000 N 
ATOM     17  C   UNL     1     -14.359  58.142  51.077  0.00  0.00    +0.000 A 
ATOM     18  C   UNL     1     -12.936  55.674  50.505  0.00  0.00    +0.000 C 
ATOM     19  C   UNL     1     -13.519  57.901  49.995  0.00  0.00    +0.000 A 
ATOM     20  C   UNL     1     -15.147  59.296  51.169  0.00  0.00    +0.000 A 
ATOM     21  N   UNL     1     -12.712  56.762  49.836  0.00  0.00    +0.000 N 
ATOM     22  C   UNL     1     -13.492  58.848  48.969  0.00  0.00    +0.000 A 
ATOM     23  C   UNL     1     -15.095  60.234  50.143  0.00  0.00    +0.000 A 
ATOM     24  C   UNL     1     -14.275  60.008  49.038  0.00  0.00    +0.000 A 
ATOM     25  H   UNL     1     -14.216  54.715  51.798  0.00  0.00    +0.000 HD
ATOM     26  H   UNL     1     -11.961  56.790  49.200  0.00  0.00    +0.000 HD
ENDBRANCH   1  18
BRANCH   3  27
ATOM     27  O   UNL     1     -11.732  54.085  52.548  0.00  0.00    +0.000 OA
ATOM     28  H   UNL     1     -11.623  53.436  53.216  0.00  0.00    +0.000 HD
ENDBRANCH   3  27
BRANCH   5  29
ATOM     29  C   UNL     1     -11.005  52.416  47.138  0.00  0.00    +0.000 C 
BRANCH  29  30
ATOM     30  C   UNL     1     -10.229  53.362  46.202  0.00  0.00    +0.000 C 
BRANCH  30  31
ATOM     31  C   UNL     1      -8.984  53.925  46.827  0.00  0.00    +0.000 C 
ATOM     32  C   UNL     1      -8.867  55.351  47.302  0.00  0.00    +0.000 C 
ATOM     33  C   UNL     1      -8.177  54.925  46.037  0.00  0.00    +0.000 C 
ENDBRANCH  30  31
ENDBRANCH  29  30
ENDBRANCH   5  29
TORSDOF 5
ENDMDL
MODEL 7
REMARK VINA RESULT:      -8.0      3.602      7.542
REMARK  Name = 338168
REMARK  5 active torsions:
REMARK  status: ('A' for Active; 'I' for Inactive)
REMARK    1  A    between atoms: C_6  and  C_10
REMARK    2  A    between atoms: C_14  and  O_18
REMARK    3  A    between atoms: N_17  and  C_21
REMARK    4  A    between atoms: C_21  and  C_24
REMARK    5  A    between atoms: C_24  and  C_27
REMARK                            x       y       z     vdW  Elec       q    Type
REMARK                         _______ _______ _______ _____ _____    ______ ____
ROOT
ATOM      1  C   UNL     1     -10.006  55.451  50.440  0.00  0.00    +0.000 A 
ATOM      2  C   UNL     1     -10.206  55.706  48.989  0.00  0.00    +0.000 A 
ATOM      3  C   UNL     1     -11.029  55.601  51.299  0.00  0.00    +0.000 A 
ATOM      4  O   UNL     1      -9.203  55.718  48.271  0.00  0.00    +0.000 OA
ATOM      5  N   UNL     1     -11.504  55.882  48.507  0.00  0.00    +0.000 N 
ATOM      6  C   UNL     1     -12.364  55.960  50.810  0.00  0.00    +0.000 A 
ATOM      7  C   UNL     1     -12.599  56.075  49.423  0.00  0.00    +0.000 A 
ATOM      8  C   UNL     1     -13.418  56.141  51.724  0.00  0.00    +0.000 A 
ATOM      9  C   UNL     1     -13.908  56.375  48.999  0.00  0.00    +0.000 A 
ATOM     10  C   UNL     1     -14.699  56.409  51.272  0.00  0.00    +0.000 A 
ATOM     11  C   UNL     1     -14.954  56.524  49.918  0.00  0.00    +0.000 A 
ATOM     12  F   UNL     1     -15.699  56.546  52.151  0.00  0.00    +0.000 F 
ENDROOT
BRANCH   1  18
ATOM     13  S   UNL     1      -7.120  54.958  53.143  0.00  0.00    +0.000 S 
ATOM     14  O   UNL     1      -7.736  53.942  53.963  0.00  0.00    +0.000 OA
ATOM     15  O   UNL     1      -6.385  56.064  53.718  0.00  0.00    +0.000 OA
ATOM     16  N   UNL     1      -8.279  55.612  52.171  0.00  0.00    +0.000 N 
ATOM     17  C   UNL     1      -6.091  54.168  51.985  0.00  0.00    +0.000 A 
ATOM     18  C   UNL     1      -8.678  55.022  50.973  0.00  0.00    +0.000 C 
ATOM     19  C   UNL     1      -6.631  53.877  50.736  0.00  0.00    +0.000 A 
ATOM     20  C   UNL     1      -4.763  53.872  52.312  0.00  0.00    +0.000 A 
ATOM     21  N   UNL     1      -7.949  54.157  50.339  0.00  0.00    +0.000 N 
ATOM     22  C   UNL     1      -5.793  53.287  49.787  0.00  0.00    +0.000 A 
ATOM     23  C   UNL     1      -3.948  53.270  51.358  0.00  0.00    +0.000 A 
ATOM     24  C   UNL     1      -4.459  52.985  50.092  0.00  0.00    +0.000 A 
ATOM     25  H   UNL     1      -8.706  56.455  52.448  0.00  0.00    +0.000 HD
ATOM     26  H   UNL     1      -8.327  53.687  49.561  0.00  0.00    +0.000 HD
ENDBRANCH   1  18
BRANCH   3  27
ATOM     27  O   UNL     1     -10.941  55.416  52.670  0.00  0.00    +0.000 OA
ATOM     28  H   UNL     1     -10.266  54.872  53.026  0.00  0.00    +0.000 HD
ENDBRANCH   3  27
BRANCH   5  29
ATOM     29  C   UNL     1     -11.710  56.077  47.052  0.00  0.00    +0.000 C 
BRANCH  29  30
ATOM     30  C   UNL     1     -12.021  54.814  46.227  0.00  0.00    +0.000 C 
BRANCH  30  31
ATOM     31  C   UNL     1     -10.802  54.201  45.598  0.00  0.00    +0.000 C 
ATOM     32  C   UNL     1     -10.863  53.097  44.575  0.00  0.00    +0.000 C 
ATOM     33  C   UNL     1     -10.434  52.789  45.981  0.00  0.00    +0.000 C 
ENDBRANCH  30  31
ENDBRANCH  29  30
ENDBRANCH   5  29
TORSDOF 5
ENDMDL
MODEL 8
REMARK VINA RESULT:      -7.9      4.011      5.778
REMARK  Name = 338168
REMARK  5 active torsions:
REMARK  status: ('A' for Active; 'I' for Inactive)
REMARK    1  A    between atoms: C_6  and  C_10
REMARK    2  A    between atoms: C_14  and  O_18
REMARK    3  A    between atoms: N_17  and  C_21
REMARK    4  A    between atoms: C_21  and  C_24
REMARK    5  A    between atoms: C_24  and  C_27
REMARK                            x       y       z     vdW  Elec       q    Type
REMARK                         _______ _______ _______ _____ _____    ______ ____
ROOT
ATOM      1  C   UNL     1     -10.750  55.666  48.159  0.00  0.00    +0.000 A 
ATOM      2  C   UNL     1      -9.300  55.730  48.486  0.00  0.00    +0.000 A 
ATOM      3  C   UNL     1     -11.164  55.022  47.054  0.00  0.00    +0.000 A 
ATOM      4  O   UNL     1      -8.960  56.469  49.412  0.00  0.00    +0.000 OA
ATOM      5  N   UNL     1      -8.409  54.935  47.763  0.00  0.00    +0.000 N 
ATOM      6  C   UNL     1     -10.202  54.329  46.191  0.00  0.00    +0.000 A 
ATOM      7  C   UNL     1      -8.841  54.268  46.560  0.00  0.00    +0.000 A 
ATOM      8  C   UNL     1     -10.648  53.684  45.023  0.00  0.00    +0.000 A 
ATOM      9  C   UNL     1      -7.963  53.551  45.725  0.00  0.00    +0.000 A 
ATOM     10  C   UNL     1      -9.763  52.965  44.239  0.00  0.00    +0.000 A 
ATOM     11  C   UNL     1      -8.426  52.890  44.580  0.00  0.00    +0.000 A 
ATOM     12  F   UNL     1     -10.208  52.329  43.147  0.00  0.00    +0.000 F 
ENDROOT
BRANCH   1  18
ATOM     13  S   UNL     1     -13.277  55.965  51.225  0.00  0.00    +0.000 S 
ATOM     14  O   UNL     1     -12.325  56.075  52.305  0.00  0.00    +0.000 OA
ATOM     15  O   UNL     1     -14.473  55.159  51.337  0.00  0.00    +0.000 OA
ATOM     16  N   UNL     1     -12.478  55.443  49.882  0.00  0.00    +0.000 N 
ATOM     17  C   UNL     1     -13.747  57.572  50.754  0.00  0.00    +0.000 A 
ATOM     18  C   UNL     1     -11.769  56.303  49.044  0.00  0.00    +0.000 C 
ATOM     19  C   UNL     1     -13.048  58.169  49.710  0.00  0.00    +0.000 A 
ATOM     20  C   UNL     1     -14.815  58.208  51.399  0.00  0.00    +0.000 A 
ATOM     21  N   UNL     1     -11.978  57.583  49.014  0.00  0.00    +0.000 N 
ATOM     22  C   UNL     1     -13.456  59.439  49.297  0.00  0.00    +0.000 A 
ATOM     23  C   UNL     1     -15.196  59.479  50.983  0.00  0.00    +0.000 A 
ATOM     24  C   UNL     1     -14.524  60.093  49.926  0.00  0.00    +0.000 A 
ATOM     25  H   UNL     1     -12.502  54.483  49.661  0.00  0.00    +0.000 HD
ATOM     26  H   UNL     1     -11.373  58.157  48.491  0.00  0.00    +0.000 HD
ENDBRANCH   1  18
BRANCH   3  27
ATOM     27  O   UNL     1     -12.486  54.928  46.646  0.00  0.00    +0.000 OA
ATOM     28  H   UNL     1     -12.782  55.415  45.903  0.00  0.00    +0.000 HD
ENDBRANCH   3  27
BRANCH   5  29
ATOM     29  C   UNL     1      -6.973  54.953  48.126  0.00  0.00    +0.000 C 
BRANCH  29  30
ATOM     30  C   UNL     1      -6.543  54.020  49.274  0.00  0.00    +0.000 C 
BRANCH  30  31
ATOM     31  C   UNL     1      -5.767  54.725  50.351  0.00  0.00    +0.000 C 
ATOM     32  C   UNL     1      -4.780  54.029  51.253  0.00  0.00    +0.000 C 
ATOM     33  C   UNL     1      -6.121  54.441  51.790  0.00  0.00    +0.000 C 
ENDBRANCH  30  31
ENDBRANCH  29  30
ENDBRANCH   5  29
TORSDOF 5
ENDMDL
MODEL 9
REMARK VINA RESULT:      -7.9      3.832      7.407
REMARK  Name = 338168
REMARK  5 active torsions:
REMARK  status: ('A' for Active; 'I' for Inactive)
REMARK    1  A    between atoms: C_6  and  C_10
REMARK    2  A    between atoms: C_14  and  O_18
REMARK    3  A    between atoms: N_17  and  C_21
REMARK    4  A    between atoms: C_21  and  C_24
REMARK    5  A    between atoms: C_24  and  C_27
REMARK                            x       y       z     vdW  Elec       q    Type
REMARK                         _______ _______ _______ _____ _____    ______ ____
ROOT
ATOM      1  C   UNL     1     -10.309  55.055  50.622  0.00  0.00    +0.000 A 
ATOM      2  C   UNL     1     -10.005  55.068  49.167  0.00  0.00    +0.000 A 
ATOM      3  C   UNL     1     -11.422  55.651  51.084  0.00  0.00    +0.000 A 
ATOM      4  O   UNL     1      -8.897  54.658  48.816  0.00  0.00    +0.000 OA
ATOM      5  N   UNL     1     -10.986  55.505  48.275  0.00  0.00    +0.000 N 
ATOM      6  C   UNL     1     -12.375  56.269  50.156  0.00  0.00    +0.000 A 
ATOM      7  C   UNL     1     -12.166  56.172  48.764  0.00  0.00    +0.000 A 
ATOM      8  C   UNL     1     -13.521  56.914  50.657  0.00  0.00    +0.000 A 
ATOM      9  C   UNL     1     -13.133  56.740  47.912  0.00  0.00    +0.000 A 
ATOM     10  C   UNL     1     -14.465  57.437  49.791  0.00  0.00    +0.000 A 
ATOM     11  C   UNL     1     -14.283  57.354  48.423  0.00  0.00    +0.000 A 
ATOM     12  F   UNL     1     -15.567  58.019  50.281  0.00  0.00    +0.000 F 
ENDROOT
BRANCH   1  18
ATOM     13  S   UNL     1      -8.876  52.085  52.859  0.00  0.00    +0.000 S 
ATOM     14  O   UNL     1      -8.316  51.256  51.818  0.00  0.00    +0.000 OA
ATOM     15  O   UNL     1      -9.602  51.524  53.977  0.00  0.00    +0.000 OA
ATOM     16  N   UNL     1      -9.870  53.196  52.157  0.00  0.00    +0.000 N 
ATOM     17  C   UNL     1      -7.606  53.094  53.487  0.00  0.00    +0.000 A 
ATOM     18  C   UNL     1      -9.399  54.382  51.596  0.00  0.00    +0.000 C 
ATOM     19  C   UNL     1      -7.459  54.363  52.936  0.00  0.00    +0.000 A 
ATOM     20  C   UNL     1      -6.794  52.634  54.530  0.00  0.00    +0.000 A 
ATOM     21  N   UNL     1      -8.244  54.890  51.898  0.00  0.00    +0.000 N 
ATOM     22  C   UNL     1      -6.472  55.194  53.471  0.00  0.00    +0.000 A 
ATOM     23  C   UNL     1      -5.807  53.471  55.040  0.00  0.00    +0.000 A 
ATOM     24  C   UNL     1      -5.650  54.755  54.518  0.00  0.00    +0.000 A 
ATOM     25  H   UNL     1     -10.838  53.014  52.133  0.00  0.00    +0.000 HD
ATOM     26  H   UNL     1      -7.912  55.665  51.389  0.00  0.00    +0.000 HD
ENDBRANCH   1  18
BRANCH   3  27
ATOM     27  O   UNL     1     -11.783  55.719  52.421  0.00  0.00    +0.000 OA
ATOM     28  H   UNL     1     -12.167  54.975  52.840  0.00  0.00    +0.000 HD
ENDBRANCH   3  27
BRANCH   5  29
ATOM     29  C   UNL     1     -10.706  55.463  46.821  0.00  0.00    +0.000 C 
BRANCH  29  30
ATOM     30  C   UNL     1     -11.364  54.319  46.027  0.00  0.00    +0.000 C 
BRANCH  30  31
ATOM     31  C   UNL     1     -10.392  53.252  45.607  0.00  0.00    +0.000 C 
ATOM     32  C   UNL     1      -9.148  53.534  44.804  0.00  0.00    +0.000 C 
ATOM     33  C   UNL     1     -10.329  52.878  44.147  0.00  0.00    +0.000 C 
ENDBRANCH  30  31
ENDBRANCH  29  30
ENDBRANCH   5  29
TORSDOF 5
ENDMDL
