MODEL 1
REMARK VINA RESULT:      -8.3      0.000      0.000
REMARK  Name = 338063
REMARK  8 active torsions:
REMARK  status: ('A' for Active; 'I' for Inactive)
REMARK    1  A    between atoms: C_6  and  C_10
REMARK    2  A    between atoms: C_14  and  O_18
REMARK    3  A    between atoms: N_17  and  C_21
REMARK    4  A    between atoms: C_21  and  C_24
REMARK    5  A    between atoms: C_24  and  C_27
REMARK    6  A    between atoms: C_25  and  C_28
REMARK    7  A    between atoms: C_27  and  C_29
REMARK    8  A    between atoms: C_27  and  C_30
REMARK                            x       y       z     vdW  Elec       q    Type
REMARK                         _______ _______ _______ _____ _____    ______ ____
ROOT
ATOM      1  C   UNL     1     -11.360  56.136  48.722  0.00  0.00    +0.000 A 
ATOM      2  C   UNL     1     -10.167  55.698  49.512  0.00  0.00    +0.000 A 
ATOM      3  C   UNL     1     -11.547  55.671  47.475  0.00  0.00    +0.000 A 
ATOM      4  O   UNL     1     -10.085  56.062  50.690  0.00  0.00    +0.000 OA
ATOM      5  N   UNL     1      -9.218  54.889  48.900  0.00  0.00    +0.000 N 
ATOM      6  C   UNL     1     -10.596  54.718  46.885  0.00  0.00    +0.000 A 
ATOM      7  C   UNL     1      -9.463  54.319  47.611  0.00  0.00    +0.000 A 
ATOM      8  C   UNL     1     -10.826  54.182  45.601  0.00  0.00    +0.000 A 
ATOM      9  C   UNL     1      -8.619  53.348  47.051  0.00  0.00    +0.000 A 
ATOM     10  C   UNL     1      -9.951  53.251  45.034  0.00  0.00    +0.000 A 
ATOM     11  C   UNL     1      -8.849  52.831  45.774  0.00  0.00    +0.000 A 
ATOM     12  C   UNL     1     -10.205  52.673  43.675  0.00  0.00    +0.000 C 
ENDROOT
BRANCH   1  18
ATOM     13  S   UNL     1     -13.561  59.307  49.462  0.00  0.00    +0.000 S 
ATOM     14  O   UNL     1     -14.710  59.412  48.584  0.00  0.00    +0.000 OA
ATOM     15  O   UNL     1     -12.786  60.487  49.799  0.00  0.00    +0.000 OA
ATOM     16  N   UNL     1     -12.551  58.216  48.821  0.00  0.00    +0.000 N 
ATOM     17  C   UNL     1     -14.165  58.677  50.984  0.00  0.00    +0.000 A 
ATOM     18  C   UNL     1     -12.382  57.050  49.373  0.00  0.00    +0.000 C 
ATOM     19  C   UNL     1     -13.822  57.380  51.330  0.00  0.00    +0.000 A 
ATOM     20  C   UNL     1     -14.954  59.480  51.811  0.00  0.00    +0.000 A 
ATOM     21  N   UNL     1     -13.041  56.587  50.493  0.00  0.00    +0.000 N 
ATOM     22  C   UNL     1     -14.349  56.851  52.512  0.00  0.00    +0.000 A 
ATOM     23  C   UNL     1     -15.441  58.954  53.005  0.00  0.00    +0.000 A 
ATOM     24  C   UNL     1     -15.147  57.635  53.351  0.00  0.00    +0.000 A 
ATOM     25  H   UNL     1     -12.055  58.439  48.000  0.00  0.00    +0.000 HD
ATOM     26  H   UNL     1     -12.952  55.633  50.716  0.00  0.00    +0.000 HD
ENDBRANCH   1  18
BRANCH   3  27
ATOM     27  O   UNL     1     -12.633  55.990  46.676  0.00  0.00    +0.000 OA
ATOM     28  H   UNL     1     -12.503  56.200  45.772  0.00  0.00    +0.000 HD
ENDBRANCH   3  27
BRANCH   5  29
ATOM     29  C   UNL     1      -8.020  54.533  49.672  0.00  0.00    +0.000 C 
BRANCH  29  30
ATOM     30  C   UNL     1      -6.865  55.549  49.637  0.00  0.00    +0.000 C 
BRANCH  30  31
ATOM     31  C   UNL     1      -5.437  54.977  49.652  0.00  0.00    +0.000 C 
ATOM     32  C   UNL     1      -5.100  54.282  50.969  0.00  0.00    +0.000 C 
ATOM     33  C   UNL     1      -5.292  53.985  48.492  0.00  0.00    +0.000 C 
ENDBRANCH  30  31
ENDBRANCH  29  30
ENDBRANCH   5  29
TORSDOF 5
ENDMDL
MODEL 2
REMARK VINA RESULT:      -8.1      1.031      3.845
REMARK  Name = 338063
REMARK  8 active torsions:
REMARK  status: ('A' for Active; 'I' for Inactive)
REMARK    1  A    between atoms: C_6  and  C_10
REMARK    2  A    between atoms: C_14  and  O_18
REMARK    3  A    between atoms: N_17  and  C_21
REMARK    4  A    between atoms: C_21  and  C_24
REMARK    5  A    between atoms: C_24  and  C_27
REMARK    6  A    between atoms: C_25  and  C_28
REMARK    7  A    between atoms: C_27  and  C_29
REMARK    8  A    between atoms: C_27  and  C_30
REMARK                            x       y       z     vdW  Elec       q    Type
REMARK                         _______ _______ _______ _____ _____    ______ ____
ROOT
ATOM      1  C   UNL     1     -11.420  56.263  48.529  0.00  0.00    +0.000 A 
ATOM      2  C   UNL     1     -11.791  55.661  47.210  0.00  0.00    +0.000 A 
ATOM      3  C   UNL     1     -10.188  56.076  49.030  0.00  0.00    +0.000 A 
ATOM      4  O   UNL     1     -12.896  55.941  46.732  0.00  0.00    +0.000 OA
ATOM      5  N   UNL     1     -10.876  54.833  46.570  0.00  0.00    +0.000 N 
ATOM      6  C   UNL     1      -9.190  55.297  48.281  0.00  0.00    +0.000 A 
ATOM      7  C   UNL     1      -9.536  54.711  47.054  0.00  0.00    +0.000 A 
ATOM      8  C   UNL     1      -7.877  55.155  48.776  0.00  0.00    +0.000 A 
ATOM      9  C   UNL     1      -8.537  54.044  46.327  0.00  0.00    +0.000 A 
ATOM     10  C   UNL     1      -6.904  54.446  48.066  0.00  0.00    +0.000 A 
ATOM     11  C   UNL     1      -7.244  53.898  46.832  0.00  0.00    +0.000 A 
ATOM     12  C   UNL     1      -5.507  54.308  48.589  0.00  0.00    +0.000 C 
ENDROOT
BRANCH   1  18
ATOM     13  S   UNL     1     -13.613  59.383  49.482  0.00  0.00    +0.000 S 
ATOM     14  O   UNL     1     -14.784  59.526  48.638  0.00  0.00    +0.000 OA
ATOM     15  O   UNL     1     -12.834  60.547  49.859  0.00  0.00    +0.000 OA
ATOM     16  N   UNL     1     -12.615  58.330  48.762  0.00  0.00    +0.000 N 
ATOM     17  C   UNL     1     -14.178  58.674  50.984  0.00  0.00    +0.000 A 
ATOM     18  C   UNL     1     -12.429  57.138  49.250  0.00  0.00    +0.000 C 
ATOM     19  C   UNL     1     -13.821  57.362  51.255  0.00  0.00    +0.000 A 
ATOM     20  C   UNL     1     -14.949  59.431  51.869  0.00  0.00    +0.000 A 
ATOM     21  N   UNL     1     -13.058  56.617  50.360  0.00  0.00    +0.000 N 
ATOM     22  C   UNL     1     -14.317  56.772  52.422  0.00  0.00    +0.000 A 
ATOM     23  C   UNL     1     -15.404  58.843  53.047  0.00  0.00    +0.000 A 
ATOM     24  C   UNL     1     -15.097  57.510  53.319  0.00  0.00    +0.000 A 
ATOM     25  H   UNL     1     -12.141  58.596  47.941  0.00  0.00    +0.000 HD
ATOM     26  H   UNL     1     -12.961  55.653  50.534  0.00  0.00    +0.000 HD
ENDBRANCH   1  18
BRANCH   3  27
ATOM     27  O   UNL     1      -9.738  56.616  50.223  0.00  0.00    +0.000 OA
ATOM     28  H   UNL     1      -9.018  57.215  50.224  0.00  0.00    +0.000 HD
ENDBRANCH   3  27
BRANCH   5  29
ATOM     29  C   UNL     1     -11.291  54.196  45.314  0.00  0.00    +0.000 C 
BRANCH  29  30
ATOM     30  C   UNL     1     -11.857  52.770  45.431  0.00  0.00    +0.000 C 
BRANCH  30  31
ATOM     31  C   UNL     1     -11.148  51.672  44.619  0.00  0.00    +0.000 C 
ATOM     32  C   UNL     1     -10.245  52.243  43.529  0.00  0.00    +0.000 C 
ATOM     33  C   UNL     1     -10.319  50.809  45.578  0.00  0.00    +0.000 C 
ENDBRANCH  30  31
ENDBRANCH  29  30
ENDBRANCH   5  29
TORSDOF 5
ENDMDL
MODEL 3
REMARK VINA RESULT:      -8.1      1.700      2.225
REMARK  Name = 338063
REMARK  8 active torsions:
REMARK  status: ('A' for Active; 'I' for Inactive)
REMARK    1  A    between atoms: C_6  and  C_10
REMARK    2  A    between atoms: C_14  and  O_18
REMARK    3  A    between atoms: N_17  and  C_21
REMARK    4  A    between atoms: C_21  and  C_24
REMARK    5  A    between atoms: C_24  and  C_27
REMARK    6  A    between atoms: C_25  and  C_28
REMARK    7  A    between atoms: C_27  and  C_29
REMARK    8  A    between atoms: C_27  and  C_30
REMARK                            x       y       z     vdW  Elec       q    Type
REMARK                         _______ _______ _______ _____ _____    ______ ____
ROOT
ATOM      1  C   UNL     1     -10.886  55.533  48.721  0.00  0.00    +0.000 A 
ATOM      2  C   UNL     1      -9.612  55.094  49.374  0.00  0.00    +0.000 A 
ATOM      3  C   UNL     1     -11.140  55.189  47.448  0.00  0.00    +0.000 A 
ATOM      4  O   UNL     1      -9.461  55.339  50.576  0.00  0.00    +0.000 OA
ATOM      5  N   UNL     1      -8.667  54.417  48.613  0.00  0.00    +0.000 N 
ATOM      6  C   UNL     1     -10.183  54.366  46.693  0.00  0.00    +0.000 A 
ATOM      7  C   UNL     1      -8.977  53.969  47.290  0.00  0.00    +0.000 A 
ATOM      8  C   UNL     1     -10.480  53.952  45.378  0.00  0.00    +0.000 A 
ATOM      9  C   UNL     1      -8.124  53.118  46.571  0.00  0.00    +0.000 A 
ATOM     10  C   UNL     1      -9.598  53.144  44.654  0.00  0.00    +0.000 A 
ATOM     11  C   UNL     1      -8.421  52.723  45.265  0.00  0.00    +0.000 A 
ATOM     12  C   UNL     1      -9.923  52.694  43.261  0.00  0.00    +0.000 C 
ENDROOT
BRANCH   1  18
ATOM     13  S   UNL     1     -13.578  56.372  51.459  0.00  0.00    +0.000 S 
ATOM     14  O   UNL     1     -12.992  56.690  52.747  0.00  0.00    +0.000 OA
ATOM     15  O   UNL     1     -14.766  55.542  51.380  0.00  0.00    +0.000 OA
ATOM     16  N   UNL     1     -12.428  55.680  50.553  0.00  0.00    +0.000 N 
ATOM     17  C   UNL     1     -14.013  57.906  50.728  0.00  0.00    +0.000 A 
ATOM     18  C   UNL     1     -11.906  56.305  49.538  0.00  0.00    +0.000 C 
ATOM     19  C   UNL     1     -13.275  58.336  49.638  0.00  0.00    +0.000 A 
ATOM     20  C   UNL     1     -15.082  58.647  51.239  0.00  0.00    +0.000 A 
ATOM     21  N   UNL     1     -12.207  57.592  49.144  0.00  0.00    +0.000 N 
ATOM     22  C   UNL     1     -13.578  59.586  49.088  0.00  0.00    +0.000 A 
ATOM     23  C   UNL     1     -15.398  59.872  50.656  0.00  0.00    +0.000 A 
ATOM     24  C   UNL     1     -14.639  60.347  49.587  0.00  0.00    +0.000 A 
ATOM     25  H   UNL     1     -12.119  54.772  50.772  0.00  0.00    +0.000 HD
ATOM     26  H   UNL     1     -11.629  58.012  48.467  0.00  0.00    +0.000 HD
ENDBRANCH   1  18
BRANCH   3  27
ATOM     27  O   UNL     1     -12.300  55.517  46.766  0.00  0.00    +0.000 OA
ATOM     28  H   UNL     1     -12.669  54.913  46.152  0.00  0.00    +0.000 HD
ENDBRANCH   3  27
BRANCH   5  29
ATOM     29  C   UNL     1      -7.396  54.063  49.256  0.00  0.00    +0.000 C 
BRANCH  29  30
ATOM     30  C   UNL     1      -6.261  55.094  49.128  0.00  0.00    +0.000 C 
BRANCH  30  31
ATOM     31  C   UNL     1      -4.822  54.561  49.239  0.00  0.00    +0.000 C 
ATOM     32  C   UNL     1      -4.546  53.899  50.587  0.00  0.00    +0.000 C 
ATOM     33  C   UNL     1      -4.584  53.551  48.109  0.00  0.00    +0.000 C 
ENDBRANCH  30  31
ENDBRANCH  29  30
ENDBRANCH   5  29
TORSDOF 5
ENDMDL
MODEL 4
REMARK VINA RESULT:      -8.0      2.950      4.462
REMARK  Name = 338063
REMARK  8 active torsions:
REMARK  status: ('A' for Active; 'I' for Inactive)
REMARK    1  A    between atoms: C_6  and  C_10
REMARK    2  A    between atoms: C_14  and  O_18
REMARK    3  A    between atoms: N_17  and  C_21
REMARK    4  A    between atoms: C_21  and  C_24
REMARK    5  A    between atoms: C_24  and  C_27
REMARK    6  A    between atoms: C_25  and  C_28
REMARK    7  A    between atoms: C_27  and  C_29
REMARK    8  A    between atoms: C_27  and  C_30
REMARK                            x       y       z     vdW  Elec       q    Type
REMARK                         _______ _______ _______ _____ _____    ______ ____
ROOT
ATOM      1  C   UNL     1     -12.445  54.274  49.917  0.00  0.00    +0.000 A 
ATOM      2  C   UNL     1     -12.121  54.020  48.479  0.00  0.00    +0.000 A 
ATOM      3  C   UNL     1     -11.968  53.453  50.868  0.00  0.00    +0.000 A 
ATOM      4  O   UNL     1     -12.489  54.854  47.644  0.00  0.00    +0.000 OA
ATOM      5  N   UNL     1     -11.407  52.875  48.144  0.00  0.00    +0.000 N 
ATOM      6  C   UNL     1     -11.111  52.314  50.508  0.00  0.00    +0.000 A 
ATOM      7  C   UNL     1     -10.820  52.056  49.159  0.00  0.00    +0.000 A 
ATOM      8  C   UNL     1     -10.558  51.491  51.510  0.00  0.00    +0.000 A 
ATOM      9  C   UNL     1      -9.935  51.011  48.855  0.00  0.00    +0.000 A 
ATOM     10  C   UNL     1      -9.716  50.422  51.191  0.00  0.00    +0.000 A 
ATOM     11  C   UNL     1      -9.402  50.194  49.854  0.00  0.00    +0.000 A 
ATOM     12  C   UNL     1      -9.120  49.557  52.260  0.00  0.00    +0.000 C 
ENDROOT
BRANCH   1  18
ATOM     13  S   UNL     1     -15.370  56.514  51.289  0.00  0.00    +0.000 S 
ATOM     14  O   UNL     1     -15.321  56.683  52.728  0.00  0.00    +0.000 OA
ATOM     15  O   UNL     1     -16.637  56.289  50.620  0.00  0.00    +0.000 OA
ATOM     16  N   UNL     1     -14.381  55.290  50.905  0.00  0.00    +0.000 N 
ATOM     17  C   UNL     1     -14.717  57.991  50.602  0.00  0.00    +0.000 A 
ATOM     18  C   UNL     1     -13.257  55.503  50.285  0.00  0.00    +0.000 C 
ATOM     19  C   UNL     1     -13.477  57.926  49.988  0.00  0.00    +0.000 A 
ATOM     20  C   UNL     1     -15.450  59.178  50.671  0.00  0.00    +0.000 A 
ATOM     21  N   UNL     1     -12.754  56.737  49.933  0.00  0.00    +0.000 N 
ATOM     22  C   UNL     1     -12.925  59.111  49.491  0.00  0.00    +0.000 A 
ATOM     23  C   UNL     1     -14.905  60.343  50.138  0.00  0.00    +0.000 A 
ATOM     24  C   UNL     1     -13.637  60.313  49.556  0.00  0.00    +0.000 A 
ATOM     25  H   UNL     1     -14.635  54.369  51.143  0.00  0.00    +0.000 HD
ATOM     26  H   UNL     1     -11.822  56.781  49.619  0.00  0.00    +0.000 HD
ENDBRANCH   1  18
BRANCH   3  27
ATOM     27  O   UNL     1     -12.184  53.621  52.226  0.00  0.00    +0.000 OA
ATOM     28  H   UNL     1     -11.502  53.422  52.837  0.00  0.00    +0.000 HD
ENDBRANCH   3  27
BRANCH   5  29
ATOM     29  C   UNL     1     -11.166  52.611  46.720  0.00  0.00    +0.000 C 
BRANCH  29  30
ATOM     30  C   UNL     1     -10.164  53.543  46.018  0.00  0.00    +0.000 C 
BRANCH  30  31
ATOM     31  C   UNL     1      -8.861  53.858  46.774  0.00  0.00    +0.000 C 
ATOM     32  C   UNL     1      -7.616  53.546  45.947  0.00  0.00    +0.000 C 
ATOM     33  C   UNL     1      -8.864  55.342  47.162  0.00  0.00    +0.000 C 
ENDBRANCH  30  31
ENDBRANCH  29  30
ENDBRANCH   5  29
TORSDOF 5
ENDMDL
MODEL 5
REMARK VINA RESULT:      -7.9      1.865      4.447
REMARK  Name = 338063
REMARK  8 active torsions:
REMARK  status: ('A' for Active; 'I' for Inactive)
REMARK    1  A    between atoms: C_6  and  C_10
REMARK    2  A    between atoms: C_14  and  O_18
REMARK    3  A    between atoms: N_17  and  C_21
REMARK    4  A    between atoms: C_21  and  C_24
REMARK    5  A    between atoms: C_24  and  C_27
REMARK    6  A    between atoms: C_25  and  C_28
REMARK    7  A    between atoms: C_27  and  C_29
REMARK    8  A    between atoms: C_27  and  C_30
REMARK                            x       y       z     vdW  Elec       q    Type
REMARK                         _______ _______ _______ _____ _____    ______ ____
ROOT
ATOM      1  C   UNL     1     -10.790  55.674  48.715  0.00  0.00    +0.000 A 
ATOM      2  C   UNL     1     -11.131  55.230  47.327  0.00  0.00    +0.000 A 
ATOM      3  C   UNL     1      -9.549  55.484  49.195  0.00  0.00    +0.000 A 
ATOM      4  O   UNL     1     -12.249  55.516  46.884  0.00  0.00    +0.000 OA
ATOM      5  N   UNL     1     -10.177  54.537  46.592  0.00  0.00    +0.000 N 
ATOM      6  C   UNL     1      -8.515  54.858  48.358  0.00  0.00    +0.000 A 
ATOM      7  C   UNL     1      -8.832  54.420  47.064  0.00  0.00    +0.000 A 
ATOM      8  C   UNL     1      -7.196  54.717  48.839  0.00  0.00    +0.000 A 
ATOM      9  C   UNL     1      -7.802  53.902  46.263  0.00  0.00    +0.000 A 
ATOM     10  C   UNL     1      -6.190  54.155  48.049  0.00  0.00    +0.000 A 
ATOM     11  C   UNL     1      -6.503  53.755  46.752  0.00  0.00    +0.000 A 
ATOM     12  C   UNL     1      -4.788  54.018  48.558  0.00  0.00    +0.000 C 
ENDROOT
BRANCH   1  18
ATOM     13  S   UNL     1     -13.530  56.373  51.445  0.00  0.00    +0.000 S 
ATOM     14  O   UNL     1     -12.965  56.683  52.744  0.00  0.00    +0.000 OA
ATOM     15  O   UNL     1     -14.691  55.509  51.339  0.00  0.00    +0.000 OA
ATOM     16  N   UNL     1     -12.352  55.736  50.535  0.00  0.00    +0.000 N 
ATOM     17  C   UNL     1     -14.007  57.908  50.741  0.00  0.00    +0.000 A 
ATOM     18  C   UNL     1     -11.840  56.398  49.538  0.00  0.00    +0.000 C 
ATOM     19  C   UNL     1     -13.273  58.383  49.666  0.00  0.00    +0.000 A 
ATOM     20  C   UNL     1     -15.102  58.605  51.256  0.00  0.00    +0.000 A 
ATOM     21  N   UNL     1     -12.178  57.682  49.167  0.00  0.00    +0.000 N 
ATOM     22  C   UNL     1     -13.610  59.634  49.138  0.00  0.00    +0.000 A 
ATOM     23  C   UNL     1     -15.451  59.831  50.696  0.00  0.00    +0.000 A 
ATOM     24  C   UNL     1     -14.699  60.351  49.643  0.00  0.00    +0.000 A 
ATOM     25  H   UNL     1     -12.017  54.833  50.740  0.00  0.00    +0.000 HD
ATOM     26  H   UNL     1     -11.608  58.133  48.504  0.00  0.00    +0.000 HD
ENDBRANCH   1  18
BRANCH   3  27
ATOM     27  O   UNL     1      -9.127  55.886  50.451  0.00  0.00    +0.000 OA
ATOM     28  H   UNL     1      -9.355  55.380  51.206  0.00  0.00    +0.000 HD
ENDBRANCH   3  27
BRANCH   5  29
ATOM     29  C   UNL     1     -10.560  54.049  45.261  0.00  0.00    +0.000 C 
BRANCH  29  30
ATOM     30  C   UNL     1     -11.131  52.621  45.202  0.00  0.00    +0.000 C 
BRANCH  30  31
ATOM     31  C   UNL     1     -10.518  51.670  44.160  0.00  0.00    +0.000 C 
ATOM     32  C   UNL     1      -9.929  52.415  42.964  0.00  0.00    +0.000 C 
ATOM     33  C   UNL     1      -9.424  50.836  44.839  0.00  0.00    +0.000 C 
ENDBRANCH  30  31
ENDBRANCH  29  30
ENDBRANCH   5  29
TORSDOF 5
ENDMDL
MODEL 6
REMARK VINA RESULT:      -7.8      2.941      7.295
REMARK  Name = 338063
REMARK  8 active torsions:
REMARK  status: ('A' for Active; 'I' for Inactive)
REMARK    1  A    between atoms: C_6  and  C_10
REMARK    2  A    between atoms: C_14  and  O_18
REMARK    3  A    between atoms: N_17  and  C_21
REMARK    4  A    between atoms: C_21  and  C_24
REMARK    5  A    between atoms: C_24  and  C_27
REMARK    6  A    between atoms: C_25  and  C_28
REMARK    7  A    between atoms: C_27  and  C_29
REMARK    8  A    between atoms: C_27  and  C_30
REMARK                            x       y       z     vdW  Elec       q    Type
REMARK                         _______ _______ _______ _____ _____    ______ ____
ROOT
ATOM      1  C   UNL     1     -10.785  54.478  48.646  0.00  0.00    +0.000 A 
ATOM      2  C   UNL     1     -10.319  54.018  49.991  0.00  0.00    +0.000 A 
ATOM      3  C   UNL     1     -11.780  55.375  48.550  0.00  0.00    +0.000 A 
ATOM      4  O   UNL     1      -9.333  53.274  50.043  0.00  0.00    +0.000 OA
ATOM      5  N   UNL     1     -10.996  54.459  51.122  0.00  0.00    +0.000 N 
ATOM      6  C   UNL     1     -12.406  55.925  49.762  0.00  0.00    +0.000 A 
ATOM      7  C   UNL     1     -11.990  55.483  51.027  0.00  0.00    +0.000 A 
ATOM      8  C   UNL     1     -13.407  56.914  49.663  0.00  0.00    +0.000 A 
ATOM      9  C   UNL     1     -12.550  56.087  52.163  0.00  0.00    +0.000 A 
ATOM     10  C   UNL     1     -13.992  57.473  50.803  0.00  0.00    +0.000 A 
ATOM     11  C   UNL     1     -13.549  57.057  52.055  0.00  0.00    +0.000 A 
ATOM     12  C   UNL     1     -15.046  58.532  50.694  0.00  0.00    +0.000 C 
ENDROOT
BRANCH   1  18
ATOM     13  S   UNL     1      -8.022  53.994  45.892  0.00  0.00    +0.000 S 
ATOM     14  O   UNL     1      -6.969  53.087  46.304  0.00  0.00    +0.000 OA
ATOM     15  O   UNL     1      -7.700  55.212  45.172  0.00  0.00    +0.000 OA
ATOM     16  N   UNL     1      -8.861  54.407  47.214  0.00  0.00    +0.000 N 
ATOM     17  C   UNL     1      -9.074  53.072  44.832  0.00  0.00    +0.000 A 
ATOM     18  C   UNL     1     -10.073  53.971  47.405  0.00  0.00    +0.000 C 
ATOM     19  C   UNL     1     -10.335  52.741  45.301  0.00  0.00    +0.000 A 
ATOM     20  C   UNL     1      -8.637  52.707  43.556  0.00  0.00    +0.000 A 
ATOM     21  N   UNL     1     -10.755  53.105  46.577  0.00  0.00    +0.000 N 
ATOM     22  C   UNL     1     -11.156  51.956  44.485  0.00  0.00    +0.000 A 
ATOM     23  C   UNL     1      -9.480  51.958  42.739  0.00  0.00    +0.000 A 
ATOM     24  C   UNL     1     -10.736  51.573  43.207  0.00  0.00    +0.000 A 
ATOM     25  H   UNL     1      -8.448  54.997  47.885  0.00  0.00    +0.000 HD
ATOM     26  H   UNL     1     -11.597  52.719  46.910  0.00  0.00    +0.000 HD
ENDBRANCH   1  18
BRANCH   3  27
ATOM     27  O   UNL     1     -12.261  55.886  47.356  0.00  0.00    +0.000 OA
ATOM     28  H   UNL     1     -12.507  55.305  46.663  0.00  0.00    +0.000 HD
ENDBRANCH   3  27
BRANCH   5  29
ATOM     29  C   UNL     1     -10.566  53.935  52.425  0.00  0.00    +0.000 C 
BRANCH  29  30
ATOM     30  C   UNL     1      -9.686  54.870  53.273  0.00  0.00    +0.000 C 
BRANCH  30  31
ATOM     31  C   UNL     1      -8.181  54.883  52.957  0.00  0.00    +0.000 C 
ATOM     32  C   UNL     1      -7.812  55.940  51.918  0.00  0.00    +0.000 C 
ATOM     33  C   UNL     1      -7.407  55.144  54.255  0.00  0.00    +0.000 C 
ENDBRANCH  30  31
ENDBRANCH  29  30
ENDBRANCH   5  29
TORSDOF 5
ENDMDL
MODEL 7
REMARK VINA RESULT:      -7.8      3.669      5.409
REMARK  Name = 338063
REMARK  8 active torsions:
REMARK  status: ('A' for Active; 'I' for Inactive)
REMARK    1  A    between atoms: C_6  and  C_10
REMARK    2  A    between atoms: C_14  and  O_18
REMARK    3  A    between atoms: N_17  and  C_21
REMARK    4  A    between atoms: C_21  and  C_24
REMARK    5  A    between atoms: C_24  and  C_27
REMARK    6  A    between atoms: C_25  and  C_28
REMARK    7  A    between atoms: C_27  and  C_29
REMARK    8  A    between atoms: C_27  and  C_30
REMARK                            x       y       z     vdW  Elec       q    Type
REMARK                         _______ _______ _______ _____ _____    ______ ____
ROOT
ATOM      1  C   UNL     1     -10.174  54.427  52.196  0.00  0.00    +0.000 A 
ATOM      2  C   UNL     1      -8.790  54.989  52.117  0.00  0.00    +0.000 A 
ATOM      3  C   UNL     1     -10.410  53.322  52.922  0.00  0.00    +0.000 A 
ATOM      4  O   UNL     1      -8.631  56.064  51.528  0.00  0.00    +0.000 OA
ATOM      5  N   UNL     1      -7.749  54.295  52.723  0.00  0.00    +0.000 N 
ATOM      6  C   UNL     1      -9.318  52.667  53.658  0.00  0.00    +0.000 A 
ATOM      7  C   UNL     1      -8.013  53.175  53.572  0.00  0.00    +0.000 A 
ATOM      8  C   UNL     1      -9.578  51.545  54.472  0.00  0.00    +0.000 A 
ATOM      9  C   UNL     1      -7.011  52.576  54.351  0.00  0.00    +0.000 A 
ATOM     10  C   UNL     1      -8.560  50.927  55.205  0.00  0.00    +0.000 A 
ATOM     11  C   UNL     1      -7.275  51.458  55.144  0.00  0.00    +0.000 A 
ATOM     12  C   UNL     1      -8.842  49.743  56.078  0.00  0.00    +0.000 C 
ENDROOT
BRANCH   1  18
ATOM     13  S   UNL     1     -12.393  55.990  49.352  0.00  0.00    +0.000 S 
ATOM     14  O   UNL     1     -13.244  55.013  48.701  0.00  0.00    +0.000 OA
ATOM     15  O   UNL     1     -11.708  57.002  48.571  0.00  0.00    +0.000 OA
ATOM     16  N   UNL     1     -11.278  55.181  50.204  0.00  0.00    +0.000 N 
ATOM     17  C   UNL     1     -13.423  56.863  50.474  0.00  0.00    +0.000 A 
ATOM     18  C   UNL     1     -11.309  55.161  51.505  0.00  0.00    +0.000 C 
ATOM     19  C   UNL     1     -13.232  56.647  51.829  0.00  0.00    +0.000 A 
ATOM     20  C   UNL     1     -14.387  57.752  49.993  0.00  0.00    +0.000 A 
ATOM     21  N   UNL     1     -12.271  55.753  52.295  0.00  0.00    +0.000 N 
ATOM     22  C   UNL     1     -14.088  57.294  52.727  0.00  0.00    +0.000 A 
ATOM     23  C   UNL     1     -15.207  58.419  50.900  0.00  0.00    +0.000 A 
ATOM     24  C   UNL     1     -15.064  58.182  52.267  0.00  0.00    +0.000 A 
ATOM     25  H   UNL     1     -10.564  54.697  49.729  0.00  0.00    +0.000 HD
ATOM     26  H   UNL     1     -12.279  55.529  53.254  0.00  0.00    +0.000 HD
ENDBRANCH   1  18
BRANCH   3  27
ATOM     27  O   UNL     1     -11.658  52.744  53.084  0.00  0.00    +0.000 OA
ATOM     28  H   UNL     1     -11.945  52.076  52.492  0.00  0.00    +0.000 HD
ENDBRANCH   3  27
BRANCH   5  29
ATOM     29  C   UNL     1      -6.389  54.828  52.569  0.00  0.00    +0.000 C 
BRANCH  29  30
ATOM     30  C   UNL     1      -5.526  54.177  51.475  0.00  0.00    +0.000 C 
BRANCH  30  31
ATOM     31  C   UNL     1      -4.118  53.713  51.885  0.00  0.00    +0.000 C 
ATOM     32  C   UNL     1      -3.847  53.916  53.374  0.00  0.00    +0.000 C 
ATOM     33  C   UNL     1      -3.966  52.229  51.530  0.00  0.00    +0.000 C 
ENDBRANCH  30  31
ENDBRANCH  29  30
ENDBRANCH   5  29
TORSDOF 5
ENDMDL
MODEL 8
REMARK VINA RESULT:      -7.7      3.957      7.284
REMARK  Name = 338063
REMARK  8 active torsions:
REMARK  status: ('A' for Active; 'I' for Inactive)
REMARK    1  A    between atoms: C_6  and  C_10
REMARK    2  A    between atoms: C_14  and  O_18
REMARK    3  A    between atoms: N_17  and  C_21
REMARK    4  A    between atoms: C_21  and  C_24
REMARK    5  A    between atoms: C_24  and  C_27
REMARK    6  A    between atoms: C_25  and  C_28
REMARK    7  A    between atoms: C_27  and  C_29
REMARK    8  A    between atoms: C_27  and  C_30
REMARK                            x       y       z     vdW  Elec       q    Type
REMARK                         _______ _______ _______ _____ _____    ______ ____
ROOT
ATOM      1  C   UNL     1      -9.783  53.931  50.941  0.00  0.00    +0.000 A 
ATOM      2  C   UNL     1     -10.816  54.983  51.197  0.00  0.00    +0.000 A 
ATOM      3  C   UNL     1      -9.599  53.460  49.696  0.00  0.00    +0.000 A 
ATOM      4  O   UNL     1     -10.884  55.466  52.333  0.00  0.00    +0.000 OA
ATOM      5  N   UNL     1     -11.638  55.384  50.151  0.00  0.00    +0.000 N 
ATOM      6  C   UNL     1     -10.395  53.984  48.576  0.00  0.00    +0.000 A 
ATOM      7  C   UNL     1     -11.381  54.955  48.811  0.00  0.00    +0.000 A 
ATOM      8  C   UNL     1     -10.158  53.536  47.260  0.00  0.00    +0.000 A 
ATOM      9  C   UNL     1     -12.065  55.492  47.710  0.00  0.00    +0.000 A 
ATOM     10  C   UNL     1     -10.881  54.045  46.177  0.00  0.00    +0.000 A 
ATOM     11  C   UNL     1     -11.831  55.034  46.413  0.00  0.00    +0.000 A 
ATOM     12  C   UNL     1     -10.617  53.575  44.779  0.00  0.00    +0.000 C 
ENDROOT
BRANCH   1  18
ATOM     13  S   UNL     1      -6.609  53.336  53.181  0.00  0.00    +0.000 S 
ATOM     14  O   UNL     1      -6.282  54.481  54.009  0.00  0.00    +0.000 OA
ATOM     15  O   UNL     1      -5.558  52.590  52.514  0.00  0.00    +0.000 OA
ATOM     16  N   UNL     1      -7.660  53.830  52.053  0.00  0.00    +0.000 N 
ATOM     17  C   UNL     1      -7.421  52.189  54.232  0.00  0.00    +0.000 A 
ATOM     18  C   UNL     1      -8.908  53.461  52.088  0.00  0.00    +0.000 C 
ATOM     19  C   UNL     1      -8.778  51.986  54.041  0.00  0.00    +0.000 A 
ATOM     20  C   UNL     1      -6.699  51.505  55.213  0.00  0.00    +0.000 A 
ATOM     21  N   UNL     1      -9.488  52.680  53.065  0.00  0.00    +0.000 N 
ATOM     22  C   UNL     1      -9.443  51.118  54.914  0.00  0.00    +0.000 A 
ATOM     23  C   UNL     1      -7.367  50.615  56.049  0.00  0.00    +0.000 A 
ATOM     24  C   UNL     1      -8.742  50.428  55.907  0.00  0.00    +0.000 A 
ATOM     25  H   UNL     1      -7.350  54.419  51.327  0.00  0.00    +0.000 HD
ATOM     26  H   UNL     1     -10.469  52.606  53.072  0.00  0.00    +0.000 HD
ENDBRANCH   1  18
BRANCH   3  27
ATOM     27  O   UNL     1      -8.650  52.512  49.351  0.00  0.00    +0.000 OA
ATOM     28  H   UNL     1      -8.618  52.179  48.475  0.00  0.00    +0.000 HD
ENDBRANCH   3  27
BRANCH   5  29
ATOM     29  C   UNL     1     -12.692  56.364  50.446  0.00  0.00    +0.000 C 
BRANCH  29  30
ATOM     30  C   UNL     1     -13.963  55.811  51.114  0.00  0.00    +0.000 C 
BRANCH  30  31
ATOM     31  C   UNL     1     -14.812  56.808  51.922  0.00  0.00    +0.000 C 
ATOM     32  C   UNL     1     -13.995  57.551  52.977  0.00  0.00    +0.000 C 
ATOM     33  C   UNL     1     -15.442  57.816  50.952  0.00  0.00    +0.000 C 
ENDBRANCH  30  31
ENDBRANCH  29  30
ENDBRANCH   5  29
TORSDOF 5
ENDMDL
MODEL 9
REMARK VINA RESULT:      -7.7      3.306      7.986
REMARK  Name = 338063
REMARK  8 active torsions:
REMARK  status: ('A' for Active; 'I' for Inactive)
REMARK    1  A    between atoms: C_6  and  C_10
REMARK    2  A    between atoms: C_14  and  O_18
REMARK    3  A    between atoms: N_17  and  C_21
REMARK    4  A    between atoms: C_21  and  C_24
REMARK    5  A    between atoms: C_24  and  C_27
REMARK    6  A    between atoms: C_25  and  C_28
REMARK    7  A    between atoms: C_27  and  C_29
REMARK    8  A    between atoms: C_27  and  C_30
REMARK                            x       y       z     vdW  Elec       q    Type
REMARK                         _______ _______ _______ _____ _____    ______ ____
ROOT
ATOM      1  C   UNL     1     -10.126  54.161  51.164  0.00  0.00    +0.000 A 
ATOM      2  C   UNL     1     -10.607  53.891  49.773  0.00  0.00    +0.000 A 
ATOM      3  C   UNL     1     -10.837  54.961  51.976  0.00  0.00    +0.000 A 
ATOM      4  O   UNL     1      -9.985  53.069  49.091  0.00  0.00    +0.000 OA
ATOM      5  N   UNL     1     -11.737  54.556  49.313  0.00  0.00    +0.000 N 
ATOM      6  C   UNL     1     -12.097  55.561  51.515  0.00  0.00    +0.000 A 
ATOM      7  C   UNL     1     -12.544  55.331  50.205  0.00  0.00    +0.000 A 
ATOM      8  C   UNL     1     -12.875  56.349  52.389  0.00  0.00    +0.000 A 
ATOM      9  C   UNL     1     -13.790  55.851  49.823  0.00  0.00    +0.000 A 
ATOM     10  C   UNL     1     -14.092  56.902  51.980  0.00  0.00    +0.000 A 
ATOM     11  C   UNL     1     -14.547  56.640  50.691  0.00  0.00    +0.000 A 
ATOM     12  C   UNL     1     -14.922  57.728  52.915  0.00  0.00    +0.000 C 
ENDROOT
BRANCH   1  18
ATOM     13  S   UNL     1      -7.781  51.717  53.158  0.00  0.00    +0.000 S 
ATOM     14  O   UNL     1      -7.734  50.387  52.582  0.00  0.00    +0.000 OA
ATOM     15  O   UNL     1      -7.850  51.890  54.597  0.00  0.00    +0.000 OA
ATOM     16  N   UNL     1      -9.044  52.491  52.504  0.00  0.00    +0.000 N 
ATOM     17  C   UNL     1      -6.309  52.523  52.645  0.00  0.00    +0.000 A 
ATOM     18  C   UNL     1      -8.871  53.466  51.659  0.00  0.00    +0.000 C 
ATOM     19  C   UNL     1      -6.422  53.548  51.719  0.00  0.00    +0.000 A 
ATOM     20  C   UNL     1      -5.077  52.137  53.178  0.00  0.00    +0.000 A 
ATOM     21  N   UNL     1      -7.656  53.918  51.191  0.00  0.00    +0.000 N 
ATOM     22  C   UNL     1      -5.247  54.155  51.262  0.00  0.00    +0.000 A 
ATOM     23  C   UNL     1      -3.920  52.776  52.743  0.00  0.00    +0.000 A 
ATOM     24  C   UNL     1      -4.003  53.779  51.777  0.00  0.00    +0.000 A 
ATOM     25  H   UNL     1      -9.958  52.221  52.749  0.00  0.00    +0.000 HD
ATOM     26  H   UNL     1      -7.660  54.546  50.433  0.00  0.00    +0.000 HD
ENDBRANCH   1  18
BRANCH   3  27
ATOM     27  O   UNL     1     -10.494  55.247  53.287  0.00  0.00    +0.000 OA
ATOM     28  H   UNL     1     -10.704  56.083  53.655  0.00  0.00    +0.000 HD
ENDBRANCH   3  27
BRANCH   5  29
ATOM     29  C   UNL     1     -12.146  54.330  47.921  0.00  0.00    +0.000 C 
BRANCH  29  30
ATOM     30  C   UNL     1     -11.644  55.358  46.892  0.00  0.00    +0.000 C 
BRANCH  30  31
ATOM     31  C   UNL     1     -10.489  54.916  45.976  0.00  0.00    +0.000 C 
ATOM     32  C   UNL     1      -9.119  55.214  46.579  0.00  0.00    +0.000 C 
ATOM     33  C   UNL     1     -10.621  53.411  45.709  0.00  0.00    +0.000 C 
ENDBRANCH  30  31
ENDBRANCH  29  30
ENDBRANCH   5  29
TORSDOF 5
ENDMDL
