MODEL 1
REMARK VINA RESULT:      -8.4      0.000      0.000
REMARK  Name = 338264
REMARK  4 active torsions:
REMARK  status: ('A' for Active; 'I' for Inactive)
REMARK    1  A    between atoms: C_6  and  C_10
REMARK    2  A    between atoms: C_14  and  O_18
REMARK    3  A    between atoms: N_17  and  C_21
REMARK    4  A    between atoms: C_21  and  C_24
REMARK                            x       y       z     vdW  Elec       q    Type
REMARK                         _______ _______ _______ _____ _____    ______ ____
ROOT
ATOM      1  C   UNL     1     -10.264  54.337  52.243  0.00  0.00    +0.000 A 
ATOM      2  C   UNL     1      -8.867  54.853  52.120  0.00  0.00    +0.000 A 
ATOM      3  C   UNL     1     -10.507  53.251  52.991  0.00  0.00    +0.000 A 
ATOM      4  O   UNL     1      -8.700  56.009  51.723  0.00  0.00    +0.000 OA
ATOM      5  N   UNL     1      -7.819  54.002  52.453  0.00  0.00    +0.000 N 
ATOM      6  C   UNL     1      -9.390  52.567  53.671  0.00  0.00    +0.000 A 
ATOM      7  C   UNL     1      -8.060  52.911  53.349  0.00  0.00    +0.000 A 
ATOM      8  C   UNL     1      -9.635  51.588  54.649  0.00  0.00    +0.000 A 
ATOM      9  C   UNL     1      -7.012  52.236  53.993  0.00  0.00    +0.000 A 
ATOM     10  C   UNL     1      -8.581  50.965  55.314  0.00  0.00    +0.000 A 
ATOM     11  C   UNL     1      -7.271  51.284  54.980  0.00  0.00    +0.000 A 
ENDROOT
BRANCH   1  17
ATOM     12  S   UNL     1     -12.457  56.093  49.503  0.00  0.00    +0.000 S 
ATOM     13  O   UNL     1     -13.393  55.227  48.810  0.00  0.00    +0.000 OA
ATOM     14  O   UNL     1     -11.704  57.085  48.757  0.00  0.00    +0.000 OA
ATOM     15  N   UNL     1     -11.392  55.149  50.286  0.00  0.00    +0.000 N 
ATOM     16  C   UNL     1     -13.392  56.998  50.672  0.00  0.00    +0.000 A 
ATOM     17  C   UNL     1     -11.373  55.125  51.588  0.00  0.00    +0.000 C 
ATOM     18  C   UNL     1     -13.169  56.738  52.013  0.00  0.00    +0.000 A 
ATOM     19  C   UNL     1     -14.335  57.946  50.252  0.00  0.00    +0.000 A 
ATOM     20  N   UNL     1     -12.258  55.773  52.421  0.00  0.00    +0.000 N 
ATOM     21  C   UNL     1     -13.942  57.411  52.963  0.00  0.00    +0.000 A 
ATOM     22  C   UNL     1     -15.079  58.633  51.215  0.00  0.00    +0.000 A 
ATOM     23  C   UNL     1     -14.885  58.361  52.569  0.00  0.00    +0.000 A 
ATOM     24  H   UNL     1     -10.759  54.593  49.776  0.00  0.00    +0.000 HD
ATOM     25  H   UNL     1     -12.243  55.534  53.377  0.00  0.00    +0.000 HD
ENDBRANCH   1  17
BRANCH   3  26
ATOM     26  O   UNL     1     -11.763  52.719  53.222  0.00  0.00    +0.000 OA
ATOM     27  H   UNL     1     -12.427  53.244  53.624  0.00  0.00    +0.000 HD
ENDBRANCH   3  26
BRANCH   5  28
ATOM     28  C   UNL     1      -6.457  54.449  52.135  0.00  0.00    +0.000 C 
BRANCH  28  29
ATOM     29  C   UNL     1      -6.046  53.954  50.747  0.00  0.00    +0.000 C 
ATOM     30  C   UNL     1      -4.507  53.868  50.581  0.00  0.00    +0.000 C 
ATOM     31  C   UNL     1      -6.072  54.951  49.560  0.00  0.00    +0.000 C 
ATOM     32  C   UNL     1      -4.614  54.590  49.234  0.00  0.00    +0.000 C 
ENDBRANCH  28  29
ENDBRANCH   5  28
TORSDOF 4
ENDMDL
MODEL 2
REMARK VINA RESULT:      -8.3      3.321      5.114
REMARK  Name = 338264
REMARK  4 active torsions:
REMARK  status: ('A' for Active; 'I' for Inactive)
REMARK    1  A    between atoms: C_6  and  C_10
REMARK    2  A    between atoms: C_14  and  O_18
REMARK    3  A    between atoms: N_17  and  C_21
REMARK    4  A    between atoms: C_21  and  C_24
REMARK                            x       y       z     vdW  Elec       q    Type
REMARK                         _______ _______ _______ _____ _____    ______ ____
ROOT
ATOM      1  C   UNL     1     -11.851  56.095  48.534  0.00  0.00    +0.000 A 
ATOM      2  C   UNL     1     -10.774  55.424  49.323  0.00  0.00    +0.000 A 
ATOM      3  C   UNL     1     -12.045  55.755  47.251  0.00  0.00    +0.000 A 
ATOM      4  O   UNL     1     -10.818  55.490  50.554  0.00  0.00    +0.000 OA
ATOM      5  N   UNL     1      -9.766  54.762  48.631  0.00  0.00    +0.000 N 
ATOM      6  C   UNL     1     -11.179  54.735  46.628  0.00  0.00    +0.000 A 
ATOM      7  C   UNL     1     -10.020  54.296  47.301  0.00  0.00    +0.000 A 
ATOM      8  C   UNL     1     -11.506  54.182  45.378  0.00  0.00    +0.000 A 
ATOM      9  C   UNL     1      -9.201  53.340  46.683  0.00  0.00    +0.000 A 
ATOM     10  C   UNL     1     -10.707  53.196  44.803  0.00  0.00    +0.000 A 
ATOM     11  C   UNL     1      -9.551  52.781  45.452  0.00  0.00    +0.000 A 
ENDROOT
BRANCH   1  17
ATOM     12  S   UNL     1     -13.670  59.426  49.534  0.00  0.00    +0.000 S 
ATOM     13  O   UNL     1     -14.842  59.753  48.741  0.00  0.00    +0.000 OA
ATOM     14  O   UNL     1     -12.730  60.470  49.898  0.00  0.00    +0.000 OA
ATOM     15  N   UNL     1     -12.844  58.269  48.745  0.00  0.00    +0.000 N 
ATOM     16  C   UNL     1     -14.262  58.779  51.048  0.00  0.00    +0.000 A 
ATOM     17  C   UNL     1     -12.753  57.073  49.250  0.00  0.00    +0.000 C 
ATOM     18  C   UNL     1     -14.033  57.440  51.307  0.00  0.00    +0.000 A 
ATOM     19  C   UNL     1     -14.947  59.600  51.955  0.00  0.00    +0.000 A 
ATOM     20  N   UNL     1     -13.384  56.625  50.389  0.00  0.00    +0.000 N 
ATOM     21  C   UNL     1     -14.542  56.890  52.487  0.00  0.00    +0.000 A 
ATOM     22  C   UNL     1     -15.423  59.043  53.144  0.00  0.00    +0.000 A 
ATOM     23  C   UNL     1     -15.225  57.687  53.406  0.00  0.00    +0.000 A 
ATOM     24  H   UNL     1     -12.412  58.474  47.885  0.00  0.00    +0.000 HD
ATOM     25  H   UNL     1     -13.374  55.656  50.566  0.00  0.00    +0.000 HD
ENDBRANCH   1  17
BRANCH   3  26
ATOM     26  O   UNL     1     -13.045  56.266  46.443  0.00  0.00    +0.000 OA
ATOM     27  H   UNL     1     -13.122  57.191  46.323  0.00  0.00    +0.000 HD
ENDBRANCH   3  26
BRANCH   5  28
ATOM     28  C   UNL     1      -8.612  54.287  49.406  0.00  0.00    +0.000 C 
BRANCH  28  29
ATOM     29  C   UNL     1      -7.431  55.245  49.240  0.00  0.00    +0.000 C 
ATOM     30  C   UNL     1      -6.273  54.619  48.421  0.00  0.00    +0.000 C 
ATOM     31  C   UNL     1      -6.440  55.421  50.419  0.00  0.00    +0.000 C 
ATOM     32  C   UNL     1      -5.271  55.099  49.476  0.00  0.00    +0.000 C 
ENDBRANCH  28  29
ENDBRANCH   5  28
TORSDOF 4
ENDMDL
MODEL 3
REMARK VINA RESULT:      -8.3      2.632      7.832
REMARK  Name = 338264
REMARK  4 active torsions:
REMARK  status: ('A' for Active; 'I' for Inactive)
REMARK    1  A    between atoms: C_6  and  C_10
REMARK    2  A    between atoms: C_14  and  O_18
REMARK    3  A    between atoms: N_17  and  C_21
REMARK    4  A    between atoms: C_21  and  C_24
REMARK                            x       y       z     vdW  Elec       q    Type
REMARK                         _______ _______ _______ _____ _____    ______ ____
ROOT
ATOM      1  C   UNL     1     -10.933  54.772  50.654  0.00  0.00    +0.000 A 
ATOM      2  C   UNL     1     -12.014  55.420  51.458  0.00  0.00    +0.000 A 
ATOM      3  C   UNL     1     -10.936  54.893  49.318  0.00  0.00    +0.000 A 
ATOM      4  O   UNL     1     -11.827  55.589  52.666  0.00  0.00    +0.000 OA
ATOM      5  N   UNL     1     -13.183  55.797  50.807  0.00  0.00    +0.000 N 
ATOM      6  C   UNL     1     -12.016  55.650  48.656  0.00  0.00    +0.000 A 
ATOM      7  C   UNL     1     -13.152  56.040  49.396  0.00  0.00    +0.000 A 
ATOM      8  C   UNL     1     -11.919  56.003  47.299  0.00  0.00    +0.000 A 
ATOM      9  C   UNL     1     -14.176  56.743  48.744  0.00  0.00    +0.000 A 
ATOM     10  C   UNL     1     -12.923  56.745  46.681  0.00  0.00    +0.000 A 
ATOM     11  C   UNL     1     -14.055  57.107  47.402  0.00  0.00    +0.000 A 
ENDROOT
BRANCH   1  17
ATOM     12  S   UNL     1      -8.672  51.944  52.166  0.00  0.00    +0.000 S 
ATOM     13  O   UNL     1      -7.694  51.378  51.253  0.00  0.00    +0.000 OA
ATOM     14  O   UNL     1      -9.414  51.073  53.058  0.00  0.00    +0.000 OA
ATOM     15  N   UNL     1      -9.748  52.783  51.284  0.00  0.00    +0.000 N 
ATOM     16  C   UNL     1      -7.797  53.045  53.207  0.00  0.00    +0.000 A 
ATOM     17  C   UNL     1      -9.814  54.079  51.395  0.00  0.00    +0.000 C 
ATOM     18  C   UNL     1      -8.065  54.397  53.082  0.00  0.00    +0.000 A 
ATOM     19  C   UNL     1      -6.856  52.562  54.127  0.00  0.00    +0.000 A 
ATOM     20  N   UNL     1      -8.974  54.870  52.144  0.00  0.00    +0.000 N 
ATOM     21  C   UNL     1      -7.341  55.298  53.866  0.00  0.00    +0.000 A 
ATOM     22  C   UNL     1      -6.162  53.474  54.926  0.00  0.00    +0.000 A 
ATOM     23  C   UNL     1      -6.401  54.841  54.790  0.00  0.00    +0.000 A 
ATOM     24  H   UNL     1     -10.351  52.312  50.665  0.00  0.00    +0.000 HD
ATOM     25  H   UNL     1      -9.020  55.845  52.005  0.00  0.00    +0.000 HD
ENDBRANCH   1  17
BRANCH   3  26
ATOM     26  O   UNL     1      -9.960  54.387  48.480  0.00  0.00    +0.000 OA
ATOM     27  H   UNL     1      -9.055  54.496  48.696  0.00  0.00    +0.000 HD
ENDBRANCH   3  26
BRANCH   5  28
ATOM     28  C   UNL     1     -14.308  56.241  51.640  0.00  0.00    +0.000 C 
BRANCH  28  29
ATOM     29  C   UNL     1     -14.032  57.637  52.203  0.00  0.00    +0.000 C 
ATOM     30  C   UNL     1     -14.911  57.961  53.438  0.00  0.00    +0.000 C 
ATOM     31  C   UNL     1     -14.658  58.866  51.494  0.00  0.00    +0.000 C 
ATOM     32  C   UNL     1     -15.256  59.325  52.833  0.00  0.00    +0.000 C 
ENDBRANCH  28  29
ENDBRANCH   5  28
TORSDOF 4
ENDMDL
MODEL 4
REMARK VINA RESULT:      -8.2      2.650      7.778
REMARK  Name = 338264
REMARK  4 active torsions:
REMARK  status: ('A' for Active; 'I' for Inactive)
REMARK    1  A    between atoms: C_6  and  C_10
REMARK    2  A    between atoms: C_14  and  O_18
REMARK    3  A    between atoms: N_17  and  C_21
REMARK    4  A    between atoms: C_21  and  C_24
REMARK                            x       y       z     vdW  Elec       q    Type
REMARK                         _______ _______ _______ _____ _____    ______ ____
ROOT
ATOM      1  C   UNL     1     -10.164  54.636  51.108  0.00  0.00    +0.000 A 
ATOM      2  C   UNL     1     -11.425  55.274  51.592  0.00  0.00    +0.000 A 
ATOM      3  C   UNL     1      -9.914  54.574  49.791  0.00  0.00    +0.000 A 
ATOM      4  O   UNL     1     -11.491  55.623  52.774  0.00  0.00    +0.000 OA
ATOM      5  N   UNL     1     -12.469  55.439  50.689  0.00  0.00    +0.000 N 
ATOM      6  C   UNL     1     -10.896  55.121  48.836  0.00  0.00    +0.000 A 
ATOM      7  C   UNL     1     -12.181  55.490  49.288  0.00  0.00    +0.000 A 
ATOM      8  C   UNL     1     -10.562  55.295  47.482  0.00  0.00    +0.000 A 
ATOM      9  C   UNL     1     -13.106  55.991  48.360  0.00  0.00    +0.000 A 
ATOM     10  C   UNL     1     -11.478  55.841  46.585  0.00  0.00    +0.000 A 
ATOM     11  C   UNL     1     -12.752  56.181  47.023  0.00  0.00    +0.000 A 
ENDROOT
BRANCH   1  17
ATOM     12  S   UNL     1      -6.803  54.166  53.079  0.00  0.00    +0.000 S 
ATOM     13  O   UNL     1      -6.504  55.204  54.049  0.00  0.00    +0.000 OA
ATOM     14  O   UNL     1      -5.746  53.642  52.234  0.00  0.00    +0.000 OA
ATOM     15  N   UNL     1      -7.985  54.718  52.109  0.00  0.00    +0.000 N 
ATOM     16  C   UNL     1      -7.399  52.795  53.989  0.00  0.00    +0.000 A 
ATOM     17  C   UNL     1      -9.163  54.166  52.137  0.00  0.00    +0.000 C 
ATOM     18  C   UNL     1      -8.728  52.448  53.830  0.00  0.00    +0.000 A 
ATOM     19  C   UNL     1      -6.549  52.086  54.849  0.00  0.00    +0.000 A 
ATOM     20  N   UNL     1      -9.573  53.176  53.003  0.00  0.00    +0.000 N 
ATOM     21  C   UNL     1      -9.238  51.389  54.587  0.00  0.00    +0.000 A 
ATOM     22  C   UNL     1      -7.066  51.011  55.576  0.00  0.00    +0.000 A 
ATOM     23  C   UNL     1      -8.412  50.668  55.448  0.00  0.00    +0.000 A 
ATOM     24  H   UNL     1      -7.809  55.470  51.500  0.00  0.00    +0.000 HD
ATOM     25  H   UNL     1     -10.536  52.969  53.037  0.00  0.00    +0.000 HD
ENDBRANCH   1  17
BRANCH   3  26
ATOM     26  O   UNL     1      -8.758  54.060  49.233  0.00  0.00    +0.000 OA
ATOM     27  H   UNL     1      -8.622  54.112  48.308  0.00  0.00    +0.000 HD
ENDBRANCH   3  26
BRANCH   5  28
ATOM     28  C   UNL     1     -13.765  55.876  51.225  0.00  0.00    +0.000 C 
BRANCH  28  29
ATOM     29  C   UNL     1     -13.741  57.379  51.512  0.00  0.00    +0.000 C 
ATOM     30  C   UNL     1     -14.239  57.716  52.941  0.00  0.00    +0.000 C 
ATOM     31  C   UNL     1     -14.884  58.265  50.955  0.00  0.00    +0.000 C 
ATOM     32  C   UNL     1     -15.135  58.817  52.367  0.00  0.00    +0.000 C 
ENDBRANCH  28  29
ENDBRANCH   5  28
TORSDOF 4
ENDMDL
MODEL 5
REMARK VINA RESULT:      -8.1      3.191      7.064
REMARK  Name = 338264
REMARK  4 active torsions:
REMARK  status: ('A' for Active; 'I' for Inactive)
REMARK    1  A    between atoms: C_6  and  C_10
REMARK    2  A    between atoms: C_14  and  O_18
REMARK    3  A    between atoms: N_17  and  C_21
REMARK    4  A    between atoms: C_21  and  C_24
REMARK                            x       y       z     vdW  Elec       q    Type
REMARK                         _______ _______ _______ _____ _____    ______ ____
ROOT
ATOM      1  C   UNL     1     -10.349  55.076  50.936  0.00  0.00    +0.000 A 
ATOM      2  C   UNL     1     -10.010  54.853  49.498  0.00  0.00    +0.000 A 
ATOM      3  C   UNL     1     -11.522  55.642  51.262  0.00  0.00    +0.000 A 
ATOM      4  O   UNL     1      -9.113  54.052  49.223  0.00  0.00    +0.000 OA
ATOM      5  N   UNL     1     -10.716  55.566  48.536  0.00  0.00    +0.000 N 
ATOM      6  C   UNL     1     -12.454  56.053  50.195  0.00  0.00    +0.000 A 
ATOM      7  C   UNL     1     -12.020  56.067  48.853  0.00  0.00    +0.000 A 
ATOM      8  C   UNL     1     -13.778  56.416  50.499  0.00  0.00    +0.000 A 
ATOM      9  C   UNL     1     -12.917  56.479  47.856  0.00  0.00    +0.000 A 
ATOM     10  C   UNL     1     -14.669  56.774  49.489  0.00  0.00    +0.000 A 
ATOM     11  C   UNL     1     -14.236  56.813  48.170  0.00  0.00    +0.000 A 
ENDROOT
BRANCH   1  17
ATOM     12  S   UNL     1      -7.082  54.566  53.050  0.00  0.00    +0.000 S 
ATOM     13  O   UNL     1      -6.871  55.538  54.108  0.00  0.00    +0.000 OA
ATOM     14  O   UNL     1      -5.965  54.139  52.229  0.00  0.00    +0.000 OA
ATOM     15  N   UNL     1      -8.230  55.151  52.059  0.00  0.00    +0.000 N 
ATOM     16  C   UNL     1      -7.676  53.114  53.824  0.00  0.00    +0.000 A 
ATOM     17  C   UNL     1      -9.389  54.563  51.982  0.00  0.00    +0.000 C 
ATOM     18  C   UNL     1      -8.983  52.738  53.568  0.00  0.00    +0.000 A 
ATOM     19  C   UNL     1      -6.849  52.370  54.676  0.00  0.00    +0.000 A 
ATOM     20  N   UNL     1      -9.808  53.499  52.750  0.00  0.00    +0.000 N 
ATOM     21  C   UNL     1      -9.494  51.610  54.216  0.00  0.00    +0.000 A 
ATOM     22  C   UNL     1      -7.365  51.228  55.293  0.00  0.00    +0.000 A 
ATOM     23  C   UNL     1      -8.689  50.853  55.067  0.00  0.00    +0.000 A 
ATOM     24  H   UNL     1      -8.049  55.952  51.516  0.00  0.00    +0.000 HD
ATOM     25  H   UNL     1     -10.763  53.260  52.716  0.00  0.00    +0.000 HD
ENDBRANCH   1  17
BRANCH   3  26
ATOM     26  O   UNL     1     -11.966  55.844  52.556  0.00  0.00    +0.000 OA
ATOM     27  H   UNL     1     -11.515  56.443  53.117  0.00  0.00    +0.000 HD
ENDBRANCH   3  26
BRANCH   5  28
ATOM     28  C   UNL     1     -10.237  55.491  47.150  0.00  0.00    +0.000 C 
BRANCH  28  29
ATOM     29  C   UNL     1     -10.566  54.123  46.548  0.00  0.00    +0.000 C 
ATOM     30  C   UNL     1      -9.512  53.668  45.505  0.00  0.00    +0.000 C 
ATOM     31  C   UNL     1     -11.639  54.036  45.433  0.00  0.00    +0.000 C 
ATOM     32  C   UNL     1     -10.638  53.291  44.537  0.00  0.00    +0.000 C 
ENDBRANCH  28  29
ENDBRANCH   5  28
TORSDOF 4
ENDMDL
MODEL 6
REMARK VINA RESULT:      -8.0      2.016      2.567
REMARK  Name = 338264
REMARK  4 active torsions:
REMARK  status: ('A' for Active; 'I' for Inactive)
REMARK    1  A    between atoms: C_6  and  C_10
REMARK    2  A    between atoms: C_14  and  O_18
REMARK    3  A    between atoms: N_17  and  C_21
REMARK    4  A    between atoms: C_21  and  C_24
REMARK                            x       y       z     vdW  Elec       q    Type
REMARK                         _______ _______ _______ _____ _____    ______ ____
ROOT
ATOM      1  C   UNL     1     -11.456  54.020  51.388  0.00  0.00    +0.000 A 
ATOM      2  C   UNL     1     -10.541  54.180  52.559  0.00  0.00    +0.000 A 
ATOM      3  C   UNL     1     -11.540  52.833  50.768  0.00  0.00    +0.000 A 
ATOM      4  O   UNL     1     -10.713  55.140  53.313  0.00  0.00    +0.000 OA
ATOM      5  N   UNL     1      -9.532  53.240  52.739  0.00  0.00    +0.000 N 
ATOM      6  C   UNL     1     -10.713  51.705  51.237  0.00  0.00    +0.000 A 
ATOM      7  C   UNL     1      -9.681  51.934  52.171  0.00  0.00    +0.000 A 
ATOM      8  C   UNL     1     -10.953  50.398  50.776  0.00  0.00    +0.000 A 
ATOM      9  C   UNL     1      -8.895  50.851  52.590  0.00  0.00    +0.000 A 
ATOM     10  C   UNL     1     -10.194  49.327  51.243  0.00  0.00    +0.000 A 
ATOM     11  C   UNL     1      -9.160  49.555  52.143  0.00  0.00    +0.000 A 
ENDROOT
BRANCH   1  17
ATOM     12  S   UNL     1     -13.048  56.950  49.319  0.00  0.00    +0.000 S 
ATOM     13  O   UNL     1     -14.092  56.556  48.390  0.00  0.00    +0.000 OA
ATOM     14  O   UNL     1     -12.059  57.933  48.918  0.00  0.00    +0.000 OA
ATOM     15  N   UNL     1     -12.256  55.606  49.776  0.00  0.00    +0.000 N 
ATOM     16  C   UNL     1     -13.858  57.640  50.709  0.00  0.00    +0.000 A 
ATOM     17  C   UNL     1     -12.333  55.188  51.006  0.00  0.00    +0.000 C 
ATOM     18  C   UNL     1     -13.786  56.947  51.903  0.00  0.00    +0.000 A 
ATOM     19  C   UNL     1     -14.555  58.851  50.599  0.00  0.00    +0.000 A 
ATOM     20  N   UNL     1     -13.122  55.731  51.996  0.00  0.00    +0.000 N 
ATOM     21  C   UNL     1     -14.468  57.453  53.013  0.00  0.00    +0.000 A 
ATOM     22  C   UNL     1     -15.207  59.360  51.725  0.00  0.00    +0.000 A 
ATOM     23  C   UNL     1     -15.167  58.657  52.929  0.00  0.00    +0.000 A 
ATOM     24  H   UNL     1     -11.717  55.107  49.120  0.00  0.00    +0.000 HD
ATOM     25  H   UNL     1     -13.222  55.218  52.832  0.00  0.00    +0.000 HD
ENDBRANCH   1  17
BRANCH   3  26
ATOM     26  O   UNL     1     -12.391  52.554  49.714  0.00  0.00    +0.000 OA
ATOM     27  H   UNL     1     -12.169  51.886  49.097  0.00  0.00    +0.000 HD
ENDBRANCH   3  26
BRANCH   5  28
ATOM     28  C   UNL     1      -8.521  53.522  53.766  0.00  0.00    +0.000 C 
BRANCH  28  29
ATOM     29  C   UNL     1      -7.346  54.290  53.158  0.00  0.00    +0.000 C 
ATOM     30  C   UNL     1      -5.974  53.735  53.620  0.00  0.00    +0.000 C 
ATOM     31  C   UNL     1      -6.947  55.656  53.773  0.00  0.00    +0.000 C 
ATOM     32  C   UNL     1      -5.500  55.160  53.921  0.00  0.00    +0.000 C 
ENDBRANCH  28  29
ENDBRANCH   5  28
TORSDOF 4
ENDMDL
MODEL 7
REMARK VINA RESULT:      -7.9      3.777      4.626
REMARK  Name = 338264
REMARK  4 active torsions:
REMARK  status: ('A' for Active; 'I' for Inactive)
REMARK    1  A    between atoms: C_6  and  C_10
REMARK    2  A    between atoms: C_14  and  O_18
REMARK    3  A    between atoms: N_17  and  C_21
REMARK    4  A    between atoms: C_21  and  C_24
REMARK                            x       y       z     vdW  Elec       q    Type
REMARK                         _______ _______ _______ _____ _____    ______ ____
ROOT
ATOM      1  C   UNL     1     -12.208  54.316  49.975  0.00  0.00    +0.000 A 
ATOM      2  C   UNL     1     -11.314  54.441  48.783  0.00  0.00    +0.000 A 
ATOM      3  C   UNL     1     -12.142  53.217  50.741  0.00  0.00    +0.000 A 
ATOM      4  O   UNL     1     -11.140  55.561  48.294  0.00  0.00    +0.000 OA
ATOM      5  N   UNL     1     -10.726  53.288  48.277  0.00  0.00    +0.000 N 
ATOM      6  C   UNL     1     -11.202  52.136  50.388  0.00  0.00    +0.000 A 
ATOM      7  C   UNL     1     -10.552  52.156  49.136  0.00  0.00    +0.000 A 
ATOM      8  C   UNL     1     -10.932  51.094  51.293  0.00  0.00    +0.000 A 
ATOM      9  C   UNL     1      -9.675  51.109  48.812  0.00  0.00    +0.000 A 
ATOM     10  C   UNL     1     -10.020  50.091  50.973  0.00  0.00    +0.000 A 
ATOM     11  C   UNL     1      -9.398  50.094  49.730  0.00  0.00    +0.000 A 
ENDROOT
BRANCH   1  17
ATOM     12  S   UNL     1     -15.314  56.405  51.152  0.00  0.00    +0.000 S 
ATOM     13  O   UNL     1     -15.444  56.565  52.590  0.00  0.00    +0.000 OA
ATOM     14  O   UNL     1     -16.491  56.131  50.347  0.00  0.00    +0.000 OA
ATOM     15  N   UNL     1     -14.239  55.217  50.879  0.00  0.00    +0.000 N 
ATOM     16  C   UNL     1     -14.671  57.914  50.543  0.00  0.00    +0.000 A 
ATOM     17  C   UNL     1     -13.092  55.488  50.328  0.00  0.00    +0.000 C 
ATOM     18  C   UNL     1     -13.388  57.902  50.025  0.00  0.00    +0.000 A 
ATOM     19  C   UNL     1     -15.437  59.086  50.588  0.00  0.00    +0.000 A 
ATOM     20  N   UNL     1     -12.622  56.744  50.014  0.00  0.00    +0.000 N 
ATOM     21  C   UNL     1     -12.835  59.107  49.581  0.00  0.00    +0.000 A 
ATOM     22  C   UNL     1     -14.882  60.277  50.112  0.00  0.00    +0.000 A 
ATOM     23  C   UNL     1     -13.579  60.286  49.614  0.00  0.00    +0.000 A 
ATOM     24  H   UNL     1     -14.456  54.290  51.131  0.00  0.00    +0.000 HD
ATOM     25  H   UNL     1     -11.672  56.827  49.765  0.00  0.00    +0.000 HD
ENDBRANCH   1  17
BRANCH   3  26
ATOM     26  O   UNL     1     -12.877  53.017  51.896  0.00  0.00    +0.000 OA
ATOM     27  H   UNL     1     -13.722  52.616  51.849  0.00  0.00    +0.000 HD
ENDBRANCH   3  26
BRANCH   5  28
ATOM     28  C   UNL     1     -10.021  53.396  46.993  0.00  0.00    +0.000 C 
BRANCH  28  29
ATOM     29  C   UNL     1     -10.791  52.650  45.901  0.00  0.00    +0.000 C 
ATOM     30  C   UNL     1      -9.863  51.783  45.011  0.00  0.00    +0.000 C 
ATOM     31  C   UNL     1     -11.214  53.423  44.625  0.00  0.00    +0.000 C 
ATOM     32  C   UNL     1     -10.540  52.347  43.759  0.00  0.00    +0.000 C 
ENDBRANCH  28  29
ENDBRANCH   5  28
TORSDOF 4
ENDMDL
MODEL 8
REMARK VINA RESULT:      -7.8      2.091      2.646
REMARK  Name = 338264
REMARK  4 active torsions:
REMARK  status: ('A' for Active; 'I' for Inactive)
REMARK    1  A    between atoms: C_6  and  C_10
REMARK    2  A    between atoms: C_14  and  O_18
REMARK    3  A    between atoms: N_17  and  C_21
REMARK    4  A    between atoms: C_21  and  C_24
REMARK                            x       y       z     vdW  Elec       q    Type
REMARK                         _______ _______ _______ _____ _____    ______ ____
ROOT
ATOM      1  C   UNL     1     -10.811  55.031  50.782  0.00  0.00    +0.000 A 
ATOM      2  C   UNL     1      -9.633  55.383  49.932  0.00  0.00    +0.000 A 
ATOM      3  C   UNL     1     -10.720  54.018  51.657  0.00  0.00    +0.000 A 
ATOM      4  O   UNL     1      -9.609  56.491  49.391  0.00  0.00    +0.000 OA
ATOM      5  N   UNL     1      -8.622  54.440  49.784  0.00  0.00    +0.000 N 
ATOM      6  C   UNL     1      -9.463  53.252  51.757  0.00  0.00    +0.000 A 
ATOM      7  C   UNL     1      -8.456  53.430  50.786  0.00  0.00    +0.000 A 
ATOM      8  C   UNL     1      -9.249  52.358  52.821  0.00  0.00    +0.000 A 
ATOM      9  C   UNL     1      -7.276  52.678  50.889  0.00  0.00    +0.000 A 
ATOM     10  C   UNL     1      -8.050  51.657  52.934  0.00  0.00    +0.000 A 
ATOM     11  C   UNL     1      -7.068  51.812  51.964  0.00  0.00    +0.000 A 
ENDROOT
BRANCH   1  17
ATOM     12  S   UNL     1     -13.644  57.315  49.312  0.00  0.00    +0.000 S 
ATOM     13  O   UNL     1     -14.756  56.608  48.704  0.00  0.00    +0.000 OA
ATOM     14  O   UNL     1     -13.108  58.503  48.673  0.00  0.00    +0.000 OA
ATOM     15  N   UNL     1     -12.423  56.258  49.496  0.00  0.00    +0.000 N 
ATOM     16  C   UNL     1     -14.193  57.839  50.888  0.00  0.00    +0.000 A 
ATOM     17  C   UNL     1     -12.042  55.902  50.688  0.00  0.00    +0.000 C 
ATOM     18  C   UNL     1     -13.609  57.256  51.999  0.00  0.00    +0.000 A 
ATOM     19  C   UNL     1     -15.194  58.813  51.008  0.00  0.00    +0.000 A 
ATOM     20  N   UNL     1     -12.642  56.267  51.873  0.00  0.00    +0.000 N 
ATOM     21  C   UNL     1     -14.069  57.621  53.267  0.00  0.00    +0.000 A 
ATOM     22  C   UNL     1     -15.622  59.190  52.283  0.00  0.00    +0.000 A 
ATOM     23  C   UNL     1     -15.063  58.589  53.411  0.00  0.00    +0.000 A 
ATOM     24  H   UNL     1     -11.972  55.886  48.704  0.00  0.00    +0.000 HD
ATOM     25  H   UNL     1     -12.366  55.792  52.690  0.00  0.00    +0.000 HD
ENDBRANCH   1  17
BRANCH   3  26
ATOM     26  O   UNL     1     -11.722  53.641  52.532  0.00  0.00    +0.000 OA
ATOM     27  H   UNL     1     -12.403  53.067  52.244  0.00  0.00    +0.000 HD
ENDBRANCH   3  26
BRANCH   5  28
ATOM     28  C   UNL     1      -7.578  54.717  48.790  0.00  0.00    +0.000 C 
BRANCH  28  29
ATOM     29  C   UNL     1      -7.911  54.029  47.465  0.00  0.00    +0.000 C 
ATOM     30  C   UNL     1      -8.219  55.043  46.333  0.00  0.00    +0.000 C 
ATOM     31  C   UNL     1      -9.333  53.444  47.263  0.00  0.00    +0.000 C 
ATOM     32  C   UNL     1      -9.468  54.240  45.956  0.00  0.00    +0.000 C 
ENDBRANCH  28  29
ENDBRANCH   5  28
TORSDOF 4
ENDMDL
MODEL 9
REMARK VINA RESULT:      -7.8      1.950      2.358
REMARK  Name = 338264
REMARK  4 active torsions:
REMARK  status: ('A' for Active; 'I' for Inactive)
REMARK    1  A    between atoms: C_6  and  C_10
REMARK    2  A    between atoms: C_14  and  O_18
REMARK    3  A    between atoms: N_17  and  C_21
REMARK    4  A    between atoms: C_21  and  C_24
REMARK                            x       y       z     vdW  Elec       q    Type
REMARK                         _______ _______ _______ _____ _____    ______ ____
ROOT
ATOM      1  C   UNL     1      -9.062  55.021  51.473  0.00  0.00    +0.000 A 
ATOM      2  C   UNL     1      -7.971  55.254  50.478  0.00  0.00    +0.000 A 
ATOM      3  C   UNL     1      -8.751  54.771  52.753  0.00  0.00    +0.000 A 
ATOM      4  O   UNL     1      -8.257  55.801  49.410  0.00  0.00    +0.000 OA
ATOM      5  N   UNL     1      -6.686  54.836  50.801  0.00  0.00    +0.000 N 
ATOM      6  C   UNL     1      -7.334  54.712  53.162  0.00  0.00    +0.000 A 
ATOM      7  C   UNL     1      -6.323  54.685  52.178  0.00  0.00    +0.000 A 
ATOM      8  C   UNL     1      -6.978  54.699  54.522  0.00  0.00    +0.000 A 
ATOM      9  C   UNL     1      -4.983  54.610  52.587  0.00  0.00    +0.000 A 
ATOM     10  C   UNL     1      -5.640  54.675  54.908  0.00  0.00    +0.000 A 
ATOM     11  C   UNL     1      -4.644  54.622  53.941  0.00  0.00    +0.000 A 
ENDROOT
BRANCH   1  17
ATOM     12  S   UNL     1     -12.233  55.075  49.161  0.00  0.00    +0.000 S 
ATOM     13  O   UNL     1     -12.868  53.786  48.951  0.00  0.00    +0.000 OA
ATOM     14  O   UNL     1     -12.079  55.993  48.048  0.00  0.00    +0.000 OA
ATOM     15  N   UNL     1     -10.759  54.806  49.789  0.00  0.00    +0.000 N 
ATOM     16  C   UNL     1     -13.213  55.923  50.336  0.00  0.00    +0.000 A 
ATOM     17  C   UNL     1     -10.492  55.172  51.010  0.00  0.00    +0.000 C 
ATOM     18  C   UNL     1     -12.662  56.156  51.584  0.00  0.00    +0.000 A 
ATOM     19  C   UNL     1     -14.511  56.342  50.014  0.00  0.00    +0.000 A 
ATOM     20  N   UNL     1     -11.388  55.708  51.907  0.00  0.00    +0.000 N 
ATOM     21  C   UNL     1     -13.446  56.785  52.555  0.00  0.00    +0.000 A 
ATOM     22  C   UNL     1     -15.272  56.997  50.986  0.00  0.00    +0.000 A 
ATOM     23  C   UNL     1     -14.740  57.213  52.257  0.00  0.00    +0.000 A 
ATOM     24  H   UNL     1     -10.066  54.365  49.246  0.00  0.00    +0.000 HD
ATOM     25  H   UNL     1     -11.105  55.779  52.848  0.00  0.00    +0.000 HD
ENDBRANCH   1  17
BRANCH   3  26
ATOM     26  O   UNL     1      -9.674  54.597  53.769  0.00  0.00    +0.000 OA
ATOM     27  H   UNL     1      -9.604  53.861  54.344  0.00  0.00    +0.000 HD
ENDBRANCH   3  26
BRANCH   5  28
ATOM     28  C   UNL     1      -5.671  54.885  49.740  0.00  0.00    +0.000 C 
BRANCH  28  29
ATOM     29  C   UNL     1      -5.594  53.538  49.017  0.00  0.00    +0.000 C 
ATOM     30  C   UNL     1      -4.306  52.752  49.369  0.00  0.00    +0.000 C 
ATOM     31  C   UNL     1      -5.149  53.511  47.533  0.00  0.00    +0.000 C 
ATOM     32  C   UNL     1      -4.072  52.473  47.882  0.00  0.00    +0.000 C 
ENDBRANCH  28  29
ENDBRANCH   5  28
TORSDOF 4
ENDMDL
