MODEL 1
REMARK VINA RESULT:      -7.7      0.000      0.000
REMARK  Name = 300958
REMARK  6 active torsions:
REMARK  status: ('A' for Active; 'I' for Inactive)
REMARK    1  A    between atoms: C_6  and  C_10
REMARK    2  A    between atoms: C_14  and  O_18
REMARK    3  A    between atoms: N_17  and  C_21
REMARK    4  A    between atoms: C_21  and  C_24
REMARK    5  A    between atoms: C_24  and  C_27
REMARK    6  A    between atoms: C_27  and  C_28
REMARK                            x       y       z     vdW  Elec       q    Type
REMARK                         _______ _______ _______ _____ _____    ______ ____
ROOT
ATOM      1  C   UNL     1     -11.677  56.105  48.613  0.00  0.00    +0.000 A 
ATOM      2  C   UNL     1     -10.514  55.534  49.360  0.00  0.00    +0.000 A 
ATOM      3  C   UNL     1     -11.922  55.711  47.351  0.00  0.00    +0.000 A 
ATOM      4  O   UNL     1     -10.387  55.834  50.554  0.00  0.00    +0.000 OA
ATOM      5  N   UNL     1      -9.638  54.684  48.696  0.00  0.00    +0.000 N 
ATOM      6  C   UNL     1     -11.064  54.705  46.706  0.00  0.00    +0.000 A 
ATOM      7  C   UNL     1      -9.947  54.190  47.389  0.00  0.00    +0.000 A 
ATOM      8  C   UNL     1     -11.365  54.233  45.415  0.00  0.00    +0.000 A 
ATOM      9  C   UNL     1      -9.191  53.181  46.772  0.00  0.00    +0.000 A 
ATOM     10  C   UNL     1     -10.582  53.257  44.807  0.00  0.00    +0.000 A 
ATOM     11  C   UNL     1      -9.497  52.727  45.487  0.00  0.00    +0.000 A 
ENDROOT
BRANCH   1  17
ATOM     12  S   UNL     1     -13.630  59.397  49.516  0.00  0.00    +0.000 S 
ATOM     13  O   UNL     1     -14.793  59.607  48.675  0.00  0.00    +0.000 OA
ATOM     14  O   UNL     1     -12.771  60.509  49.865  0.00  0.00    +0.000 OA
ATOM     15  N   UNL     1     -12.715  58.259  48.813  0.00  0.00    +0.000 N 
ATOM     16  C   UNL     1     -14.238  58.758  51.034  0.00  0.00    +0.000 A 
ATOM     17  C   UNL     1     -12.612  57.067  49.323  0.00  0.00    +0.000 C 
ATOM     18  C   UNL     1     -13.976  57.429  51.329  0.00  0.00    +0.000 A 
ATOM     19  C   UNL     1     -14.948  59.585  51.909  0.00  0.00    +0.000 A 
ATOM     20  N   UNL     1     -13.271  56.615  50.446  0.00  0.00    +0.000 N 
ATOM     21  C   UNL     1     -14.508  56.899  52.507  0.00  0.00    +0.000 A 
ATOM     22  C   UNL     1     -15.440  59.052  53.098  0.00  0.00    +0.000 A 
ATOM     23  C   UNL     1     -15.230  57.706  53.392  0.00  0.00    +0.000 A 
ATOM     24  H   UNL     1     -12.228  58.474  47.985  0.00  0.00    +0.000 HD
ATOM     25  H   UNL     1     -13.242  55.650  50.638  0.00  0.00    +0.000 HD
ENDBRANCH   1  17
BRANCH   3  26
ATOM     26  O   UNL     1     -12.987  56.152  46.586  0.00  0.00    +0.000 OA
ATOM     27  H   UNL     1     -13.710  56.585  46.995  0.00  0.00    +0.000 HD
ENDBRANCH   3  26
BRANCH   5  28
ATOM     28  C   UNL     1      -8.474  54.186  49.442  0.00  0.00    +0.000 C 
BRANCH  28  29
ATOM     29  C   UNL     1      -7.167  54.973  49.263  0.00  0.00    +0.000 C 
BRANCH  29  30
ATOM     30  C   UNL     1      -6.868  55.997  50.353  0.00  0.00    +0.000 C 
ATOM     31  C   UNL     1      -7.072  55.365  51.725  0.00  0.00    +0.000 C 
ENDBRANCH  29  30
ENDBRANCH  28  29
ENDBRANCH   5  28
TORSDOF 5
ENDMDL
MODEL 2
REMARK VINA RESULT:      -7.7      3.370      5.756
REMARK  Name = 300958
REMARK  6 active torsions:
REMARK  status: ('A' for Active; 'I' for Inactive)
REMARK    1  A    between atoms: C_6  and  C_10
REMARK    2  A    between atoms: C_14  and  O_18
REMARK    3  A    between atoms: N_17  and  C_21
REMARK    4  A    between atoms: C_21  and  C_24
REMARK    5  A    between atoms: C_24  and  C_27
REMARK    6  A    between atoms: C_27  and  C_28
REMARK                            x       y       z     vdW  Elec       q    Type
REMARK                         _______ _______ _______ _____ _____    ______ ____
ROOT
ATOM      1  C   UNL     1     -10.190  54.437  52.192  0.00  0.00    +0.000 A 
ATOM      2  C   UNL     1      -8.774  54.921  52.174  0.00  0.00    +0.000 A 
ATOM      3  C   UNL     1     -10.513  53.334  52.888  0.00  0.00    +0.000 A 
ATOM      4  O   UNL     1      -8.537  56.000  51.617  0.00  0.00    +0.000 OA
ATOM      5  N   UNL     1      -7.793  54.155  52.791  0.00  0.00    +0.000 N 
ATOM      6  C   UNL     1      -9.485  52.609  53.651  0.00  0.00    +0.000 A 
ATOM      7  C   UNL     1      -8.145  53.036  53.610  0.00  0.00    +0.000 A 
ATOM      8  C   UNL     1      -9.835  51.500  54.445  0.00  0.00    +0.000 A 
ATOM      9  C   UNL     1      -7.203  52.364  54.405  0.00  0.00    +0.000 A 
ATOM     10  C   UNL     1      -8.879  50.826  55.198  0.00  0.00    +0.000 A 
ATOM     11  C   UNL     1      -7.563  51.261  55.183  0.00  0.00    +0.000 A 
ENDROOT
BRANCH   1  17
ATOM     12  S   UNL     1     -13.480  56.499  51.564  0.00  0.00    +0.000 S 
ATOM     13  O   UNL     1     -13.369  57.878  52.000  0.00  0.00    +0.000 OA
ATOM     14  O   UNL     1     -14.694  55.750  51.811  0.00  0.00    +0.000 OA
ATOM     15  N   UNL     1     -12.244  55.677  52.216  0.00  0.00    +0.000 N 
ATOM     16  C   UNL     1     -13.270  56.523  49.822  0.00  0.00    +0.000 A 
ATOM     17  C   UNL     1     -11.258  55.250  51.483  0.00  0.00    +0.000 C 
ATOM     18  C   UNL     1     -12.101  55.990  49.302  0.00  0.00    +0.000 A 
ATOM     19  C   UNL     1     -14.270  57.054  49.002  0.00  0.00    +0.000 A 
ATOM     20  N   UNL     1     -11.110  55.468  50.130  0.00  0.00    +0.000 N 
ATOM     21  C   UNL     1     -11.901  56.061  47.920  0.00  0.00    +0.000 A 
ATOM     22  C   UNL     1     -14.074  57.084  47.623  0.00  0.00    +0.000 A 
ATOM     23  C   UNL     1     -12.884  56.597  47.083  0.00  0.00    +0.000 A 
ATOM     24  H   UNL     1     -12.240  55.497  53.184  0.00  0.00    +0.000 HD
ATOM     25  H   UNL     1     -10.245  55.239  49.721  0.00  0.00    +0.000 HD
ENDBRANCH   1  17
BRANCH   3  26
ATOM     26  O   UNL     1     -11.794  52.824  52.997  0.00  0.00    +0.000 OA
ATOM     27  H   UNL     1     -11.931  51.897  52.989  0.00  0.00    +0.000 HD
ENDBRANCH   3  26
BRANCH   5  28
ATOM     28  C   UNL     1      -6.405  54.628  52.706  0.00  0.00    +0.000 C 
BRANCH  28  29
ATOM     29  C   UNL     1      -5.900  55.469  53.888  0.00  0.00    +0.000 C 
BRANCH  29  30
ATOM     30  C   UNL     1      -4.464  55.189  54.320  0.00  0.00    +0.000 C 
ATOM     31  C   UNL     1      -3.927  53.974  53.571  0.00  0.00    +0.000 C 
ENDBRANCH  29  30
ENDBRANCH  28  29
ENDBRANCH   5  28
TORSDOF 5
ENDMDL
MODEL 3
REMARK VINA RESULT:      -7.6      3.448      6.853
REMARK  Name = 300958
REMARK  6 active torsions:
REMARK  status: ('A' for Active; 'I' for Inactive)
REMARK    1  A    between atoms: C_6  and  C_10
REMARK    2  A    between atoms: C_14  and  O_18
REMARK    3  A    between atoms: N_17  and  C_21
REMARK    4  A    between atoms: C_21  and  C_24
REMARK    5  A    between atoms: C_24  and  C_27
REMARK    6  A    between atoms: C_27  and  C_28
REMARK                            x       y       z     vdW  Elec       q    Type
REMARK                         _______ _______ _______ _____ _____    ______ ____
ROOT
ATOM      1  C   UNL     1     -10.231  55.156  50.837  0.00  0.00    +0.000 A 
ATOM      2  C   UNL     1      -9.823  55.070  49.400  0.00  0.00    +0.000 A 
ATOM      3  C   UNL     1     -11.434  55.657  51.164  0.00  0.00    +0.000 A 
ATOM      4  O   UNL     1      -8.759  54.500  49.132  0.00  0.00    +0.000 OA
ATOM      5  N   UNL     1     -10.656  55.614  48.430  0.00  0.00    +0.000 N 
ATOM      6  C   UNL     1     -12.364  56.105  50.114  0.00  0.00    +0.000 A 
ATOM      7  C   UNL     1     -11.974  56.061  48.763  0.00  0.00    +0.000 A 
ATOM      8  C   UNL     1     -13.654  56.556  50.449  0.00  0.00    +0.000 A 
ATOM      9  C   UNL     1     -12.909  56.429  47.784  0.00  0.00    +0.000 A 
ATOM     10  C   UNL     1     -14.555  56.950  49.464  0.00  0.00    +0.000 A 
ATOM     11  C   UNL     1     -14.185  56.882  48.130  0.00  0.00    +0.000 A 
ENDROOT
BRANCH   1  17
ATOM     12  S   UNL     1      -7.039  54.628  53.072  0.00  0.00    +0.000 S 
ATOM     13  O   UNL     1      -6.935  55.603  54.140  0.00  0.00    +0.000 OA
ATOM     14  O   UNL     1      -5.862  54.234  52.326  0.00  0.00    +0.000 OA
ATOM     15  N   UNL     1      -8.142  55.171  52.016  0.00  0.00    +0.000 N 
ATOM     16  C   UNL     1      -7.657  53.161  53.813  0.00  0.00    +0.000 A 
ATOM     17  C   UNL     1      -9.305  54.600  51.903  0.00  0.00    +0.000 C 
ATOM     18  C   UNL     1      -8.955  52.780  53.508  0.00  0.00    +0.000 A 
ATOM     19  C   UNL     1      -6.845  52.410  54.667  0.00  0.00    +0.000 A 
ATOM     20  N   UNL     1      -9.755  53.540  52.659  0.00  0.00    +0.000 N 
ATOM     21  C   UNL     1      -9.474  51.646  54.142  0.00  0.00    +0.000 A 
ATOM     22  C   UNL     1      -7.363  51.262  55.261  0.00  0.00    +0.000 A 
ATOM     23  C   UNL     1      -8.681  50.886  55.007  0.00  0.00    +0.000 A 
ATOM     24  H   UNL     1      -7.927  55.947  51.450  0.00  0.00    +0.000 HD
ATOM     25  H   UNL     1     -10.708  53.303  52.595  0.00  0.00    +0.000 HD
ENDBRANCH   1  17
BRANCH   3  26
ATOM     26  O   UNL     1     -11.920  55.750  52.456  0.00  0.00    +0.000 OA
ATOM     27  H   UNL     1     -12.344  55.014  52.850  0.00  0.00    +0.000 HD
ENDBRANCH   3  26
BRANCH   5  28
ATOM     28  C   UNL     1     -10.199  55.565  47.034  0.00  0.00    +0.000 C 
BRANCH  28  29
ATOM     29  C   UNL     1     -10.356  54.216  46.316  0.00  0.00    +0.000 C 
BRANCH  29  30
ATOM     30  C   UNL     1     -11.579  54.098  45.412  0.00  0.00    +0.000 C 
ATOM     31  C   UNL     1     -11.620  52.712  44.778  0.00  0.00    +0.000 C 
ENDBRANCH  29  30
ENDBRANCH  28  29
ENDBRANCH   5  28
TORSDOF 5
ENDMDL
MODEL 4
REMARK VINA RESULT:      -7.6      3.411      6.969
REMARK  Name = 300958
REMARK  6 active torsions:
REMARK  status: ('A' for Active; 'I' for Inactive)
REMARK    1  A    between atoms: C_6  and  C_10
REMARK    2  A    between atoms: C_14  and  O_18
REMARK    3  A    between atoms: N_17  and  C_21
REMARK    4  A    between atoms: C_21  and  C_24
REMARK    5  A    between atoms: C_24  and  C_27
REMARK    6  A    between atoms: C_27  and  C_28
REMARK                            x       y       z     vdW  Elec       q    Type
REMARK                         _______ _______ _______ _____ _____    ______ ____
ROOT
ATOM      1  C   UNL     1     -10.099  54.830  50.959  0.00  0.00    +0.000 A 
ATOM      2  C   UNL     1     -11.426  55.318  51.448  0.00  0.00    +0.000 A 
ATOM      3  C   UNL     1      -9.838  54.803  49.642  0.00  0.00    +0.000 A 
ATOM      4  O   UNL     1     -11.588  55.436  52.668  0.00  0.00    +0.000 OA
ATOM      5  N   UNL     1     -12.411  55.634  50.519  0.00  0.00    +0.000 N 
ATOM      6  C   UNL     1     -10.843  55.270  48.674  0.00  0.00    +0.000 A 
ATOM      7  C   UNL     1     -12.107  55.697  49.122  0.00  0.00    +0.000 A 
ATOM      8  C   UNL     1     -10.543  55.317  47.300  0.00  0.00    +0.000 A 
ATOM      9  C   UNL     1     -13.016  56.203  48.180  0.00  0.00    +0.000 A 
ATOM     10  C   UNL     1     -11.473  55.789  46.378  0.00  0.00    +0.000 A 
ATOM     11  C   UNL     1     -12.708  56.237  46.818  0.00  0.00    +0.000 A 
ENDROOT
BRANCH   1  17
ATOM     12  S   UNL     1      -6.701  54.787  52.939  0.00  0.00    +0.000 S 
ATOM     13  O   UNL     1      -6.621  55.834  53.938  0.00  0.00    +0.000 OA
ATOM     14  O   UNL     1      -5.551  54.472  52.117  0.00  0.00    +0.000 OA
ATOM     15  N   UNL     1      -7.938  55.141  51.953  0.00  0.00    +0.000 N 
ATOM     16  C   UNL     1      -7.093  53.314  53.810  0.00  0.00    +0.000 A 
ATOM     17  C   UNL     1      -9.035  54.445  51.972  0.00  0.00    +0.000 C 
ATOM     18  C   UNL     1      -8.361  52.779  53.639  0.00  0.00    +0.000 A 
ATOM     19  C   UNL     1      -6.138  52.709  54.631  0.00  0.00    +0.000 A 
ATOM     20  N   UNL     1      -9.305  53.394  52.821  0.00  0.00    +0.000 N 
ATOM     21  C   UNL     1      -8.699  51.640  54.376  0.00  0.00    +0.000 A 
ATOM     22  C   UNL     1      -6.477  51.553  55.330  0.00  0.00    +0.000 A 
ATOM     23  C   UNL     1      -7.762  51.024  55.211  0.00  0.00    +0.000 A 
ATOM     24  H   UNL     1      -7.856  55.898  51.328  0.00  0.00    +0.000 HD
ATOM     25  H   UNL     1     -10.228  53.054  52.852  0.00  0.00    +0.000 HD
ENDBRANCH   1  17
BRANCH   3  26
ATOM     26  O   UNL     1      -8.634  54.402  49.090  0.00  0.00    +0.000 OA
ATOM     27  H   UNL     1      -8.120  55.009  48.597  0.00  0.00    +0.000 HD
ENDBRANCH   3  26
BRANCH   5  28
ATOM     28  C   UNL     1     -13.722  56.055  51.032  0.00  0.00    +0.000 C 
BRANCH  28  29
ATOM     29  C   UNL     1     -13.858  57.538  51.412  0.00  0.00    +0.000 C 
BRANCH  29  30
ATOM     30  C   UNL     1     -14.332  57.804  52.837  0.00  0.00    +0.000 C 
ATOM     31  C   UNL     1     -15.161  59.083  52.874  0.00  0.00    +0.000 C 
ENDBRANCH  29  30
ENDBRANCH  28  29
ENDBRANCH   5  28
TORSDOF 5
ENDMDL
MODEL 5
REMARK VINA RESULT:      -7.5      3.149      3.862
REMARK  Name = 300958
REMARK  6 active torsions:
REMARK  status: ('A' for Active; 'I' for Inactive)
REMARK    1  A    between atoms: C_6  and  C_10
REMARK    2  A    between atoms: C_14  and  O_18
REMARK    3  A    between atoms: N_17  and  C_21
REMARK    4  A    between atoms: C_21  and  C_24
REMARK    5  A    between atoms: C_24  and  C_27
REMARK    6  A    between atoms: C_27  and  C_28
REMARK                            x       y       z     vdW  Elec       q    Type
REMARK                         _______ _______ _______ _____ _____    ______ ____
ROOT
ATOM      1  C   UNL     1     -11.572  54.039  51.186  0.00  0.00    +0.000 A 
ATOM      2  C   UNL     1     -10.652  54.059  52.365  0.00  0.00    +0.000 A 
ATOM      3  C   UNL     1     -11.671  52.932  50.431  0.00  0.00    +0.000 A 
ATOM      4  O   UNL     1     -10.673  55.054  53.101  0.00  0.00    +0.000 OA
ATOM      5  N   UNL     1      -9.829  52.963  52.596  0.00  0.00    +0.000 N 
ATOM      6  C   UNL     1     -10.894  51.729  50.769  0.00  0.00    +0.000 A 
ATOM      7  C   UNL     1      -9.999  51.751  51.854  0.00  0.00    +0.000 A 
ATOM      8  C   UNL     1     -11.055  50.544  50.028  0.00  0.00    +0.000 A 
ATOM      9  C   UNL     1      -9.326  50.567  52.193  0.00  0.00    +0.000 A 
ATOM     10  C   UNL     1     -10.351  49.389  50.358  0.00  0.00    +0.000 A 
ATOM     11  C   UNL     1      -9.490  49.399  51.444  0.00  0.00    +0.000 A 
ENDROOT
BRANCH   1  17
ATOM     12  S   UNL     1     -13.227  57.063  49.293  0.00  0.00    +0.000 S 
ATOM     13  O   UNL     1     -14.315  56.654  48.426  0.00  0.00    +0.000 OA
ATOM     14  O   UNL     1     -12.279  58.066  48.853  0.00  0.00    +0.000 OA
ATOM     15  N   UNL     1     -12.395  55.733  49.699  0.00  0.00    +0.000 N 
ATOM     16  C   UNL     1     -13.979  57.709  50.742  0.00  0.00    +0.000 A 
ATOM     17  C   UNL     1     -12.442  55.251  50.906  0.00  0.00    +0.000 C 
ATOM     18  C   UNL     1     -13.870  56.973  51.911  0.00  0.00    +0.000 A 
ATOM     19  C   UNL     1     -14.648  58.936  50.698  0.00  0.00    +0.000 A 
ATOM     20  N   UNL     1     -13.204  55.750  51.941  0.00  0.00    +0.000 N 
ATOM     21  C   UNL     1     -14.517  57.452  53.054  0.00  0.00    +0.000 A 
ATOM     22  C   UNL     1     -15.257  59.419  51.854  0.00  0.00    +0.000 A 
ATOM     23  C   UNL     1     -15.201  58.672  53.030  0.00  0.00    +0.000 A 
ATOM     24  H   UNL     1     -11.844  55.282  49.020  0.00  0.00    +0.000 HD
ATOM     25  H   UNL     1     -13.284  55.205  52.756  0.00  0.00    +0.000 HD
ENDBRANCH   1  17
BRANCH   3  26
ATOM     26  O   UNL     1     -12.514  52.799  49.342  0.00  0.00    +0.000 OA
ATOM     27  H   UNL     1     -13.432  52.956  49.439  0.00  0.00    +0.000 HD
ENDBRANCH   3  26
BRANCH   5  28
ATOM     28  C   UNL     1      -8.896  53.038  53.728  0.00  0.00    +0.000 C 
BRANCH  28  29
ATOM     29  C   UNL     1      -7.519  53.652  53.433  0.00  0.00    +0.000 C 
BRANCH  29  30
ATOM     30  C   UNL     1      -6.501  53.542  54.563  0.00  0.00    +0.000 C 
ATOM     31  C   UNL     1      -5.595  54.768  54.564  0.00  0.00    +0.000 C 
ENDBRANCH  29  30
ENDBRANCH  28  29
ENDBRANCH   5  28
TORSDOF 5
ENDMDL
MODEL 6
REMARK VINA RESULT:      -7.4      2.135      2.681
REMARK  Name = 300958
REMARK  6 active torsions:
REMARK  status: ('A' for Active; 'I' for Inactive)
REMARK    1  A    between atoms: C_6  and  C_10
REMARK    2  A    between atoms: C_14  and  O_18
REMARK    3  A    between atoms: N_17  and  C_21
REMARK    4  A    between atoms: C_21  and  C_24
REMARK    5  A    between atoms: C_24  and  C_27
REMARK    6  A    between atoms: C_27  and  C_28
REMARK                            x       y       z     vdW  Elec       q    Type
REMARK                         _______ _______ _______ _____ _____    ______ ____
ROOT
ATOM      1  C   UNL     1     -10.794  55.389  47.986  0.00  0.00    +0.000 A 
ATOM      2  C   UNL     1      -9.328  55.243  48.239  0.00  0.00    +0.000 A 
ATOM      3  C   UNL     1     -11.333  54.900  46.856  0.00  0.00    +0.000 A 
ATOM      4  O   UNL     1      -8.889  55.604  49.338  0.00  0.00    +0.000 OA
ATOM      5  N   UNL     1      -8.524  54.696  47.245  0.00  0.00    +0.000 N 
ATOM      6  C   UNL     1     -10.490  54.201  45.873  0.00  0.00    +0.000 A 
ATOM      7  C   UNL     1      -9.104  54.090  46.086  0.00  0.00    +0.000 A 
ATOM      8  C   UNL     1     -11.064  53.618  44.728  0.00  0.00    +0.000 A 
ATOM      9  C   UNL     1      -8.341  53.357  45.164  0.00  0.00    +0.000 A 
ATOM     10  C   UNL     1     -10.283  52.924  43.807  0.00  0.00    +0.000 A 
ATOM     11  C   UNL     1      -8.922  52.789  44.028  0.00  0.00    +0.000 A 
ENDROOT
BRANCH   1  17
ATOM     12  S   UNL     1     -12.926  55.827  51.262  0.00  0.00    +0.000 S 
ATOM     13  O   UNL     1     -12.108  56.077  52.433  0.00  0.00    +0.000 OA
ATOM     14  O   UNL     1     -14.064  54.934  51.342  0.00  0.00    +0.000 OA
ATOM     15  N   UNL     1     -11.949  55.287  50.087  0.00  0.00    +0.000 N 
ATOM     16  C   UNL     1     -13.567  57.387  50.776  0.00  0.00    +0.000 A 
ATOM     17  C   UNL     1     -11.669  56.024  49.052  0.00  0.00    +0.000 C 
ATOM     18  C   UNL     1     -13.081  57.951  49.606  0.00  0.00    +0.000 A 
ATOM     19  C   UNL     1     -14.545  58.016  51.550  0.00  0.00    +0.000 A 
ATOM     20  N   UNL     1     -12.102  57.316  48.846  0.00  0.00    +0.000 N 
ATOM     21  C   UNL     1     -13.542  59.220  49.245  0.00  0.00    +0.000 A 
ATOM     22  C   UNL     1     -15.024  59.264  51.158  0.00  0.00    +0.000 A 
ATOM     23  C   UNL     1     -14.514  59.871  50.011  0.00  0.00    +0.000 A 
ATOM     24  H   UNL     1     -11.561  54.385  50.157  0.00  0.00    +0.000 HD
ATOM     25  H   UNL     1     -11.691  57.825  48.111  0.00  0.00    +0.000 HD
ENDBRANCH   1  17
BRANCH   3  26
ATOM     26  O   UNL     1     -12.679  54.954  46.542  0.00  0.00    +0.000 OA
ATOM     27  H   UNL     1     -13.004  54.492  45.795  0.00  0.00    +0.000 HD
ENDBRANCH   3  26
BRANCH   5  28
ATOM     28  C   UNL     1      -7.080  54.620  47.502  0.00  0.00    +0.000 C 
BRANCH  28  29
ATOM     29  C   UNL     1      -6.591  53.378  48.263  0.00  0.00    +0.000 C 
BRANCH  29  30
ATOM     30  C   UNL     1      -5.585  53.651  49.377  0.00  0.00    +0.000 C 
ATOM     31  C   UNL     1      -5.326  55.150  49.483  0.00  0.00    +0.000 C 
ENDBRANCH  29  30
ENDBRANCH  28  29
ENDBRANCH   5  28
TORSDOF 5
ENDMDL
MODEL 7
REMARK VINA RESULT:      -7.2      3.049      7.342
REMARK  Name = 300958
REMARK  6 active torsions:
REMARK  status: ('A' for Active; 'I' for Inactive)
REMARK    1  A    between atoms: C_6  and  C_10
REMARK    2  A    between atoms: C_14  and  O_18
REMARK    3  A    between atoms: N_17  and  C_21
REMARK    4  A    between atoms: C_21  and  C_24
REMARK    5  A    between atoms: C_24  and  C_27
REMARK    6  A    between atoms: C_27  and  C_28
REMARK                            x       y       z     vdW  Elec       q    Type
REMARK                         _______ _______ _______ _____ _____    ______ ____
ROOT
ATOM      1  C   UNL     1     -11.084  54.654  48.152  0.00  0.00    +0.000 A 
ATOM      2  C   UNL     1     -10.844  54.224  49.564  0.00  0.00    +0.000 A 
ATOM      3  C   UNL     1     -11.988  55.611  47.886  0.00  0.00    +0.000 A 
ATOM      4  O   UNL     1      -9.925  53.424  49.780  0.00  0.00    +0.000 OA
ATOM      5  N   UNL     1     -11.643  54.750  50.573  0.00  0.00    +0.000 N 
ATOM      6  C   UNL     1     -12.731  56.257  48.980  0.00  0.00    +0.000 A 
ATOM      7  C   UNL     1     -12.537  55.835  50.307  0.00  0.00    +0.000 A 
ATOM      8  C   UNL     1     -13.620  57.315  48.712  0.00  0.00    +0.000 A 
ATOM      9  C   UNL     1     -13.208  56.519  51.333  0.00  0.00    +0.000 A 
ATOM     10  C   UNL     1     -14.303  57.957  49.740  0.00  0.00    +0.000 A 
ATOM     11  C   UNL     1     -14.093  57.562  51.052  0.00  0.00    +0.000 A 
ENDROOT
BRANCH   1  17
ATOM     12  S   UNL     1      -8.021  53.928  45.793  0.00  0.00    +0.000 S 
ATOM     13  O   UNL     1      -7.052  53.030  46.393  0.00  0.00    +0.000 OA
ATOM     14  O   UNL     1      -7.578  55.082  45.039  0.00  0.00    +0.000 OA
ATOM     15  N   UNL     1      -9.005  54.448  46.972  0.00  0.00    +0.000 N 
ATOM     16  C   UNL     1      -8.962  52.952  44.678  0.00  0.00    +0.000 A 
ATOM     17  C   UNL     1     -10.241  54.051  47.042  0.00  0.00    +0.000 C 
ATOM     18  C   UNL     1     -10.280  52.678  45.011  0.00  0.00    +0.000 A 
ATOM     19  C   UNL     1      -8.385  52.488  43.493  0.00  0.00    +0.000 A 
ATOM     20  N   UNL     1     -10.841  53.143  46.198  0.00  0.00    +0.000 N 
ATOM     21  C   UNL     1     -11.016  51.852  44.157  0.00  0.00    +0.000 A 
ATOM     22  C   UNL     1      -9.144  51.696  42.633  0.00  0.00    +0.000 A 
ATOM     23  C   UNL     1     -10.456  51.369  42.970  0.00  0.00    +0.000 A 
ATOM     24  H   UNL     1      -8.659  55.077  47.647  0.00  0.00    +0.000 HD
ATOM     25  H   UNL     1     -11.728  52.798  46.450  0.00  0.00    +0.000 HD
ENDBRANCH   1  17
BRANCH   3  26
ATOM     26  O   UNL     1     -12.261  56.102  46.622  0.00  0.00    +0.000 OA
ATOM     27  H   UNL     1     -13.147  56.160  46.323  0.00  0.00    +0.000 HD
ENDBRANCH   3  26
BRANCH   5  28
ATOM     28  C   UNL     1     -11.419  54.265  51.942  0.00  0.00    +0.000 C 
BRANCH  28  29
ATOM     29  C   UNL     1     -10.300  54.958  52.733  0.00  0.00    +0.000 C 
BRANCH  29  30
ATOM     30  C   UNL     1      -9.371  54.023  53.501  0.00  0.00    +0.000 C 
ATOM     31  C   UNL     1     -10.014  52.646  53.629  0.00  0.00    +0.000 C 
ENDBRANCH  29  30
ENDBRANCH  28  29
ENDBRANCH   5  28
TORSDOF 5
ENDMDL
MODEL 8
REMARK VINA RESULT:      -7.2      3.303      7.069
REMARK  Name = 300958
REMARK  6 active torsions:
REMARK  status: ('A' for Active; 'I' for Inactive)
REMARK    1  A    between atoms: C_6  and  C_10
REMARK    2  A    between atoms: C_14  and  O_18
REMARK    3  A    between atoms: N_17  and  C_21
REMARK    4  A    between atoms: C_21  and  C_24
REMARK    5  A    between atoms: C_24  and  C_27
REMARK    6  A    between atoms: C_27  and  C_28
REMARK                            x       y       z     vdW  Elec       q    Type
REMARK                         _______ _______ _______ _____ _____    ______ ____
ROOT
ATOM      1  C   UNL     1     -10.937  54.992  50.932  0.00  0.00    +0.000 A 
ATOM      2  C   UNL     1     -12.076  55.638  51.655  0.00  0.00    +0.000 A 
ATOM      3  C   UNL     1     -10.884  55.033  49.590  0.00  0.00    +0.000 A 
ATOM      4  O   UNL     1     -12.032  55.678  52.890  0.00  0.00    +0.000 OA
ATOM      5  N   UNL     1     -13.123  56.179  50.916  0.00  0.00    +0.000 N 
ATOM      6  C   UNL     1     -11.931  55.729  48.825  0.00  0.00    +0.000 A 
ATOM      7  C   UNL     1     -13.024  56.308  49.494  0.00  0.00    +0.000 A 
ATOM      8  C   UNL     1     -11.836  55.842  47.426  0.00  0.00    +0.000 A 
ATOM      9  C   UNL     1     -13.968  57.025  48.742  0.00  0.00    +0.000 A 
ATOM     10  C   UNL     1     -12.802  56.527  46.694  0.00  0.00    +0.000 A 
ATOM     11  C   UNL     1     -13.866  57.123  47.352  0.00  0.00    +0.000 A 
ENDROOT
BRANCH   1  17
ATOM     12  S   UNL     1      -8.873  52.356  52.996  0.00  0.00    +0.000 S 
ATOM     13  O   UNL     1      -8.192  51.393  52.153  0.00  0.00    +0.000 OA
ATOM     14  O   UNL     1      -9.527  51.927  54.215  0.00  0.00    +0.000 OA
ATOM     15  N   UNL     1      -9.971  53.121  52.081  0.00  0.00    +0.000 N 
ATOM     16  C   UNL     1      -7.654  53.521  53.485  0.00  0.00    +0.000 A 
ATOM     17  C   UNL     1      -9.813  54.364  51.736  0.00  0.00    +0.000 C 
ATOM     18  C   UNL     1      -7.728  54.799  52.952  0.00  0.00    +0.000 A 
ATOM     19  C   UNL     1      -6.658  53.154  54.395  0.00  0.00    +0.000 A 
ATOM     20  N   UNL     1      -8.723  55.150  52.043  0.00  0.00    +0.000 N 
ATOM     21  C   UNL     1      -6.726  55.713  53.290  0.00  0.00    +0.000 A 
ATOM     22  C   UNL     1      -5.687  54.088  54.752  0.00  0.00    +0.000 A 
ATOM     23  C   UNL     1      -5.715  55.364  54.191  0.00  0.00    +0.000 A 
ATOM     24  H   UNL     1     -10.773  52.634  51.782  0.00  0.00    +0.000 HD
ATOM     25  H   UNL     1      -8.641  56.019  51.588  0.00  0.00    +0.000 HD
ENDBRANCH   1  17
BRANCH   3  26
ATOM     26  O   UNL     1      -9.860  54.497  48.830  0.00  0.00    +0.000 OA
ATOM     27  H   UNL     1      -9.038  54.291  49.229  0.00  0.00    +0.000 HD
ENDBRANCH   3  26
BRANCH   5  28
ATOM     28  C   UNL     1     -14.253  56.754  51.657  0.00  0.00    +0.000 C 
BRANCH  28  29
ATOM     29  C   UNL     1     -13.966  58.043  52.441  0.00  0.00    +0.000 C 
BRANCH  29  30
ATOM     30  C   UNL     1     -15.018  59.139  52.301  0.00  0.00    +0.000 C 
ATOM     31  C   UNL     1     -15.104  59.590  50.847  0.00  0.00    +0.000 C 
ENDBRANCH  29  30
ENDBRANCH  28  29
ENDBRANCH   5  28
TORSDOF 5
ENDMDL
MODEL 9
REMARK VINA RESULT:      -7.2      3.222      6.932
REMARK  Name = 300958
REMARK  6 active torsions:
REMARK  status: ('A' for Active; 'I' for Inactive)
REMARK    1  A    between atoms: C_6  and  C_10
REMARK    2  A    between atoms: C_14  and  O_18
REMARK    3  A    between atoms: N_17  and  C_21
REMARK    4  A    between atoms: C_21  and  C_24
REMARK    5  A    between atoms: C_24  and  C_27
REMARK    6  A    between atoms: C_27  and  C_28
REMARK                            x       y       z     vdW  Elec       q    Type
REMARK                         _______ _______ _______ _____ _____    ______ ____
ROOT
ATOM      1  C   UNL     1     -10.369  54.895  50.093  0.00  0.00    +0.000 A 
ATOM      2  C   UNL     1     -10.247  54.636  48.624  0.00  0.00    +0.000 A 
ATOM      3  C   UNL     1     -11.352  55.686  50.555  0.00  0.00    +0.000 A 
ATOM      4  O   UNL     1      -9.402  53.814  48.248  0.00  0.00    +0.000 OA
ATOM      5  N   UNL     1     -11.091  55.310  47.750  0.00  0.00    +0.000 N 
ATOM      6  C   UNL     1     -12.324  56.284  49.627  0.00  0.00    +0.000 A 
ATOM      7  C   UNL     1     -12.195  56.076  48.242  0.00  0.00    +0.000 A 
ATOM      8  C   UNL     1     -13.400  57.048  50.115  0.00  0.00    +0.000 A 
ATOM      9  C   UNL     1     -13.179  56.602  47.390  0.00  0.00    +0.000 A 
ATOM     10  C   UNL     1     -14.346  57.591  49.251  0.00  0.00    +0.000 A 
ATOM     11  C   UNL     1     -14.238  57.364  47.888  0.00  0.00    +0.000 A 
ENDROOT
BRANCH   1  17
ATOM     12  S   UNL     1      -8.665  52.052  52.211  0.00  0.00    +0.000 S 
ATOM     13  O   UNL     1      -7.743  51.248  51.431  0.00  0.00    +0.000 OA
ATOM     14  O   UNL     1      -9.553  51.425  53.167  0.00  0.00    +0.000 OA
ATOM     15  N   UNL     1      -9.571  52.906  51.173  0.00  0.00    +0.000 N 
ATOM     16  C   UNL     1      -7.673  53.172  53.130  0.00  0.00    +0.000 A 
ATOM     17  C   UNL     1      -9.421  54.192  51.048  0.00  0.00    +0.000 C 
ATOM     18  C   UNL     1      -7.709  54.511  52.774  0.00  0.00    +0.000 A 
ATOM     19  C   UNL     1      -6.893  52.708  54.192  0.00  0.00    +0.000 A 
ATOM     20  N   UNL     1      -8.488  54.960  51.710  0.00  0.00    +0.000 N 
ATOM     21  C   UNL     1      -6.876  55.398  53.463  0.00  0.00    +0.000 A 
ATOM     22  C   UNL     1      -6.097  53.610  54.895  0.00  0.00    +0.000 A 
ATOM     23  C   UNL     1      -6.080  54.953  54.523  0.00  0.00    +0.000 A 
ATOM     24  H   UNL     1     -10.247  52.443  50.627  0.00  0.00    +0.000 HD
ATOM     25  H   UNL     1      -8.362  55.889  51.411  0.00  0.00    +0.000 HD
ENDBRANCH   1  17
BRANCH   3  26
ATOM     26  O   UNL     1     -11.571  55.962  51.893  0.00  0.00    +0.000 OA
ATOM     27  H   UNL     1     -12.437  55.909  52.246  0.00  0.00    +0.000 HD
ENDBRANCH   3  26
BRANCH   5  28
ATOM     28  C   UNL     1     -10.907  55.077  46.311  0.00  0.00    +0.000 C 
BRANCH  28  29
ATOM     29  C   UNL     1     -11.710  53.917  45.702  0.00  0.00    +0.000 C 
BRANCH  29  30
ATOM     30  C   UNL     1     -10.996  53.136  44.604  0.00  0.00    +0.000 C 
ATOM     31  C   UNL     1      -9.487  53.305  44.748  0.00  0.00    +0.000 C 
ENDBRANCH  29  30
ENDBRANCH  28  29
ENDBRANCH   5  28
TORSDOF 5
ENDMDL
