MODEL 1
REMARK VINA RESULT:      -8.9      0.000      0.000
REMARK  Name = 338075
REMARK  4 active torsions:
REMARK  status: ('A' for Active; 'I' for Inactive)
REMARK    1  A    between atoms: C_6  and  C_10
REMARK    2  A    between atoms: C_14  and  O_18
REMARK    3  A    between atoms: N_17  and  C_21
REMARK    4  A    between atoms: C_21  and  C_24
REMARK                            x       y       z     vdW  Elec       q    Type
REMARK                         _______ _______ _______ _____ _____    ______ ____
ROOT
ATOM      1  C   UNL     1     -10.215  54.493  52.208  0.00  0.00    +0.000 A 
ATOM      2  C   UNL     1      -8.821  54.995  52.016  0.00  0.00    +0.000 A 
ATOM      3  C   UNL     1     -10.438  53.403  52.965  0.00  0.00    +0.000 A 
ATOM      4  O   UNL     1      -8.644  55.966  51.274  0.00  0.00    +0.000 OA
ATOM      5  N   UNL     1      -7.787  54.376  52.699  0.00  0.00    +0.000 N 
ATOM      6  C   UNL     1      -9.322  52.716  53.631  0.00  0.00    +0.000 A 
ATOM      7  C   UNL     1      -8.013  53.218  53.506  0.00  0.00    +0.000 A 
ATOM      8  C   UNL     1      -9.555  51.574  54.416  0.00  0.00    +0.000 A 
ATOM      9  C   UNL     1      -6.972  52.560  54.183  0.00  0.00    +0.000 A 
ATOM     10  C   UNL     1      -8.513  50.937  55.086  0.00  0.00    +0.000 A 
ATOM     11  C   UNL     1      -7.221  51.433  54.970  0.00  0.00    +0.000 A 
ENDROOT
BRANCH   1  17
ATOM     12  S   UNL     1     -12.610  56.106  49.536  0.00  0.00    +0.000 S 
ATOM     13  O   UNL     1     -13.525  55.139  48.967  0.00  0.00    +0.000 OA
ATOM     14  O   UNL     1     -11.975  57.104  48.693  0.00  0.00    +0.000 OA
ATOM     15  N   UNL     1     -11.442  55.286  50.304  0.00  0.00    +0.000 N 
ATOM     16  C   UNL     1     -13.532  57.004  50.731  0.00  0.00    +0.000 A 
ATOM     17  C   UNL     1     -11.366  55.277  51.602  0.00  0.00    +0.000 C 
ATOM     18  C   UNL     1     -13.229  56.803  52.068  0.00  0.00    +0.000 A 
ATOM     19  C   UNL     1     -14.531  57.892  50.322  0.00  0.00    +0.000 A 
ATOM     20  N   UNL     1     -12.239  55.909  52.462  0.00  0.00    +0.000 N 
ATOM     21  C   UNL     1     -14.006  57.465  53.027  0.00  0.00    +0.000 A 
ATOM     22  C   UNL     1     -15.271  58.572  51.286  0.00  0.00    +0.000 A 
ATOM     23  C   UNL     1     -15.015  58.350  52.639  0.00  0.00    +0.000 A 
ATOM     24  H   UNL     1     -10.777  54.785  49.777  0.00  0.00    +0.000 HD
ATOM     25  H   UNL     1     -12.156  55.713  53.423  0.00  0.00    +0.000 HD
ENDBRANCH   1  17
BRANCH   3  26
ATOM     26  O   UNL     1     -11.689  52.876  53.227  0.00  0.00    +0.000 OA
ATOM     27  H   UNL     1     -12.235  53.269  53.880  0.00  0.00    +0.000 HD
ENDBRANCH   3  26
BRANCH   5  28
ATOM     28  C   UNL     1      -6.445  54.946  52.549  0.00  0.00    +0.000 C 
BRANCH  28  29
ATOM     29  C   UNL     1      -5.681  54.417  51.355  0.00  0.00    +0.000 A 
ATOM     30  C   UNL     1      -5.715  55.057  50.113  0.00  0.00    +0.000 A 
ATOM     31  C   UNL     1      -4.890  53.270  51.482  0.00  0.00    +0.000 A 
ATOM     32  C   UNL     1      -5.040  54.485  49.047  0.00  0.00    +0.000 A 
ATOM     33  C   UNL     1      -4.241  52.779  50.360  0.00  0.00    +0.000 A 
ATOM     34  N   UNL     1      -4.310  53.353  49.142  0.00  0.00    +0.000 NA
ENDBRANCH  28  29
ENDBRANCH   5  28
TORSDOF 4
ENDMDL
MODEL 2
REMARK VINA RESULT:      -8.7      3.524      7.192
REMARK  Name = 338075
REMARK  4 active torsions:
REMARK  status: ('A' for Active; 'I' for Inactive)
REMARK    1  A    between atoms: C_6  and  C_10
REMARK    2  A    between atoms: C_14  and  O_18
REMARK    3  A    between atoms: N_17  and  C_21
REMARK    4  A    between atoms: C_21  and  C_24
REMARK                            x       y       z     vdW  Elec       q    Type
REMARK                         _______ _______ _______ _____ _____    ______ ____
ROOT
ATOM      1  C   UNL     1     -10.206  55.237  50.737  0.00  0.00    +0.000 A 
ATOM      2  C   UNL     1      -9.746  55.257  49.316  0.00  0.00    +0.000 A 
ATOM      3  C   UNL     1     -11.446  55.659  51.048  0.00  0.00    +0.000 A 
ATOM      4  O   UNL     1      -8.586  54.913  49.070  0.00  0.00    +0.000 OA
ATOM      5  N   UNL     1     -10.643  55.630  48.328  0.00  0.00    +0.000 N 
ATOM      6  C   UNL     1     -12.365  56.114  49.994  0.00  0.00    +0.000 A 
ATOM      7  C   UNL     1     -11.962  56.079  48.647  0.00  0.00    +0.000 A 
ATOM      8  C   UNL     1     -13.657  56.561  50.321  0.00  0.00    +0.000 A 
ATOM      9  C   UNL     1     -12.874  56.488  47.660  0.00  0.00    +0.000 A 
ATOM     10  C   UNL     1     -14.552  56.957  49.330  0.00  0.00    +0.000 A 
ATOM     11  C   UNL     1     -14.160  56.918  47.999  0.00  0.00    +0.000 A 
ENDROOT
BRANCH   1  17
ATOM     12  S   UNL     1      -7.061  54.734  53.046  0.00  0.00    +0.000 S 
ATOM     13  O   UNL     1      -7.021  55.690  54.133  0.00  0.00    +0.000 OA
ATOM     14  O   UNL     1      -5.848  54.383  52.330  0.00  0.00    +0.000 OA
ATOM     15  N   UNL     1      -8.143  55.265  51.962  0.00  0.00    +0.000 N 
ATOM     16  C   UNL     1      -7.661  53.235  53.737  0.00  0.00    +0.000 A 
ATOM     17  C   UNL     1      -9.284  54.662  51.798  0.00  0.00    +0.000 C 
ATOM     18  C   UNL     1      -8.931  52.817  53.375  0.00  0.00    +0.000 A 
ATOM     19  C   UNL     1      -6.861  52.501  54.619  0.00  0.00    +0.000 A 
ATOM     20  N   UNL     1      -9.720  53.562  52.504  0.00  0.00    +0.000 N 
ATOM     21  C   UNL     1      -9.440  51.659  53.975  0.00  0.00    +0.000 A 
ATOM     22  C   UNL     1      -7.367  51.331  55.180  0.00  0.00    +0.000 A 
ATOM     23  C   UNL     1      -8.661  50.916  54.865  0.00  0.00    +0.000 A 
ATOM     24  H   UNL     1      -7.933  56.058  51.418  0.00  0.00    +0.000 HD
ATOM     25  H   UNL     1     -10.657  53.283  52.384  0.00  0.00    +0.000 HD
ENDBRANCH   1  17
BRANCH   3  26
ATOM     26  O   UNL     1     -11.976  55.654  52.325  0.00  0.00    +0.000 OA
ATOM     27  H   UNL     1     -12.105  54.842  52.775  0.00  0.00    +0.000 HD
ENDBRANCH   3  26
BRANCH   5  28
ATOM     28  C   UNL     1     -10.180  55.561  46.938  0.00  0.00    +0.000 C 
BRANCH  28  29
ATOM     29  C   UNL     1     -10.475  54.244  46.255  0.00  0.00    +0.000 A 
ATOM     30  C   UNL     1     -11.679  54.014  45.582  0.00  0.00    +0.000 A 
ATOM     31  C   UNL     1      -9.520  53.221  46.262  0.00  0.00    +0.000 A 
ATOM     32  C   UNL     1     -11.908  52.765  45.029  0.00  0.00    +0.000 A 
ATOM     33  C   UNL     1      -9.838  52.009  45.672  0.00  0.00    +0.000 A 
ATOM     34  N   UNL     1     -11.016  51.753  45.068  0.00  0.00    +0.000 NA
ENDBRANCH  28  29
ENDBRANCH   5  28
TORSDOF 4
ENDMDL
MODEL 3
REMARK VINA RESULT:      -8.7      2.038      2.531
REMARK  Name = 338075
REMARK  4 active torsions:
REMARK  status: ('A' for Active; 'I' for Inactive)
REMARK    1  A    between atoms: C_6  and  C_10
REMARK    2  A    between atoms: C_14  and  O_18
REMARK    3  A    between atoms: N_17  and  C_21
REMARK    4  A    between atoms: C_21  and  C_24
REMARK                            x       y       z     vdW  Elec       q    Type
REMARK                         _______ _______ _______ _____ _____    ______ ____
ROOT
ATOM      1  C   UNL     1     -11.157  54.586  50.892  0.00  0.00    +0.000 A 
ATOM      2  C   UNL     1      -9.726  54.962  50.691  0.00  0.00    +0.000 A 
ATOM      3  C   UNL     1     -11.480  53.321  51.215  0.00  0.00    +0.000 A 
ATOM      4  O   UNL     1      -9.465  56.118  50.344  0.00  0.00    +0.000 OA
ATOM      5  N   UNL     1      -8.745  54.013  50.930  0.00  0.00    +0.000 N 
ATOM      6  C   UNL     1     -10.431  52.307  51.401  0.00  0.00    +0.000 A 
ATOM      7  C   UNL     1      -9.077  52.666  51.274  0.00  0.00    +0.000 A 
ATOM      8  C   UNL     1     -10.770  50.984  51.732  0.00  0.00    +0.000 A 
ATOM      9  C   UNL     1      -8.096  51.684  51.491  0.00  0.00    +0.000 A 
ATOM     10  C   UNL     1      -9.785  50.023  51.950  0.00  0.00    +0.000 A 
ATOM     11  C   UNL     1      -8.448  50.375  51.832  0.00  0.00    +0.000 A 
ENDROOT
BRANCH   1  17
ATOM     12  S   UNL     1     -13.528  57.348  49.400  0.00  0.00    +0.000 S 
ATOM     13  O   UNL     1     -14.653  56.778  48.689  0.00  0.00    +0.000 OA
ATOM     14  O   UNL     1     -12.832  58.506  48.869  0.00  0.00    +0.000 OA
ATOM     15  N   UNL     1     -12.438  56.170  49.623  0.00  0.00    +0.000 N 
ATOM     16  C   UNL     1     -14.142  57.837  50.971  0.00  0.00    +0.000 A 
ATOM     17  C   UNL     1     -12.219  55.669  50.803  0.00  0.00    +0.000 C 
ATOM     18  C   UNL     1     -13.729  57.118  52.081  0.00  0.00    +0.000 A 
ATOM     19  C   UNL     1     -15.015  58.925  51.074  0.00  0.00    +0.000 A 
ATOM     20  N   UNL     1     -12.868  56.032  51.963  0.00  0.00    +0.000 N 
ATOM     21  C   UNL     1     -14.268  57.461  53.327  0.00  0.00    +0.000 A 
ATOM     22  C   UNL     1     -15.514  59.278  52.325  0.00  0.00    +0.000 A 
ATOM     23  C   UNL     1     -15.149  58.539  53.450  0.00  0.00    +0.000 A 
ATOM     24  H   UNL     1     -11.932  55.827  48.851  0.00  0.00    +0.000 HD
ATOM     25  H   UNL     1     -12.711  55.483  52.766  0.00  0.00    +0.000 HD
ENDBRANCH   1  17
BRANCH   3  26
ATOM     26  O   UNL     1     -12.769  52.879  51.450  0.00  0.00    +0.000 OA
ATOM     27  H   UNL     1     -13.494  53.312  51.044  0.00  0.00    +0.000 HD
ENDBRANCH   3  26
BRANCH   5  28
ATOM     28  C   UNL     1      -7.348  54.441  50.799  0.00  0.00    +0.000 C 
BRANCH  28  29
ATOM     29  C   UNL     1      -6.616  54.562  52.117  0.00  0.00    +0.000 A 
ATOM     30  C   UNL     1      -5.283  54.165  52.260  0.00  0.00    +0.000 A 
ATOM     31  C   UNL     1      -7.263  55.109  53.230  0.00  0.00    +0.000 A 
ATOM     32  C   UNL     1      -4.691  54.249  53.511  0.00  0.00    +0.000 A 
ATOM     33  C   UNL     1      -6.583  55.161  54.437  0.00  0.00    +0.000 A 
ATOM     34  N   UNL     1      -5.317  54.730  54.605  0.00  0.00    +0.000 NA
ENDBRANCH  28  29
ENDBRANCH   5  28
TORSDOF 4
ENDMDL
MODEL 4
REMARK VINA RESULT:      -8.5      3.327      4.293
REMARK  Name = 338075
REMARK  4 active torsions:
REMARK  status: ('A' for Active; 'I' for Inactive)
REMARK    1  A    between atoms: C_6  and  C_10
REMARK    2  A    between atoms: C_14  and  O_18
REMARK    3  A    between atoms: N_17  and  C_21
REMARK    4  A    between atoms: C_21  and  C_24
REMARK                            x       y       z     vdW  Elec       q    Type
REMARK                         _______ _______ _______ _____ _____    ______ ____
ROOT
ATOM      1  C   UNL     1     -12.217  54.163  50.262  0.00  0.00    +0.000 A 
ATOM      2  C   UNL     1     -11.941  53.730  48.860  0.00  0.00    +0.000 A 
ATOM      3  C   UNL     1     -11.659  53.501  51.293  0.00  0.00    +0.000 A 
ATOM      4  O   UNL     1     -12.509  54.325  47.939  0.00  0.00    +0.000 OA
ATOM      5  N   UNL     1     -11.038  52.701  48.643  0.00  0.00    +0.000 N 
ATOM      6  C   UNL     1     -10.754  52.369  51.049  0.00  0.00    +0.000 A 
ATOM      7  C   UNL     1     -10.439  51.991  49.730  0.00  0.00    +0.000 A 
ATOM      8  C   UNL     1     -10.177  51.674  52.126  0.00  0.00    +0.000 A 
ATOM      9  C   UNL     1      -9.544  50.927  49.529  0.00  0.00    +0.000 A 
ATOM     10  C   UNL     1      -9.286  50.625  51.909  0.00  0.00    +0.000 A 
ATOM     11  C   UNL     1      -8.968  50.254  50.609  0.00  0.00    +0.000 A 
ENDROOT
BRANCH   1  17
ATOM     12  S   UNL     1     -15.220  56.453  51.365  0.00  0.00    +0.000 S 
ATOM     13  O   UNL     1     -15.223  56.703  52.791  0.00  0.00    +0.000 OA
ATOM     14  O   UNL     1     -16.462  56.185  50.662  0.00  0.00    +0.000 OA
ATOM     15  N   UNL     1     -14.211  55.216  51.084  0.00  0.00    +0.000 N 
ATOM     16  C   UNL     1     -14.549  57.894  50.619  0.00  0.00    +0.000 A 
ATOM     17  C   UNL     1     -13.067  55.401  50.493  0.00  0.00    +0.000 C 
ATOM     18  C   UNL     1     -13.291  57.802  50.047  0.00  0.00    +0.000 A 
ATOM     19  C   UNL     1     -15.283  59.085  50.611  0.00  0.00    +0.000 A 
ATOM     20  N   UNL     1     -12.568  56.614  50.070  0.00  0.00    +0.000 N 
ATOM     21  C   UNL     1     -12.723  58.965  49.511  0.00  0.00    +0.000 A 
ATOM     22  C   UNL     1     -14.721  60.224  50.042  0.00  0.00    +0.000 A 
ATOM     23  C   UNL     1     -13.436  60.167  49.501  0.00  0.00    +0.000 A 
ATOM     24  H   UNL     1     -14.469  54.309  51.365  0.00  0.00    +0.000 HD
ATOM     25  H   UNL     1     -11.633  56.641  49.763  0.00  0.00    +0.000 HD
ENDBRANCH   1  17
BRANCH   3  26
ATOM     26  O   UNL     1     -11.829  53.839  52.623  0.00  0.00    +0.000 OA
ATOM     27  H   UNL     1     -12.611  54.275  52.899  0.00  0.00    +0.000 HD
ENDBRANCH   3  26
BRANCH   5  28
ATOM     28  C   UNL     1     -10.732  52.357  47.251  0.00  0.00    +0.000 C 
BRANCH  28  29
ATOM     29  C   UNL     1      -9.605  53.167  46.650  0.00  0.00    +0.000 A 
ATOM     30  C   UNL     1      -8.711  53.893  47.443  0.00  0.00    +0.000 A 
ATOM     31  C   UNL     1      -9.417  53.184  45.264  0.00  0.00    +0.000 A 
ATOM     32  C   UNL     1      -7.739  54.661  46.823  0.00  0.00    +0.000 A 
ATOM     33  C   UNL     1      -8.408  53.975  44.737  0.00  0.00    +0.000 A 
ATOM     34  N   UNL     1      -7.574  54.724  45.486  0.00  0.00    +0.000 NA
ENDBRANCH  28  29
ENDBRANCH   5  28
TORSDOF 4
ENDMDL
MODEL 5
REMARK VINA RESULT:      -8.5      3.652      7.286
REMARK  Name = 338075
REMARK  4 active torsions:
REMARK  status: ('A' for Active; 'I' for Inactive)
REMARK    1  A    between atoms: C_6  and  C_10
REMARK    2  A    between atoms: C_14  and  O_18
REMARK    3  A    between atoms: N_17  and  C_21
REMARK    4  A    between atoms: C_21  and  C_24
REMARK                            x       y       z     vdW  Elec       q    Type
REMARK                         _______ _______ _______ _____ _____    ______ ____
ROOT
ATOM      1  C   UNL     1     -10.398  54.925  50.430  0.00  0.00    +0.000 A 
ATOM      2  C   UNL     1      -9.910  55.017  49.022  0.00  0.00    +0.000 A 
ATOM      3  C   UNL     1     -11.613  55.407  50.753  0.00  0.00    +0.000 A 
ATOM      4  O   UNL     1      -8.771  54.613  48.768  0.00  0.00    +0.000 OA
ATOM      5  N   UNL     1     -10.760  55.520  48.050  0.00  0.00    +0.000 N 
ATOM      6  C   UNL     1     -12.478  55.999  49.722  0.00  0.00    +0.000 A 
ATOM      7  C   UNL     1     -12.052  56.035  48.382  0.00  0.00    +0.000 A 
ATOM      8  C   UNL     1     -13.744  56.508  50.061  0.00  0.00    +0.000 A 
ATOM      9  C   UNL     1     -12.915  56.576  47.414  0.00  0.00    +0.000 A 
ATOM     10  C   UNL     1     -14.590  57.035  49.089  0.00  0.00    +0.000 A 
ATOM     11  C   UNL     1     -14.175  57.066  47.764  0.00  0.00    +0.000 A 
ENDROOT
BRANCH   1  17
ATOM     12  S   UNL     1      -9.155  52.214  52.996  0.00  0.00    +0.000 S 
ATOM     13  O   UNL     1      -8.574  51.063  52.338  0.00  0.00    +0.000 OA
ATOM     14  O   UNL     1     -10.022  52.044  54.148  0.00  0.00    +0.000 OA
ATOM     15  N   UNL     1      -9.970  53.061  51.880  0.00  0.00    +0.000 N 
ATOM     16  C   UNL     1      -7.805  53.190  53.552  0.00  0.00    +0.000 A 
ATOM     17  C   UNL     1      -9.538  54.213  51.460  0.00  0.00    +0.000 C 
ATOM     18  C   UNL     1      -7.576  54.400  52.919  0.00  0.00    +0.000 A 
ATOM     19  C   UNL     1      -7.004  52.740  54.607  0.00  0.00    +0.000 A 
ATOM     20  N   UNL     1      -8.374  54.831  51.865  0.00  0.00    +0.000 N 
ATOM     21  C   UNL     1      -6.460  55.150  53.313  0.00  0.00    +0.000 A 
ATOM     22  C   UNL     1      -5.920  53.514  55.013  0.00  0.00    +0.000 A 
ATOM     23  C   UNL     1      -5.642  54.714  54.359  0.00  0.00    +0.000 A 
ATOM     24  H   UNL     1     -10.807  52.696  51.513  0.00  0.00    +0.000 HD
ATOM     25  H   UNL     1      -8.087  55.634  51.372  0.00  0.00    +0.000 HD
ENDBRANCH   1  17
BRANCH   3  26
ATOM     26  O   UNL     1     -12.168  55.345  52.018  0.00  0.00    +0.000 OA
ATOM     27  H   UNL     1     -12.873  54.753  52.192  0.00  0.00    +0.000 HD
ENDBRANCH   3  26
BRANCH   5  28
ATOM     28  C   UNL     1     -10.275  55.521  46.667  0.00  0.00    +0.000 C 
BRANCH  28  29
ATOM     29  C   UNL     1     -10.466  54.204  45.947  0.00  0.00    +0.000 A 
ATOM     30  C   UNL     1      -9.382  53.426  45.530  0.00  0.00    +0.000 A 
ATOM     31  C   UNL     1     -11.755  53.720  45.703  0.00  0.00    +0.000 A 
ATOM     32  C   UNL     1      -9.629  52.260  44.823  0.00  0.00    +0.000 A 
ATOM     33  C   UNL     1     -11.901  52.536  44.998  0.00  0.00    +0.000 A 
ATOM     34  N   UNL     1     -10.866  51.803  44.540  0.00  0.00    +0.000 NA
ENDBRANCH  28  29
ENDBRANCH   5  28
TORSDOF 4
ENDMDL
MODEL 6
REMARK VINA RESULT:      -8.4      3.098      4.607
REMARK  Name = 338075
REMARK  4 active torsions:
REMARK  status: ('A' for Active; 'I' for Inactive)
REMARK    1  A    between atoms: C_6  and  C_10
REMARK    2  A    between atoms: C_14  and  O_18
REMARK    3  A    between atoms: N_17  and  C_21
REMARK    4  A    between atoms: C_21  and  C_24
REMARK                            x       y       z     vdW  Elec       q    Type
REMARK                         _______ _______ _______ _____ _____    ______ ____
ROOT
ATOM      1  C   UNL     1     -11.506  55.798  48.835  0.00  0.00    +0.000 A 
ATOM      2  C   UNL     1     -10.529  55.090  49.715  0.00  0.00    +0.000 A 
ATOM      3  C   UNL     1     -11.589  55.480  47.530  0.00  0.00    +0.000 A 
ATOM      4  O   UNL     1     -10.440  55.440  50.896  0.00  0.00    +0.000 OA
ATOM      5  N   UNL     1      -9.782  54.050  49.184  0.00  0.00    +0.000 N 
ATOM      6  C   UNL     1     -10.742  54.418  46.966  0.00  0.00    +0.000 A 
ATOM      7  C   UNL     1      -9.862  53.703  47.800  0.00  0.00    +0.000 A 
ATOM      8  C   UNL     1     -10.825  54.091  45.602  0.00  0.00    +0.000 A 
ATOM      9  C   UNL     1      -9.091  52.671  47.239  0.00  0.00    +0.000 A 
ATOM     10  C   UNL     1     -10.058  53.060  45.063  0.00  0.00    +0.000 A 
ATOM     11  C   UNL     1      -9.193  52.349  45.883  0.00  0.00    +0.000 A 
ENDROOT
BRANCH   1  17
ATOM     12  S   UNL     1     -13.499  59.138  49.424  0.00  0.00    +0.000 S 
ATOM     13  O   UNL     1     -14.631  59.265  48.531  0.00  0.00    +0.000 OA
ATOM     14  O   UNL     1     -12.660  60.287  49.717  0.00  0.00    +0.000 OA
ATOM     15  N   UNL     1     -12.546  57.961  48.848  0.00  0.00    +0.000 N 
ATOM     16  C   UNL     1     -14.152  58.615  50.968  0.00  0.00    +0.000 A 
ATOM     17  C   UNL     1     -12.448  56.815  49.456  0.00  0.00    +0.000 C 
ATOM     18  C   UNL     1     -13.878  57.322  51.382  0.00  0.00    +0.000 A 
ATOM     19  C   UNL     1     -14.916  59.496  51.739  0.00  0.00    +0.000 A 
ATOM     20  N   UNL     1     -13.124  56.453  50.601  0.00  0.00    +0.000 N 
ATOM     21  C   UNL     1     -14.453  56.878  52.580  0.00  0.00    +0.000 A 
ATOM     22  C   UNL     1     -15.451  59.053  52.946  0.00  0.00    +0.000 A 
ATOM     23  C   UNL     1     -15.227  57.740  53.361  0.00  0.00    +0.000 A 
ATOM     24  H   UNL     1     -12.033  58.115  48.022  0.00  0.00    +0.000 HD
ATOM     25  H   UNL     1     -13.071  55.512  50.885  0.00  0.00    +0.000 HD
ENDBRANCH   1  17
BRANCH   3  26
ATOM     26  O   UNL     1     -12.477  56.054  46.640  0.00  0.00    +0.000 OA
ATOM     27  H   UNL     1     -12.648  56.975  46.678  0.00  0.00    +0.000 HD
ENDBRANCH   3  26
BRANCH   5  28
ATOM     28  C   UNL     1      -8.892  53.327  50.098  0.00  0.00    +0.000 C 
BRANCH  28  29
ATOM     29  C   UNL     1      -7.441  53.744  50.002  0.00  0.00    +0.000 A 
ATOM     30  C   UNL     1      -7.066  55.028  49.595  0.00  0.00    +0.000 A 
ATOM     31  C   UNL     1      -6.429  52.843  50.353  0.00  0.00    +0.000 A 
ATOM     32  C   UNL     1      -5.718  55.323  49.473  0.00  0.00    +0.000 A 
ATOM     33  C   UNL     1      -5.108  53.236  50.208  0.00  0.00    +0.000 A 
ATOM     34  N   UNL     1      -4.730  54.451  49.762  0.00  0.00    +0.000 NA
ENDBRANCH  28  29
ENDBRANCH   5  28
TORSDOF 4
ENDMDL
MODEL 7
REMARK VINA RESULT:      -8.4      4.396      7.185
REMARK  Name = 338075
REMARK  4 active torsions:
REMARK  status: ('A' for Active; 'I' for Inactive)
REMARK    1  A    between atoms: C_6  and  C_10
REMARK    2  A    between atoms: C_14  and  O_18
REMARK    3  A    between atoms: N_17  and  C_21
REMARK    4  A    between atoms: C_21  and  C_24
REMARK                            x       y       z     vdW  Elec       q    Type
REMARK                         _______ _______ _______ _____ _____    ______ ____
ROOT
ATOM      1  C   UNL     1     -10.937  54.470  48.261  0.00  0.00    +0.000 A 
ATOM      2  C   UNL     1     -10.535  54.025  49.629  0.00  0.00    +0.000 A 
ATOM      3  C   UNL     1     -11.926  55.369  48.111  0.00  0.00    +0.000 A 
ATOM      4  O   UNL     1      -9.659  53.161  49.732  0.00  0.00    +0.000 OA
ATOM      5  N   UNL     1     -11.133  54.619  50.729  0.00  0.00    +0.000 N 
ATOM      6  C   UNL     1     -12.598  55.942  49.287  0.00  0.00    +0.000 A 
ATOM      7  C   UNL     1     -12.185  55.576  50.581  0.00  0.00    +0.000 A 
ATOM      8  C   UNL     1     -13.636  56.877  49.129  0.00  0.00    +0.000 A 
ATOM      9  C   UNL     1     -12.823  56.166  51.685  0.00  0.00    +0.000 A 
ATOM     10  C   UNL     1     -14.254  57.458  50.234  0.00  0.00    +0.000 A 
ATOM     11  C   UNL     1     -13.844  57.104  51.512  0.00  0.00    +0.000 A 
ENDROOT
BRANCH   1  17
ATOM     12  S   UNL     1      -8.012  53.908  45.691  0.00  0.00    +0.000 S 
ATOM     13  O   UNL     1      -6.999  53.010  46.203  0.00  0.00    +0.000 OA
ATOM     14  O   UNL     1      -7.634  55.098  44.950  0.00  0.00    +0.000 OA
ATOM     15  N   UNL     1      -8.936  54.370  46.939  0.00  0.00    +0.000 N 
ATOM     16  C   UNL     1      -9.000  52.955  44.596  0.00  0.00    +0.000 A 
ATOM     17  C   UNL     1     -10.161  53.950  47.064  0.00  0.00    +0.000 C 
ATOM     18  C   UNL     1     -10.295  52.655  44.985  0.00  0.00    +0.000 A 
ATOM     19  C   UNL     1      -8.475  52.529  43.371  0.00  0.00    +0.000 A 
ATOM     20  N   UNL     1     -10.801  53.078  46.210  0.00  0.00    +0.000 N 
ATOM     21  C   UNL     1     -11.064  51.839  44.146  0.00  0.00    +0.000 A 
ATOM     22  C   UNL     1      -9.264  51.748  42.530  0.00  0.00    +0.000 A 
ATOM     23  C   UNL     1     -10.555  51.394  42.923  0.00  0.00    +0.000 A 
ATOM     24  H   UNL     1      -8.564  54.981  47.616  0.00  0.00    +0.000 HD
ATOM     25  H   UNL     1     -11.679  52.728  46.487  0.00  0.00    +0.000 HD
ENDBRANCH   1  17
BRANCH   3  26
ATOM     26  O   UNL     1     -12.354  55.865  46.893  0.00  0.00    +0.000 OA
ATOM     27  H   UNL     1     -12.280  56.781  46.709  0.00  0.00    +0.000 HD
ENDBRANCH   3  26
BRANCH   5  28
ATOM     28  C   UNL     1     -10.656  54.215  52.055  0.00  0.00    +0.000 C 
BRANCH  28  29
ATOM     29  C   UNL     1      -9.395  54.922  52.498  0.00  0.00    +0.000 A 
ATOM     30  C   UNL     1      -8.636  55.701  51.619  0.00  0.00    +0.000 A 
ATOM     31  C   UNL     1      -8.971  54.831  53.828  0.00  0.00    +0.000 A 
ATOM     32  C   UNL     1      -7.460  56.273  52.077  0.00  0.00    +0.000 A 
ATOM     33  C   UNL     1      -7.785  55.448  54.194  0.00  0.00    +0.000 A 
ATOM     34  N   UNL     1      -7.013  56.155  53.344  0.00  0.00    +0.000 NA
ENDBRANCH  28  29
ENDBRANCH   5  28
TORSDOF 4
ENDMDL
MODEL 8
REMARK VINA RESULT:      -8.2      3.099      8.139
REMARK  Name = 338075
REMARK  4 active torsions:
REMARK  status: ('A' for Active; 'I' for Inactive)
REMARK    1  A    between atoms: C_6  and  C_10
REMARK    2  A    between atoms: C_14  and  O_18
REMARK    3  A    between atoms: N_17  and  C_21
REMARK    4  A    between atoms: C_21  and  C_24
REMARK                            x       y       z     vdW  Elec       q    Type
REMARK                         _______ _______ _______ _____ _____    ______ ____
ROOT
ATOM      1  C   UNL     1      -9.223  54.682  50.255  0.00  0.00    +0.000 A 
ATOM      2  C   UNL     1     -10.670  54.833  50.593  0.00  0.00    +0.000 A 
ATOM      3  C   UNL     1      -8.845  54.529  48.973  0.00  0.00    +0.000 A 
ATOM      4  O   UNL     1     -10.989  54.919  51.783  0.00  0.00    +0.000 OA
ATOM      5  N   UNL     1     -11.594  54.903  49.563  0.00  0.00    +0.000 N 
ATOM      6  C   UNL     1      -9.845  54.539  47.895  0.00  0.00    +0.000 A 
ATOM      7  C   UNL     1     -11.204  54.742  48.197  0.00  0.00    +0.000 A 
ATOM      8  C   UNL     1      -9.449  54.373  46.556  0.00  0.00    +0.000 A 
ATOM      9  C   UNL     1     -12.131  54.781  47.142  0.00  0.00    +0.000 A 
ATOM     10  C   UNL     1     -10.381  54.421  45.521  0.00  0.00    +0.000 A 
ATOM     11  C   UNL     1     -11.721  54.628  45.815  0.00  0.00    +0.000 A 
ENDROOT
BRANCH   1  17
ATOM     12  S   UNL     1      -7.323  55.970  53.450  0.00  0.00    +0.000 S 
ATOM     13  O   UNL     1      -7.991  55.589  54.676  0.00  0.00    +0.000 OA
ATOM     14  O   UNL     1      -6.750  57.297  53.306  0.00  0.00    +0.000 OA
ATOM     15  N   UNL     1      -8.365  55.743  52.229  0.00  0.00    +0.000 N 
ATOM     16  C   UNL     1      -5.987  54.848  53.253  0.00  0.00    +0.000 A 
ATOM     17  C   UNL     1      -8.196  54.782  51.370  0.00  0.00    +0.000 C 
ATOM     18  C   UNL     1      -6.068  53.917  52.230  0.00  0.00    +0.000 A 
ATOM     19  C   UNL     1      -4.884  54.915  54.110  0.00  0.00    +0.000 A 
ATOM     20  N   UNL     1      -7.175  53.856  51.391  0.00  0.00    +0.000 N 
ATOM     21  C   UNL     1      -5.038  52.976  52.112  0.00  0.00    +0.000 A 
ATOM     22  C   UNL     1      -3.849  53.996  53.957  0.00  0.00    +0.000 A 
ATOM     23  C   UNL     1      -3.931  53.020  52.964  0.00  0.00    +0.000 A 
ATOM     24  H   UNL     1      -9.140  56.343  52.137  0.00  0.00    +0.000 HD
ATOM     25  H   UNL     1      -7.235  53.095  50.767  0.00  0.00    +0.000 HD
ENDBRANCH   1  17
BRANCH   3  26
ATOM     26  O   UNL     1      -7.533  54.410  48.554  0.00  0.00    +0.000 OA
ATOM     27  H   UNL     1      -6.834  54.515  49.168  0.00  0.00    +0.000 HD
ENDBRANCH   3  26
BRANCH   5  28
ATOM     28  C   UNL     1     -12.995  55.132  49.930  0.00  0.00    +0.000 C 
BRANCH  28  29
ATOM     29  C   UNL     1     -13.331  56.580  50.205  0.00  0.00    +0.000 A 
ATOM     30  C   UNL     1     -13.876  56.994  51.424  0.00  0.00    +0.000 A 
ATOM     31  C   UNL     1     -13.073  57.555  49.236  0.00  0.00    +0.000 A 
ATOM     32  C   UNL     1     -14.214  58.328  51.587  0.00  0.00    +0.000 A 
ATOM     33  C   UNL     1     -13.436  58.867  49.495  0.00  0.00    +0.000 A 
ATOM     34  N   UNL     1     -14.015  59.273  50.644  0.00  0.00    +0.000 NA
ENDBRANCH  28  29
ENDBRANCH   5  28
TORSDOF 4
ENDMDL
MODEL 9
REMARK VINA RESULT:      -8.2      2.518      3.679
REMARK  Name = 338075
REMARK  4 active torsions:
REMARK  status: ('A' for Active; 'I' for Inactive)
REMARK    1  A    between atoms: C_6  and  C_10
REMARK    2  A    between atoms: C_14  and  O_18
REMARK    3  A    between atoms: N_17  and  C_21
REMARK    4  A    between atoms: C_21  and  C_24
REMARK                            x       y       z     vdW  Elec       q    Type
REMARK                         _______ _______ _______ _____ _____    ______ ____
ROOT
ATOM      1  C   UNL     1     -11.994  54.415  51.022  0.00  0.00    +0.000 A 
ATOM      2  C   UNL     1     -11.070  54.285  52.188  0.00  0.00    +0.000 A 
ATOM      3  C   UNL     1     -12.008  53.467  50.067  0.00  0.00    +0.000 A 
ATOM      4  O   UNL     1     -11.044  55.197  53.020  0.00  0.00    +0.000 OA
ATOM      5  N   UNL     1     -10.303  53.138  52.309  0.00  0.00    +0.000 N 
ATOM      6  C   UNL     1     -11.140  52.286  50.176  0.00  0.00    +0.000 A 
ATOM      7  C   UNL     1     -10.311  52.124  51.302  0.00  0.00    +0.000 A 
ATOM      8  C   UNL     1     -11.151  51.299  49.175  0.00  0.00    +0.000 A 
ATOM      9  C   UNL     1      -9.518  50.968  51.394  0.00  0.00    +0.000 A 
ATOM     10  C   UNL     1     -10.363  50.155  49.286  0.00  0.00    +0.000 A 
ATOM     11  C   UNL     1      -9.549  49.990  50.397  0.00  0.00    +0.000 A 
ENDROOT
BRANCH   1  17
ATOM     12  S   UNL     1     -15.313  56.503  51.333  0.00  0.00    +0.000 S 
ATOM     13  O   UNL     1     -15.615  56.853  52.705  0.00  0.00    +0.000 OA
ATOM     14  O   UNL     1     -16.371  56.077  50.433  0.00  0.00    +0.000 OA
ATOM     15  N   UNL     1     -14.182  55.344  51.356  0.00  0.00    +0.000 N 
ATOM     16  C   UNL     1     -14.616  57.942  50.605  0.00  0.00    +0.000 A 
ATOM     17  C   UNL     1     -12.961  55.586  50.979  0.00  0.00    +0.000 C 
ATOM     18  C   UNL     1     -13.267  57.920  50.292  0.00  0.00    +0.000 A 
ATOM     19  C   UNL     1     -15.419  59.059  50.355  0.00  0.00    +0.000 A 
ATOM     20  N   UNL     1     -12.478  56.805  50.554  0.00  0.00    +0.000 N 
ATOM     21  C   UNL     1     -12.692  59.088  49.775  0.00  0.00    +0.000 A 
ATOM     22  C   UNL     1     -14.840  60.201  49.806  0.00  0.00    +0.000 A 
ATOM     23  C   UNL     1     -13.474  60.218  49.526  0.00  0.00    +0.000 A 
ATOM     24  H   UNL     1     -14.423  54.439  51.661  0.00  0.00    +0.000 HD
ATOM     25  H   UNL     1     -11.505  56.893  50.429  0.00  0.00    +0.000 HD
ENDBRANCH   1  17
BRANCH   3  26
ATOM     26  O   UNL     1     -12.844  53.479  48.965  0.00  0.00    +0.000 OA
ATOM     27  H   UNL     1     -12.903  54.247  48.432  0.00  0.00    +0.000 HD
ENDBRANCH   3  26
BRANCH   5  28
ATOM     28  C   UNL     1      -9.468  53.010  53.508  0.00  0.00    +0.000 C 
BRANCH  28  29
ATOM     29  C   UNL     1      -8.129  53.704  53.402  0.00  0.00    +0.000 A 
ATOM     30  C   UNL     1      -7.894  54.952  53.988  0.00  0.00    +0.000 A 
ATOM     31  C   UNL     1      -7.071  53.086  52.725  0.00  0.00    +0.000 A 
ATOM     32  C   UNL     1      -6.662  55.557  53.801  0.00  0.00    +0.000 A 
ATOM     33  C   UNL     1      -5.871  53.767  52.601  0.00  0.00    +0.000 A 
ATOM     34  N   UNL     1      -5.647  54.995  53.111  0.00  0.00    +0.000 NA
ENDBRANCH  28  29
ENDBRANCH   5  28
TORSDOF 4
ENDMDL
