MODEL 1
REMARK VINA RESULT:      -8.3      0.000      0.000
REMARK  Name = 338273
REMARK  7 active torsions:
REMARK  status: ('A' for Active; 'I' for Inactive)
REMARK    1  A    between atoms: N_7  and  C_10
REMARK    2  A    between atoms: C_10  and  C_14
REMARK    3  A    between atoms: C_11  and  O_15
REMARK    4  A    between atoms: C_13  and  C_16
REMARK    5  A    between atoms: C_14  and  C_17
REMARK    6  A    between atoms: C_17  and  C_20
REMARK    7  A    between atoms: C_17  and  C_21
REMARK                            x       y       z     vdW  Elec       q    Type
REMARK                         _______ _______ _______ _____ _____    ______ ____
ROOT
ATOM      1 BR   UNL     1     -10.155  49.872  46.215  0.00  0.00    +0.000 Br
ATOM      2  C   UNL     1     -10.628  50.943  47.696  0.00  0.00    +0.000 A 
ATOM      3  C   UNL     1     -10.368  52.310  47.660  0.00  0.00    +0.000 A 
ATOM      4  C   UNL     1     -11.274  50.377  48.784  0.00  0.00    +0.000 A 
ATOM      5  C   UNL     1     -10.798  53.144  48.705  0.00  0.00    +0.000 A 
ATOM      6  C   UNL     1     -11.664  51.184  49.850  0.00  0.00    +0.000 A 
ATOM      7  N   UNL     1     -10.629  54.564  48.632  0.00  0.00    +0.000 N 
ATOM      8  C   UNL     1     -11.453  52.576  49.821  0.00  0.00    +0.000 A 
ATOM      9  C   UNL     1     -11.233  55.399  49.563  0.00  0.00    +0.000 A 
ATOM     10  C   UNL     1     -12.117  53.476  50.781  0.00  0.00    +0.000 A 
ATOM     11  O   UNL     1     -11.001  56.605  49.636  0.00  0.00    +0.000 OA
ATOM     12  C   UNL     1     -12.245  54.765  50.436  0.00  0.00    +0.000 A 
ENDROOT
BRANCH  12  13
ATOM     13  C   UNL     1     -13.419  55.519  50.960  0.00  0.00    +0.000 C 
ATOM     14  N   UNL     1     -13.291  56.207  52.074  0.00  0.00    +0.000 N 
ATOM     15  N   UNL     1     -14.604  55.549  50.231  0.00  0.00    +0.000 N 
ATOM     16  S   UNL     1     -14.466  57.298  52.416  0.00  0.00    +0.000 S 
ATOM     17  C   UNL     1     -14.767  56.903  49.789  0.00  0.00    +0.000 A 
ATOM     18  O   UNL     1     -13.915  58.383  53.175  0.00  0.00    +0.000 OA
ATOM     19  O   UNL     1     -15.650  56.579  52.843  0.00  0.00    +0.000 OA
ATOM     20  C   UNL     1     -14.828  57.909  50.758  0.00  0.00    +0.000 A 
ATOM     21  C   UNL     1     -14.339  57.208  48.504  0.00  0.00    +0.000 A 
ATOM     22  C   UNL     1     -14.613  59.243  50.445  0.00  0.00    +0.000 A 
ATOM     23  C   UNL     1     -13.988  58.524  48.205  0.00  0.00    +0.000 A 
ATOM     24  C   UNL     1     -14.165  59.537  49.153  0.00  0.00    +0.000 A 
ATOM     25  H   UNL     1     -12.523  56.073  52.676  0.00  0.00    +0.000 HD
ATOM     26  H   UNL     1     -15.209  54.793  50.054  0.00  0.00    +0.000 HD
ENDBRANCH  12  13
BRANCH  10  27
ATOM     27  O   UNL     1     -12.793  52.954  51.873  0.00  0.00    +0.000 OA
ATOM     28  H   UNL     1     -13.728  52.897  51.863  0.00  0.00    +0.000 HD
ENDBRANCH  10  27
BRANCH   7  29
ATOM     29  C   UNL     1     -10.002  55.208  47.473  0.00  0.00    +0.000 C 
BRANCH  29  30
ATOM     30  C   UNL     1      -8.485  55.336  47.688  0.00  0.00    +0.000 C 
BRANCH  30  31
ATOM     31  C   UNL     1      -7.616  54.760  46.558  0.00  0.00    +0.000 C 
ATOM     32  C   UNL     1      -6.823  53.523  46.987  0.00  0.00    +0.000 C 
ATOM     33  C   UNL     1      -8.515  54.406  45.369  0.00  0.00    +0.000 C 
ENDBRANCH  30  31
ENDBRANCH  29  30
ENDBRANCH   7  29
TORSDOF 5
ENDMDL
MODEL 2
REMARK VINA RESULT:      -8.1      2.011      2.592
REMARK  Name = 338273
REMARK  7 active torsions:
REMARK  status: ('A' for Active; 'I' for Inactive)
REMARK    1  A    between atoms: N_7  and  C_10
REMARK    2  A    between atoms: C_10  and  C_14
REMARK    3  A    between atoms: C_11  and  O_15
REMARK    4  A    between atoms: C_13  and  C_16
REMARK    5  A    between atoms: C_14  and  C_17
REMARK    6  A    between atoms: C_17  and  C_20
REMARK    7  A    between atoms: C_17  and  C_21
REMARK                            x       y       z     vdW  Elec       q    Type
REMARK                         _______ _______ _______ _____ _____    ______ ____
ROOT
ATOM      1 BR   UNL     1      -8.661  49.633  52.047  0.00  0.00    +0.000 Br
ATOM      2  C   UNL     1      -9.475  51.322  51.824  0.00  0.00    +0.000 A 
ATOM      3  C   UNL     1      -9.814  51.752  50.544  0.00  0.00    +0.000 A 
ATOM      4  C   UNL     1      -9.777  52.098  52.931  0.00  0.00    +0.000 A 
ATOM      5  C   UNL     1     -10.508  52.958  50.359  0.00  0.00    +0.000 A 
ATOM      6  C   UNL     1     -10.424  53.320  52.759  0.00  0.00    +0.000 A 
ATOM      7  N   UNL     1     -10.953  53.360  49.059  0.00  0.00    +0.000 N 
ATOM      8  C   UNL     1     -10.817  53.760  51.481  0.00  0.00    +0.000 A 
ATOM      9  C   UNL     1     -11.811  54.442  48.906  0.00  0.00    +0.000 A 
ATOM     10  C   UNL     1     -11.755  54.883  51.308  0.00  0.00    +0.000 A 
ATOM     11  O   UNL     1     -12.103  54.921  47.811  0.00  0.00    +0.000 OA
ATOM     12  C   UNL     1     -12.426  54.957  50.149  0.00  0.00    +0.000 A 
ENDROOT
BRANCH  12  13
ATOM     13  C   UNL     1     -13.784  55.570  50.162  0.00  0.00    +0.000 C 
ATOM     14  N   UNL     1     -14.487  55.544  51.274  0.00  0.00    +0.000 N 
ATOM     15  N   UNL     1     -14.258  56.227  49.030  0.00  0.00    +0.000 N 
ATOM     16  S   UNL     1     -15.793  56.531  51.354  0.00  0.00    +0.000 S 
ATOM     17  C   UNL     1     -14.350  57.613  49.381  0.00  0.00    +0.000 A 
ATOM     18  O   UNL     1     -16.022  56.924  52.715  0.00  0.00    +0.000 OA
ATOM     19  O   UNL     1     -16.842  55.973  50.525  0.00  0.00    +0.000 OA
ATOM     20  C   UNL     1     -15.165  57.967  50.460  0.00  0.00    +0.000 A 
ATOM     21  C   UNL     1     -13.287  58.431  49.022  0.00  0.00    +0.000 A 
ATOM     22  C   UNL     1     -15.041  59.189  51.104  0.00  0.00    +0.000 A 
ATOM     23  C   UNL     1     -13.063  59.601  49.747  0.00  0.00    +0.000 A 
ATOM     24  C   UNL     1     -13.956  59.996  50.748  0.00  0.00    +0.000 A 
ATOM     25  H   UNL     1     -14.239  54.958  52.025  0.00  0.00    +0.000 HD
ATOM     26  H   UNL     1     -14.485  55.820  48.162  0.00  0.00    +0.000 HD
ENDBRANCH  12  13
BRANCH  10  27
ATOM     27  O   UNL     1     -12.103  55.675  52.391  0.00  0.00    +0.000 OA
ATOM     28  H   UNL     1     -11.475  55.853  53.062  0.00  0.00    +0.000 HD
ENDBRANCH  10  27
BRANCH   7  29
ATOM     29  C   UNL     1     -10.704  52.539  47.869  0.00  0.00    +0.000 C 
BRANCH  29  30
ATOM     30  C   UNL     1      -9.284  52.789  47.335  0.00  0.00    +0.000 C 
BRANCH  30  31
ATOM     31  C   UNL     1      -9.211  53.604  46.033  0.00  0.00    +0.000 C 
ATOM     32  C   UNL     1     -10.494  53.515  45.203  0.00  0.00    +0.000 C 
ATOM     33  C   UNL     1      -8.923  55.069  46.377  0.00  0.00    +0.000 C 
ENDBRANCH  30  31
ENDBRANCH  29  30
ENDBRANCH   7  29
TORSDOF 5
ENDMDL
MODEL 3
REMARK VINA RESULT:      -8.1      4.495      7.525
REMARK  Name = 338273
REMARK  7 active torsions:
REMARK  status: ('A' for Active; 'I' for Inactive)
REMARK    1  A    between atoms: N_7  and  C_10
REMARK    2  A    between atoms: C_10  and  C_14
REMARK    3  A    between atoms: C_11  and  O_15
REMARK    4  A    between atoms: C_13  and  C_16
REMARK    5  A    between atoms: C_14  and  C_17
REMARK    6  A    between atoms: C_17  and  C_20
REMARK    7  A    between atoms: C_17  and  C_21
REMARK                            x       y       z     vdW  Elec       q    Type
REMARK                         _______ _______ _______ _____ _____    ______ ____
ROOT
ATOM      1 BR   UNL     1     -11.618  53.612  45.273  0.00  0.00    +0.000 Br
ATOM      2  C   UNL     1     -10.306  54.294  46.448  0.00  0.00    +0.000 A 
ATOM      3  C   UNL     1     -10.635  54.518  47.781  0.00  0.00    +0.000 A 
ATOM      4  C   UNL     1      -9.016  54.516  45.993  0.00  0.00    +0.000 A 
ATOM      5  C   UNL     1      -9.654  54.931  48.697  0.00  0.00    +0.000 A 
ATOM      6  C   UNL     1      -8.042  54.971  46.880  0.00  0.00    +0.000 A 
ATOM      7  N   UNL     1      -9.956  55.065  50.090  0.00  0.00    +0.000 N 
ATOM      8  C   UNL     1      -8.336  55.165  48.243  0.00  0.00    +0.000 A 
ATOM      9  C   UNL     1      -8.944  55.272  51.019  0.00  0.00    +0.000 A 
ATOM     10  C   UNL     1      -7.268  55.349  49.243  0.00  0.00    +0.000 A 
ATOM     11  O   UNL     1      -9.158  55.542  52.200  0.00  0.00    +0.000 OA
ATOM     12  C   UNL     1      -7.564  55.076  50.522  0.00  0.00    +0.000 A 
ENDROOT
BRANCH  12  13
ATOM     13  C   UNL     1      -6.469  54.584  51.405  0.00  0.00    +0.000 C 
ATOM     14  N   UNL     1      -6.126  55.297  52.457  0.00  0.00    +0.000 N 
ATOM     15  N   UNL     1      -5.879  53.348  51.154  0.00  0.00    +0.000 N 
ATOM     16  S   UNL     1      -5.194  54.561  53.585  0.00  0.00    +0.000 S 
ATOM     17  C   UNL     1      -6.249  52.500  52.248  0.00  0.00    +0.000 A 
ATOM     18  O   UNL     1      -5.467  55.117  54.879  0.00  0.00    +0.000 OA
ATOM     19  O   UNL     1      -3.847  54.444  53.063  0.00  0.00    +0.000 OA
ATOM     20  C   UNL     1      -5.890  52.896  53.540  0.00  0.00    +0.000 A 
ATOM     21  C   UNL     1      -7.340  51.661  52.063  0.00  0.00    +0.000 A 
ATOM     22  C   UNL     1      -6.499  52.365  54.667  0.00  0.00    +0.000 A 
ATOM     23  C   UNL     1      -8.051  51.223  53.179  0.00  0.00    +0.000 A 
ATOM     24  C   UNL     1      -7.609  51.537  54.468  0.00  0.00    +0.000 A 
ATOM     25  H   UNL     1      -6.417  56.232  52.561  0.00  0.00    +0.000 HD
ATOM     26  H   UNL     1      -5.321  53.106  50.380  0.00  0.00    +0.000 HD
ENDBRANCH  12  13
BRANCH  10  27
ATOM     27  O   UNL     1      -5.960  55.554  48.836  0.00  0.00    +0.000 OA
ATOM     28  H   UNL     1      -5.539  56.374  49.005  0.00  0.00    +0.000 HD
ENDBRANCH  10  27
BRANCH   7  29
ATOM     29  C   UNL     1     -11.294  54.784  50.621  0.00  0.00    +0.000 C 
BRANCH  29  30
ATOM     30  C   UNL     1     -12.129  56.074  50.676  0.00  0.00    +0.000 C 
BRANCH  30  31
ATOM     31  C   UNL     1     -13.449  55.963  51.457  0.00  0.00    +0.000 C 
ATOM     32  C   UNL     1     -13.597  57.043  52.531  0.00  0.00    +0.000 C 
ATOM     33  C   UNL     1     -14.619  56.055  50.472  0.00  0.00    +0.000 C 
ENDBRANCH  30  31
ENDBRANCH  29  30
ENDBRANCH   7  29
TORSDOF 5
ENDMDL
MODEL 4
REMARK VINA RESULT:      -7.8      2.982      4.598
REMARK  Name = 338273
REMARK  7 active torsions:
REMARK  status: ('A' for Active; 'I' for Inactive)
REMARK    1  A    between atoms: N_7  and  C_10
REMARK    2  A    between atoms: C_10  and  C_14
REMARK    3  A    between atoms: C_11  and  O_15
REMARK    4  A    between atoms: C_13  and  C_16
REMARK    5  A    between atoms: C_14  and  C_17
REMARK    6  A    between atoms: C_17  and  C_20
REMARK    7  A    between atoms: C_17  and  C_21
REMARK                            x       y       z     vdW  Elec       q    Type
REMARK                         _______ _______ _______ _____ _____    ______ ____
ROOT
ATOM      1 BR   UNL     1      -5.213  54.311  51.965  0.00  0.00    +0.000 Br
ATOM      2  C   UNL     1      -6.942  54.667  51.295  0.00  0.00    +0.000 A 
ATOM      3  C   UNL     1      -7.960  53.743  51.511  0.00  0.00    +0.000 A 
ATOM      4  C   UNL     1      -7.200  55.861  50.642  0.00  0.00    +0.000 A 
ATOM      5  C   UNL     1      -9.276  54.027  51.110  0.00  0.00    +0.000 A 
ATOM      6  C   UNL     1      -8.491  56.137  50.196  0.00  0.00    +0.000 A 
ATOM      7  N   UNL     1     -10.350  53.132  51.418  0.00  0.00    +0.000 N 
ATOM      8  C   UNL     1      -9.549  55.241  50.439  0.00  0.00    +0.000 A 
ATOM      9  C   UNL     1     -11.670  53.508  51.204  0.00  0.00    +0.000 A 
ATOM     10  C   UNL     1     -10.956  55.640  50.250  0.00  0.00    +0.000 A 
ATOM     11  O   UNL     1     -12.617  52.730  51.309  0.00  0.00    +0.000 OA
ATOM     12  C   UNL     1     -11.892  54.940  50.908  0.00  0.00    +0.000 A 
ENDROOT
BRANCH  12  13
ATOM     13  C   UNL     1     -13.140  55.646  51.313  0.00  0.00    +0.000 C 
ATOM     14  N   UNL     1     -13.088  56.530  52.285  0.00  0.00    +0.000 N 
ATOM     15  N   UNL     1     -14.322  55.420  50.612  0.00  0.00    +0.000 N 
ATOM     16  S   UNL     1     -14.374  57.533  52.451  0.00  0.00    +0.000 S 
ATOM     17  C   UNL     1     -14.629  56.648  49.941  0.00  0.00    +0.000 A 
ATOM     18  O   UNL     1     -13.944  58.788  52.997  0.00  0.00    +0.000 OA
ATOM     19  O   UNL     1     -15.474  56.779  53.020  0.00  0.00    +0.000 OA
ATOM     20  C   UNL     1     -14.800  57.798  50.718  0.00  0.00    +0.000 A 
ATOM     21  C   UNL     1     -14.236  56.764  48.614  0.00  0.00    +0.000 A 
ATOM     22  C   UNL     1     -14.730  59.071  50.170  0.00  0.00    +0.000 A 
ATOM     23  C   UNL     1     -14.029  58.036  48.082  0.00  0.00    +0.000 A 
ATOM     24  C   UNL     1     -14.315  59.176  48.839  0.00  0.00    +0.000 A 
ATOM     25  H   UNL     1     -12.311  56.588  52.887  0.00  0.00    +0.000 HD
ATOM     26  H   UNL     1     -14.842  54.584  50.582  0.00  0.00    +0.000 HD
ENDBRANCH  12  13
BRANCH  10  27
ATOM     27  O   UNL     1     -11.263  56.836  49.621  0.00  0.00    +0.000 OA
ATOM     28  H   UNL     1     -12.156  57.059  49.449  0.00  0.00    +0.000 HD
ENDBRANCH  10  27
BRANCH   7  29
ATOM     29  C   UNL     1     -10.128  51.885  52.158  0.00  0.00    +0.000 C 
BRANCH  29  30
ATOM     30  C   UNL     1     -10.091  52.160  53.670  0.00  0.00    +0.000 C 
BRANCH  30  31
ATOM     31  C   UNL     1      -8.869  51.588  54.407  0.00  0.00    +0.000 C 
ATOM     32  C   UNL     1      -9.251  50.725  55.612  0.00  0.00    +0.000 C 
ATOM     33  C   UNL     1      -8.039  50.756  53.423  0.00  0.00    +0.000 C 
ENDBRANCH  30  31
ENDBRANCH  29  30
ENDBRANCH   7  29
TORSDOF 5
ENDMDL
MODEL 5
REMARK VINA RESULT:      -7.7      4.072      7.413
REMARK  Name = 338273
REMARK  7 active torsions:
REMARK  status: ('A' for Active; 'I' for Inactive)
REMARK    1  A    between atoms: N_7  and  C_10
REMARK    2  A    between atoms: C_10  and  C_14
REMARK    3  A    between atoms: C_11  and  O_15
REMARK    4  A    between atoms: C_13  and  C_16
REMARK    5  A    between atoms: C_14  and  C_17
REMARK    6  A    between atoms: C_17  and  C_20
REMARK    7  A    between atoms: C_17  and  C_21
REMARK                            x       y       z     vdW  Elec       q    Type
REMARK                         _______ _______ _______ _____ _____    ______ ____
ROOT
ATOM      1 BR   UNL     1     -14.727  58.593  50.423  0.00  0.00    +0.000 Br
ATOM      2  C   UNL     1     -13.583  57.588  49.306  0.00  0.00    +0.000 A 
ATOM      3  C   UNL     1     -12.412  57.054  49.834  0.00  0.00    +0.000 A 
ATOM      4  C   UNL     1     -13.938  57.344  47.989  0.00  0.00    +0.000 A 
ATOM      5  C   UNL     1     -11.593  56.222  49.053  0.00  0.00    +0.000 A 
ATOM      6  C   UNL     1     -13.112  56.559  47.188  0.00  0.00    +0.000 A 
ATOM      7  N   UNL     1     -10.441  55.584  49.615  0.00  0.00    +0.000 N 
ATOM      8  C   UNL     1     -11.944  55.970  47.707  0.00  0.00    +0.000 A 
ATOM      9  C   UNL     1      -9.755  54.607  48.905  0.00  0.00    +0.000 A 
ATOM     10  C   UNL     1     -11.228  54.907  46.979  0.00  0.00    +0.000 A 
ATOM     11  O   UNL     1      -8.680  54.136  49.274  0.00  0.00    +0.000 OA
ATOM     12  C   UNL     1     -10.432  54.097  47.692  0.00  0.00    +0.000 A 
ENDROOT
BRANCH  12  13
ATOM     13  C   UNL     1     -10.255  52.695  47.220  0.00  0.00    +0.000 C 
ATOM     14  N   UNL     1     -11.318  51.938  47.050  0.00  0.00    +0.000 N 
ATOM     15  N   UNL     1      -8.984  52.229  46.894  0.00  0.00    +0.000 N 
ATOM     16  S   UNL     1     -11.119  50.553  46.196  0.00  0.00    +0.000 S 
ATOM     17  C   UNL     1      -8.992  52.006  45.478  0.00  0.00    +0.000 A 
ATOM     18  O   UNL     1     -12.338  50.221  45.518  0.00  0.00    +0.000 OA
ATOM     19  O   UNL     1     -10.412  49.599  47.027  0.00  0.00    +0.000 OA
ATOM     20  C   UNL     1      -9.929  51.108  44.958  0.00  0.00    +0.000 A 
ATOM     21  C   UNL     1      -8.484  53.016  44.672  0.00  0.00    +0.000 A 
ATOM     22  C   UNL     1     -10.268  51.098  43.613  0.00  0.00    +0.000 A 
ATOM     23  C   UNL     1      -8.916  53.105  43.350  0.00  0.00    +0.000 A 
ATOM     24  C   UNL     1      -9.765  52.131  42.815  0.00  0.00    +0.000 A 
ATOM     25  H   UNL     1     -12.194  52.192  47.419  0.00  0.00    +0.000 HD
ATOM     26  H   UNL     1      -8.231  52.083  47.511  0.00  0.00    +0.000 HD
ENDBRANCH  12  13
BRANCH  10  27
ATOM     27  O   UNL     1     -11.562  54.613  45.667  0.00  0.00    +0.000 OA
ATOM     28  H   UNL     1     -12.421  54.804  45.348  0.00  0.00    +0.000 HD
ENDBRANCH  10  27
BRANCH   7  29
ATOM     29  C   UNL     1     -10.063  55.770  51.020  0.00  0.00    +0.000 C 
BRANCH  29  30
ATOM     30  C   UNL     1     -10.851  54.803  51.918  0.00  0.00    +0.000 C 
BRANCH  30  31
ATOM     31  C   UNL     1     -10.106  54.330  53.177  0.00  0.00    +0.000 C 
ATOM     32  C   UNL     1     -10.378  52.862  53.513  0.00  0.00    +0.000 C 
ATOM     33  C   UNL     1      -8.602  54.539  52.974  0.00  0.00    +0.000 C 
ENDBRANCH  30  31
ENDBRANCH  29  30
ENDBRANCH   7  29
TORSDOF 5
ENDMDL
MODEL 6
REMARK VINA RESULT:      -7.6      4.475      6.506
REMARK  Name = 338273
REMARK  7 active torsions:
REMARK  status: ('A' for Active; 'I' for Inactive)
REMARK    1  A    between atoms: N_7  and  C_10
REMARK    2  A    between atoms: C_10  and  C_14
REMARK    3  A    between atoms: C_11  and  O_15
REMARK    4  A    between atoms: C_13  and  C_16
REMARK    5  A    between atoms: C_14  and  C_17
REMARK    6  A    between atoms: C_17  and  C_20
REMARK    7  A    between atoms: C_17  and  C_21
REMARK                            x       y       z     vdW  Elec       q    Type
REMARK                         _______ _______ _______ _____ _____    ______ ____
ROOT
ATOM      1 BR   UNL     1     -13.603  58.866  49.290  0.00  0.00    +0.000 Br
ATOM      2  C   UNL     1     -13.009  57.182  49.905  0.00  0.00    +0.000 A 
ATOM      3  C   UNL     1     -11.825  56.652  49.401  0.00  0.00    +0.000 A 
ATOM      4  C   UNL     1     -13.722  56.510  50.884  0.00  0.00    +0.000 A 
ATOM      5  C   UNL     1     -11.310  55.449  49.912  0.00  0.00    +0.000 A 
ATOM      6  C   UNL     1     -13.248  55.292  51.368  0.00  0.00    +0.000 A 
ATOM      7  N   UNL     1     -10.042  54.947  49.477  0.00  0.00    +0.000 N 
ATOM      8  C   UNL     1     -12.031  54.754  50.909  0.00  0.00    +0.000 A 
ATOM      9  C   UNL     1      -9.443  53.875  50.126  0.00  0.00    +0.000 A 
ATOM     10  C   UNL     1     -11.368  53.640  51.611  0.00  0.00    +0.000 A 
ATOM     11  O   UNL     1      -8.434  53.311  49.705  0.00  0.00    +0.000 OA
ATOM     12  C   UNL     1     -10.051  53.482  51.416  0.00  0.00    +0.000 A 
ENDROOT
BRANCH  12  13
ATOM     13  C   UNL     1      -9.242  52.902  52.525  0.00  0.00    +0.000 C 
ATOM     14  N   UNL     1      -8.377  51.948  52.255  0.00  0.00    +0.000 N 
ATOM     15  N   UNL     1      -9.356  53.424  53.811  0.00  0.00    +0.000 N 
ATOM     16  S   UNL     1      -7.267  51.599  53.410  0.00  0.00    +0.000 S 
ATOM     17  C   UNL     1      -8.097  54.044  54.102  0.00  0.00    +0.000 A 
ATOM     18  O   UNL     1      -6.061  51.123  52.796  0.00  0.00    +0.000 OA
ATOM     19  O   UNL     1      -7.927  50.876  54.478  0.00  0.00    +0.000 OA
ATOM     20  C   UNL     1      -6.945  53.253  54.056  0.00  0.00    +0.000 A 
ATOM     21  C   UNL     1      -8.001  55.415  53.896  0.00  0.00    +0.000 A 
ATOM     22  C   UNL     1      -5.678  53.807  53.953  0.00  0.00    +0.000 A 
ATOM     23  C   UNL     1      -6.746  55.973  53.656  0.00  0.00    +0.000 A 
ATOM     24  C   UNL     1      -5.594  55.184  53.727  0.00  0.00    +0.000 A 
ATOM     25  H   UNL     1      -8.395  51.466  51.397  0.00  0.00    +0.000 HD
ATOM     26  H   UNL     1     -10.142  53.376  54.402  0.00  0.00    +0.000 HD
ENDBRANCH  12  13
BRANCH  10  27
ATOM     27  O   UNL     1     -12.034  52.952  52.612  0.00  0.00    +0.000 OA
ATOM     28  H   UNL     1     -11.762  52.087  52.847  0.00  0.00    +0.000 HD
ENDBRANCH  10  27
BRANCH   7  29
ATOM     29  C   UNL     1      -9.230  55.657  48.483  0.00  0.00    +0.000 C 
BRANCH  29  30
ATOM     30  C   UNL     1      -9.615  55.214  47.062  0.00  0.00    +0.000 C 
BRANCH  30  31
ATOM     31  C   UNL     1      -8.432  54.982  46.109  0.00  0.00    +0.000 C 
ATOM     32  C   UNL     1      -7.161  54.535  46.834  0.00  0.00    +0.000 C 
ATOM     33  C   UNL     1      -8.828  53.926  45.072  0.00  0.00    +0.000 C 
ENDBRANCH  30  31
ENDBRANCH  29  30
ENDBRANCH   7  29
TORSDOF 5
ENDMDL
MODEL 7
REMARK VINA RESULT:      -7.6      4.018      6.467
REMARK  Name = 338273
REMARK  7 active torsions:
REMARK  status: ('A' for Active; 'I' for Inactive)
REMARK    1  A    between atoms: N_7  and  C_10
REMARK    2  A    between atoms: C_10  and  C_14
REMARK    3  A    between atoms: C_11  and  O_15
REMARK    4  A    between atoms: C_13  and  C_16
REMARK    5  A    between atoms: C_14  and  C_17
REMARK    6  A    between atoms: C_17  and  C_20
REMARK    7  A    between atoms: C_17  and  C_21
REMARK                            x       y       z     vdW  Elec       q    Type
REMARK                         _______ _______ _______ _____ _____    ______ ____
ROOT
ATOM      1 BR   UNL     1     -13.989  57.577  47.102  0.00  0.00    +0.000 Br
ATOM      2  C   UNL     1     -13.113  56.644  48.491  0.00  0.00    +0.000 A 
ATOM      3  C   UNL     1     -12.101  55.743  48.174  0.00  0.00    +0.000 A 
ATOM      4  C   UNL     1     -13.443  56.897  49.812  0.00  0.00    +0.000 A 
ATOM      5  C   UNL     1     -11.367  55.110  49.191  0.00  0.00    +0.000 A 
ATOM      6  C   UNL     1     -12.756  56.241  50.832  0.00  0.00    +0.000 A 
ATOM      7  N   UNL     1     -10.257  54.261  48.880  0.00  0.00    +0.000 N 
ATOM      8  C   UNL     1     -11.699  55.358  50.542  0.00  0.00    +0.000 A 
ATOM      9  C   UNL     1      -9.411  53.803  49.882  0.00  0.00    +0.000 A 
ATOM     10  C   UNL     1     -10.773  54.894  51.591  0.00  0.00    +0.000 A 
ATOM     11  O   UNL     1      -8.538  52.957  49.692  0.00  0.00    +0.000 OA
ATOM     12  C   UNL     1      -9.568  54.450  51.203  0.00  0.00    +0.000 A 
ENDROOT
BRANCH  12  13
ATOM     13  C   UNL     1      -8.421  54.626  52.137  0.00  0.00    +0.000 C 
ATOM     14  N   UNL     1      -8.158  53.678  53.012  0.00  0.00    +0.000 N 
ATOM     15  N   UNL     1      -7.601  55.745  52.025  0.00  0.00    +0.000 N 
ATOM     16  S   UNL     1      -6.699  53.736  53.758  0.00  0.00    +0.000 S 
ATOM     17  C   UNL     1      -6.323  55.262  51.594  0.00  0.00    +0.000 A 
ATOM     18  O   UNL     1      -6.272  52.408  54.092  0.00  0.00    +0.000 OA
ATOM     19  O   UNL     1      -6.724  54.809  54.732  0.00  0.00    +0.000 OA
ATOM     20  C   UNL     1      -5.668  54.325  52.399  0.00  0.00    +0.000 A 
ATOM     21  C   UNL     1      -6.048  55.315  50.234  0.00  0.00    +0.000 A 
ATOM     22  C   UNL     1      -4.638  53.533  51.913  0.00  0.00    +0.000 A 
ATOM     23  C   UNL     1      -5.109  54.432  49.701  0.00  0.00    +0.000 A 
ATOM     24  C   UNL     1      -4.382  53.582  50.539  0.00  0.00    +0.000 A 
ATOM     25  H   UNL     1      -8.808  52.966  53.209  0.00  0.00    +0.000 HD
ATOM     26  H   UNL     1      -7.850  56.681  52.204  0.00  0.00    +0.000 HD
ENDBRANCH  12  13
BRANCH  10  27
ATOM     27  O   UNL     1     -11.051  55.142  52.926  0.00  0.00    +0.000 OA
ATOM     28  H   UNL     1     -11.885  55.489  53.175  0.00  0.00    +0.000 HD
ENDBRANCH  10  27
BRANCH   7  29
ATOM     29  C   UNL     1      -9.839  54.013  47.496  0.00  0.00    +0.000 C 
BRANCH  29  30
ATOM     30  C   UNL     1      -8.928  55.148  47.000  0.00  0.00    +0.000 C 
BRANCH  30  31
ATOM     31  C   UNL     1      -7.899  54.739  45.934  0.00  0.00    +0.000 C 
ATOM     32  C   UNL     1      -6.725  53.946  46.512  0.00  0.00    +0.000 C 
ATOM     33  C   UNL     1      -8.602  53.904  44.858  0.00  0.00    +0.000 C 
ENDBRANCH  30  31
ENDBRANCH  29  30
ENDBRANCH   7  29
TORSDOF 5
ENDMDL
MODEL 8
REMARK VINA RESULT:      -7.4      3.980      6.658
REMARK  Name = 338273
REMARK  7 active torsions:
REMARK  status: ('A' for Active; 'I' for Inactive)
REMARK    1  A    between atoms: N_7  and  C_10
REMARK    2  A    between atoms: C_10  and  C_14
REMARK    3  A    between atoms: C_11  and  O_15
REMARK    4  A    between atoms: C_13  and  C_16
REMARK    5  A    between atoms: C_14  and  C_17
REMARK    6  A    between atoms: C_17  and  C_20
REMARK    7  A    between atoms: C_17  and  C_21
REMARK                            x       y       z     vdW  Elec       q    Type
REMARK                         _______ _______ _______ _____ _____    ______ ____
ROOT
ATOM      1 BR   UNL     1     -13.968  58.744  49.162  0.00  0.00    +0.000 Br
ATOM      2  C   UNL     1     -13.184  57.196  49.907  0.00  0.00    +0.000 A 
ATOM      3  C   UNL     1     -12.425  56.358  49.096  0.00  0.00    +0.000 A 
ATOM      4  C   UNL     1     -13.324  56.930  51.260  0.00  0.00    +0.000 A 
ATOM      5  C   UNL     1     -11.750  55.255  49.645  0.00  0.00    +0.000 A 
ATOM      6  C   UNL     1     -12.700  55.813  51.810  0.00  0.00    +0.000 A 
ATOM      7  N   UNL     1     -10.883  54.447  48.842  0.00  0.00    +0.000 N 
ATOM      8  C   UNL     1     -11.890  54.973  51.023  0.00  0.00    +0.000 A 
ATOM      9  C   UNL     1     -10.064  53.489  49.426  0.00  0.00    +0.000 A 
ATOM     10  C   UNL     1     -10.989  53.978  51.633  0.00  0.00    +0.000 A 
ATOM     11  O   UNL     1      -9.416  52.670  48.775  0.00  0.00    +0.000 OA
ATOM     12  C   UNL     1      -9.951  53.550  50.899  0.00  0.00    +0.000 A 
ENDROOT
BRANCH  12  13
ATOM     13  C   UNL     1      -8.709  53.141  51.614  0.00  0.00    +0.000 C 
ATOM     14  N   UNL     1      -8.274  51.906  51.485  0.00  0.00    +0.000 N 
ATOM     15  N   UNL     1      -7.986  54.083  52.341  0.00  0.00    +0.000 N 
ATOM     16  S   UNL     1      -6.740  51.600  51.975  0.00  0.00    +0.000 S 
ATOM     17  C   UNL     1      -6.744  54.254  51.648  0.00  0.00    +0.000 A 
ATOM     18  O   UNL     1      -6.187  50.530  51.197  0.00  0.00    +0.000 OA
ATOM     19  O   UNL     1      -6.712  51.597  53.423  0.00  0.00    +0.000 OA
ATOM     20  C   UNL     1      -5.930  53.131  51.466  0.00  0.00    +0.000 A 
ATOM     21  C   UNL     1      -6.647  55.325  50.768  0.00  0.00    +0.000 A 
ATOM     22  C   UNL     1      -4.920  53.102  50.516  0.00  0.00    +0.000 A 
ATOM     23  C   UNL     1      -5.727  55.257  49.723  0.00  0.00    +0.000 A 
ATOM     24  C   UNL     1      -4.844  54.177  49.625  0.00  0.00    +0.000 A 
ATOM     25  H   UNL     1      -8.845  51.197  51.111  0.00  0.00    +0.000 HD
ATOM     26  H   UNL     1      -8.272  54.541  53.165  0.00  0.00    +0.000 HD
ENDBRANCH  12  13
BRANCH  10  27
ATOM     27  O   UNL     1     -11.078  53.694  52.986  0.00  0.00    +0.000 OA
ATOM     28  H   UNL     1     -11.299  52.829  53.271  0.00  0.00    +0.000 HD
ENDBRANCH  10  27
BRANCH   7  29
ATOM     29  C   UNL     1     -10.664  54.728  47.419  0.00  0.00    +0.000 C 
BRANCH  29  30
ATOM     30  C   UNL     1      -9.327  55.462  47.220  0.00  0.00    +0.000 C 
BRANCH  30  31
ATOM     31  C   UNL     1      -8.458  54.931  46.069  0.00  0.00    +0.000 C 
ATOM     32  C   UNL     1      -7.130  54.341  46.549  0.00  0.00    +0.000 C 
ATOM     33  C   UNL     1      -9.245  53.863  45.301  0.00  0.00    +0.000 C 
ENDBRANCH  30  31
ENDBRANCH  29  30
ENDBRANCH   7  29
TORSDOF 5
ENDMDL
MODEL 9
REMARK VINA RESULT:      -7.2      3.997      7.308
REMARK  Name = 338273
REMARK  7 active torsions:
REMARK  status: ('A' for Active; 'I' for Inactive)
REMARK    1  A    between atoms: N_7  and  C_10
REMARK    2  A    between atoms: C_10  and  C_14
REMARK    3  A    between atoms: C_11  and  O_15
REMARK    4  A    between atoms: C_13  and  C_16
REMARK    5  A    between atoms: C_14  and  C_17
REMARK    6  A    between atoms: C_17  and  C_20
REMARK    7  A    between atoms: C_17  and  C_21
REMARK                            x       y       z     vdW  Elec       q    Type
REMARK                         _______ _______ _______ _____ _____    ______ ____
ROOT
ATOM      1 BR   UNL     1     -15.487  56.884  52.247  0.00  0.00    +0.000 Br
ATOM      2  C   UNL     1     -14.247  56.644  50.843  0.00  0.00    +0.000 A 
ATOM      3  C   UNL     1     -13.095  55.898  51.071  0.00  0.00    +0.000 A 
ATOM      4  C   UNL     1     -14.512  57.165  49.587  0.00  0.00    +0.000 A 
ATOM      5  C   UNL     1     -12.206  55.621  50.020  0.00  0.00    +0.000 A 
ATOM      6  C   UNL     1     -13.616  56.939  48.544  0.00  0.00    +0.000 A 
ATOM      7  N   UNL     1     -11.072  54.769  50.217  0.00  0.00    +0.000 N 
ATOM      8  C   UNL     1     -12.465  56.151  48.735  0.00  0.00    +0.000 A 
ATOM      9  C   UNL     1     -10.315  54.334  49.137  0.00  0.00    +0.000 A 
ATOM     10  C   UNL     1     -11.674  55.654  47.595  0.00  0.00    +0.000 A 
ATOM     11  O   UNL     1      -9.252  53.728  49.261  0.00  0.00    +0.000 OA
ATOM     12  C   UNL     1     -10.900  54.578  47.801  0.00  0.00    +0.000 A 
ENDROOT
BRANCH  12  13
ATOM     13  C   UNL     1     -10.653  53.662  46.652  0.00  0.00    +0.000 C 
ATOM     14  N   UNL     1      -9.428  53.242  46.420  0.00  0.00    +0.000 N 
ATOM     15  N   UNL     1     -11.724  53.202  45.890  0.00  0.00    +0.000 N 
ATOM     16  S   UNL     1      -9.254  51.973  45.398  0.00  0.00    +0.000 S 
ATOM     17  C   UNL     1     -11.817  51.794  46.141  0.00  0.00    +0.000 A 
ATOM     18  O   UNL     1      -8.088  51.218  45.755  0.00  0.00    +0.000 OA
ATOM     19  O   UNL     1      -9.491  52.436  44.045  0.00  0.00    +0.000 OA
ATOM     20  C   UNL     1     -10.705  50.998  45.849  0.00  0.00    +0.000 A 
ATOM     21  C   UNL     1     -12.730  51.377  47.100  0.00  0.00    +0.000 A 
ATOM     22  C   UNL     1     -10.552  49.727  46.383  0.00  0.00    +0.000 A 
ATOM     23  C   UNL     1     -12.520  50.160  47.747  0.00  0.00    +0.000 A 
ATOM     24  C   UNL     1     -11.466  49.326  47.361  0.00  0.00    +0.000 A 
ATOM     25  H   UNL     1      -8.649  53.672  46.842  0.00  0.00    +0.000 HD
ATOM     26  H   UNL     1     -12.302  53.737  45.298  0.00  0.00    +0.000 HD
ENDBRANCH  12  13
BRANCH  10  27
ATOM     27  O   UNL     1     -11.918  56.130  46.317  0.00  0.00    +0.000 OA
ATOM     28  H   UNL     1     -11.259  56.620  45.866  0.00  0.00    +0.000 HD
ENDBRANCH  10  27
BRANCH   7  29
ATOM     29  C   UNL     1     -10.788  54.152  51.517  0.00  0.00    +0.000 C 
BRANCH  29  30
ATOM     30  C   UNL     1      -9.982  55.118  52.402  0.00  0.00    +0.000 C 
BRANCH  30  31
ATOM     31  C   UNL     1      -9.314  54.474  53.628  0.00  0.00    +0.000 C 
ATOM     32  C   UNL     1      -9.107  52.966  53.470  0.00  0.00    +0.000 C 
ATOM     33  C   UNL     1      -7.963  55.154  53.872  0.00  0.00    +0.000 C 
ENDBRANCH  30  31
ENDBRANCH  29  30
ENDBRANCH   7  29
TORSDOF 5
ENDMDL
