MODEL 1
REMARK VINA RESULT:      -8.6      0.000      0.000
REMARK  Name = 338168
REMARK  5 active torsions:
REMARK  status: ('A' for Active; 'I' for Inactive)
REMARK    1  A    between atoms: C_6  and  C_10
REMARK    2  A    between atoms: C_14  and  O_18
REMARK    3  A    between atoms: N_17  and  C_21
REMARK    4  A    between atoms: C_21  and  C_24
REMARK    5  A    between atoms: C_24  and  C_27
REMARK                            x       y       z     vdW  Elec       q    Type
REMARK                         _______ _______ _______ _____ _____    ______ ____
ROOT
ATOM      1  C   UNL     1      -9.988  54.553  52.365  0.00  0.00    +0.000 A 
ATOM      2  C   UNL     1      -8.596  55.062  52.260  0.00  0.00    +0.000 A 
ATOM      3  C   UNL     1     -10.242  53.420  53.041  0.00  0.00    +0.000 A 
ATOM      4  O   UNL     1      -8.393  56.008  51.494  0.00  0.00    +0.000 OA
ATOM      5  N   UNL     1      -7.600  54.481  53.048  0.00  0.00    +0.000 N 
ATOM      6  C   UNL     1      -9.164  52.709  53.734  0.00  0.00    +0.000 A 
ATOM      7  C   UNL     1      -7.861  53.249  53.754  0.00  0.00    +0.000 A 
ATOM      8  C   UNL     1      -9.442  51.509  54.416  0.00  0.00    +0.000 A 
ATOM      9  C   UNL     1      -6.869  52.555  54.468  0.00  0.00    +0.000 A 
ATOM     10  C   UNL     1      -8.449  50.864  55.134  0.00  0.00    +0.000 A 
ATOM     11  C   UNL     1      -7.165  51.379  55.168  0.00  0.00    +0.000 A 
ATOM     12  F   UNL     1      -8.737  49.745  55.809  0.00  0.00    +0.000 F 
ENDROOT
BRANCH   1  18
ATOM     13  S   UNL     1     -12.376  55.781  49.426  0.00  0.00    +0.000 S 
ATOM     14  O   UNL     1     -13.049  54.531  49.148  0.00  0.00    +0.000 OA
ATOM     15  O   UNL     1     -11.944  56.670  48.371  0.00  0.00    +0.000 OA
ATOM     16  N   UNL     1     -11.051  55.463  50.356  0.00  0.00    +0.000 N 
ATOM     17  C   UNL     1     -13.367  56.691  50.532  0.00  0.00    +0.000 A 
ATOM     18  C   UNL     1     -11.126  55.281  51.733  0.00  0.00    +0.000 C 
ATOM     19  C   UNL     1     -13.105  56.551  51.890  0.00  0.00    +0.000 A 
ATOM     20  C   UNL     1     -14.356  57.549  50.044  0.00  0.00    +0.000 A 
ATOM     21  N   UNL     1     -12.117  55.723  52.445  0.00  0.00    +0.000 N 
ATOM     22  C   UNL     1     -13.863  57.320  52.779  0.00  0.00    +0.000 A 
ATOM     23  C   UNL     1     -15.109  58.296  50.949  0.00  0.00    +0.000 A 
ATOM     24  C   UNL     1     -14.859  58.186  52.315  0.00  0.00    +0.000 A 
ATOM     25  H   UNL     1     -10.171  55.400  49.918  0.00  0.00    +0.000 HD
ATOM     26  H   UNL     1     -12.178  55.471  53.395  0.00  0.00    +0.000 HD
ENDBRANCH   1  18
BRANCH   3  27
ATOM     27  O   UNL     1     -11.497  52.847  53.176  0.00  0.00    +0.000 OA
ATOM     28  H   UNL     1     -12.065  52.782  52.434  0.00  0.00    +0.000 HD
ENDBRANCH   3  27
BRANCH   5  29
ATOM     29  C   UNL     1      -6.224  55.024  52.986  0.00  0.00    +0.000 C 
BRANCH  29  30
ATOM     30  C   UNL     1      -5.211  54.235  52.136  0.00  0.00    +0.000 C 
BRANCH  30  31
ATOM     31  C   UNL     1      -5.338  54.502  50.662  0.00  0.00    +0.000 C 
ATOM     32  C   UNL     1      -6.145  53.639  49.729  0.00  0.00    +0.000 C 
ATOM     33  C   UNL     1      -4.646  53.561  49.706  0.00  0.00    +0.000 C 
ENDBRANCH  30  31
ENDBRANCH  29  30
ENDBRANCH   5  29
TORSDOF 5
ENDMDL
MODEL 2
REMARK VINA RESULT:      -8.3      3.866      7.423
REMARK  Name = 338168
REMARK  5 active torsions:
REMARK  status: ('A' for Active; 'I' for Inactive)
REMARK    1  A    between atoms: C_6  and  C_10
REMARK    2  A    between atoms: C_14  and  O_18
REMARK    3  A    between atoms: N_17  and  C_21
REMARK    4  A    between atoms: C_21  and  C_24
REMARK    5  A    between atoms: C_24  and  C_27
REMARK                            x       y       z     vdW  Elec       q    Type
REMARK                         _______ _______ _______ _____ _____    ______ ____
ROOT
ATOM      1  C   UNL     1     -10.173  55.098  50.820  0.00  0.00    +0.000 A 
ATOM      2  C   UNL     1      -9.816  55.161  49.379  0.00  0.00    +0.000 A 
ATOM      3  C   UNL     1     -11.366  55.550  51.240  0.00  0.00    +0.000 A 
ATOM      4  O   UNL     1      -8.654  54.889  49.069  0.00  0.00    +0.000 OA
ATOM      5  N   UNL     1     -10.807  55.483  48.449  0.00  0.00    +0.000 N 
ATOM      6  C   UNL     1     -12.352  56.052  50.279  0.00  0.00    +0.000 A 
ATOM      7  C   UNL     1     -12.081  55.996  48.896  0.00  0.00    +0.000 A 
ATOM      8  C   UNL     1     -13.587  56.547  50.738  0.00  0.00    +0.000 A 
ATOM      9  C   UNL     1     -13.074  56.447  48.010  0.00  0.00    +0.000 A 
ATOM     10  C   UNL     1     -14.557  56.956  49.838  0.00  0.00    +0.000 A 
ATOM     11  C   UNL     1     -14.311  56.908  48.476  0.00  0.00    +0.000 A 
ATOM     12  F   UNL     1     -15.741  57.390  50.286  0.00  0.00    +0.000 F 
ENDROOT
BRANCH   1  18
ATOM     13  S   UNL     1      -6.880  54.900  53.051  0.00  0.00    +0.000 S 
ATOM     14  O   UNL     1      -7.159  55.991  53.958  0.00  0.00    +0.000 OA
ATOM     15  O   UNL     1      -5.562  54.676  52.503  0.00  0.00    +0.000 OA
ATOM     16  N   UNL     1      -7.918  55.007  51.773  0.00  0.00    +0.000 N 
ATOM     17  C   UNL     1      -7.411  53.423  53.808  0.00  0.00    +0.000 A 
ATOM     18  C   UNL     1      -9.226  54.533  51.826  0.00  0.00    +0.000 C 
ATOM     19  C   UNL     1      -8.699  52.985  53.522  0.00  0.00    +0.000 A 
ATOM     20  C   UNL     1      -6.543  52.708  54.636  0.00  0.00    +0.000 A 
ATOM     21  N   UNL     1      -9.614  53.644  52.686  0.00  0.00    +0.000 N 
ATOM     22  C   UNL     1      -9.111  51.772  54.085  0.00  0.00    +0.000 A 
ATOM     23  C   UNL     1      -6.979  51.508  55.198  0.00  0.00    +0.000 A 
ATOM     24  C   UNL     1      -8.260  51.039  54.918  0.00  0.00    +0.000 A 
ATOM     25  H   UNL     1      -7.599  55.422  50.939  0.00  0.00    +0.000 HD
ATOM     26  H   UNL     1     -10.572  53.425  52.755  0.00  0.00    +0.000 HD
ENDBRANCH   1  18
BRANCH   3  27
ATOM     27  O   UNL     1     -11.784  55.562  52.562  0.00  0.00    +0.000 OA
ATOM     28  H   UNL     1     -11.314  55.072  53.207  0.00  0.00    +0.000 HD
ENDBRANCH   3  27
BRANCH   5  29
ATOM     29  C   UNL     1     -10.468  55.491  47.008  0.00  0.00    +0.000 C 
BRANCH  29  30
ATOM     30  C   UNL     1     -10.291  54.117  46.336  0.00  0.00    +0.000 C 
BRANCH  30  31
ATOM     31  C   UNL     1     -11.271  53.870  45.222  0.00  0.00    +0.000 C 
ATOM     32  C   UNL     1     -12.041  52.587  45.064  0.00  0.00    +0.000 C 
ATOM     33  C   UNL     1     -10.890  52.882  44.147  0.00  0.00    +0.000 C 
ENDBRANCH  30  31
ENDBRANCH  29  30
ENDBRANCH   5  29
TORSDOF 5
ENDMDL
MODEL 3
REMARK VINA RESULT:      -8.3      3.847      5.429
REMARK  Name = 338168
REMARK  5 active torsions:
REMARK  status: ('A' for Active; 'I' for Inactive)
REMARK    1  A    between atoms: C_6  and  C_10
REMARK    2  A    between atoms: C_14  and  O_18
REMARK    3  A    between atoms: N_17  and  C_21
REMARK    4  A    between atoms: C_21  and  C_24
REMARK    5  A    between atoms: C_24  and  C_27
REMARK                            x       y       z     vdW  Elec       q    Type
REMARK                         _______ _______ _______ _____ _____    ______ ____
ROOT
ATOM      1  C   UNL     1     -11.504  55.787  48.956  0.00  0.00    +0.000 A 
ATOM      2  C   UNL     1     -10.412  55.113  49.704  0.00  0.00    +0.000 A 
ATOM      3  C   UNL     1     -11.692  55.523  47.652  0.00  0.00    +0.000 A 
ATOM      4  O   UNL     1     -10.177  55.510  50.848  0.00  0.00    +0.000 OA
ATOM      5  N   UNL     1      -9.734  54.050  49.102  0.00  0.00    +0.000 N 
ATOM      6  C   UNL     1     -10.866  54.525  46.968  0.00  0.00    +0.000 A 
ATOM      7  C   UNL     1      -9.913  53.781  47.695  0.00  0.00    +0.000 A 
ATOM      8  C   UNL     1     -11.057  54.279  45.596  0.00  0.00    +0.000 A 
ATOM      9  C   UNL     1      -9.174  52.803  47.007  0.00  0.00    +0.000 A 
ATOM     10  C   UNL     1     -10.334  53.288  44.953  0.00  0.00    +0.000 A 
ATOM     11  C   UNL     1      -9.395  52.545  45.649  0.00  0.00    +0.000 A 
ATOM     12  F   UNL     1     -10.553  53.039  43.656  0.00  0.00    +0.000 F 
ENDROOT
BRANCH   1  18
ATOM     13  S   UNL     1     -13.518  59.187  49.449  0.00  0.00    +0.000 S 
ATOM     14  O   UNL     1     -14.509  59.012  48.409  0.00  0.00    +0.000 OA
ATOM     15  O   UNL     1     -12.879  60.460  49.692  0.00  0.00    +0.000 OA
ATOM     16  N   UNL     1     -12.314  58.085  49.210  0.00  0.00    +0.000 N 
ATOM     17  C   UNL     1     -14.208  58.630  50.948  0.00  0.00    +0.000 A 
ATOM     18  C   UNL     1     -12.413  56.761  49.628  0.00  0.00    +0.000 C 
ATOM     19  C   UNL     1     -13.971  57.308  51.309  0.00  0.00    +0.000 A 
ATOM     20  C   UNL     1     -14.936  59.508  51.755  0.00  0.00    +0.000 A 
ATOM     21  N   UNL     1     -13.236  56.379  50.556  0.00  0.00    +0.000 N 
ATOM     22  C   UNL     1     -14.478  56.870  52.537  0.00  0.00    +0.000 A 
ATOM     23  C   UNL     1     -15.443  59.047  52.969  0.00  0.00    +0.000 A 
ATOM     24  C   UNL     1     -15.210  57.732  53.362  0.00  0.00    +0.000 A 
ATOM     25  H   UNL     1     -11.491  58.376  48.754  0.00  0.00    +0.000 HD
ATOM     26  H   UNL     1     -13.347  55.418  50.735  0.00  0.00    +0.000 HD
ENDBRANCH   1  18
BRANCH   3  27
ATOM     27  O   UNL     1     -12.661  56.117  46.859  0.00  0.00    +0.000 OA
ATOM     28  H   UNL     1     -13.203  55.590  46.306  0.00  0.00    +0.000 HD
ENDBRANCH   3  27
BRANCH   5  29
ATOM     29  C   UNL     1      -8.684  53.340  49.867  0.00  0.00    +0.000 C 
BRANCH  29  30
ATOM     30  C   UNL     1      -7.479  54.182  50.325  0.00  0.00    +0.000 C 
BRANCH  30  31
ATOM     31  C   UNL     1      -6.775  54.877  49.192  0.00  0.00    +0.000 C 
ATOM     32  C   UNL     1      -5.894  54.164  48.201  0.00  0.00    +0.000 C 
ATOM     33  C   UNL     1      -5.274  55.019  49.268  0.00  0.00    +0.000 C 
ENDBRANCH  30  31
ENDBRANCH  29  30
ENDBRANCH   5  29
TORSDOF 5
ENDMDL
MODEL 4
REMARK VINA RESULT:      -8.3      4.625      7.955
REMARK  Name = 338168
REMARK  5 active torsions:
REMARK  status: ('A' for Active; 'I' for Inactive)
REMARK    1  A    between atoms: C_6  and  C_10
REMARK    2  A    between atoms: C_14  and  O_18
REMARK    3  A    between atoms: N_17  and  C_21
REMARK    4  A    between atoms: C_21  and  C_24
REMARK    5  A    between atoms: C_24  and  C_27
REMARK                            x       y       z     vdW  Elec       q    Type
REMARK                         _______ _______ _______ _____ _____    ______ ____
ROOT
ATOM      1  C   UNL     1     -10.752  54.880  47.722  0.00  0.00    +0.000 A 
ATOM      2  C   UNL     1     -12.024  55.640  47.605  0.00  0.00    +0.000 A 
ATOM      3  C   UNL     1     -10.198  54.673  48.928  0.00  0.00    +0.000 A 
ATOM      4  O   UNL     1     -12.402  55.943  46.471  0.00  0.00    +0.000 OA
ATOM      5  N   UNL     1     -12.742  55.941  48.764  0.00  0.00    +0.000 N 
ATOM      6  C   UNL     1     -10.869  55.139  50.145  0.00  0.00    +0.000 A 
ATOM      7  C   UNL     1     -12.140  55.746  50.062  0.00  0.00    +0.000 A 
ATOM      8  C   UNL     1     -10.262  54.939  51.399  0.00  0.00    +0.000 A 
ATOM      9  C   UNL     1     -12.764  56.137  51.259  0.00  0.00    +0.000 A 
ATOM     10  C   UNL     1     -10.917  55.309  52.562  0.00  0.00    +0.000 A 
ATOM     11  C   UNL     1     -12.165  55.905  52.502  0.00  0.00    +0.000 A 
ATOM     12  F   UNL     1     -10.345  55.078  53.750  0.00  0.00    +0.000 F 
ENDROOT
BRANCH   1  18
ATOM     13  S   UNL     1      -7.808  54.355  45.094  0.00  0.00    +0.000 S 
ATOM     14  O   UNL     1      -6.896  53.604  45.928  0.00  0.00    +0.000 OA
ATOM     15  O   UNL     1      -7.350  55.392  44.197  0.00  0.00    +0.000 OA
ATOM     16  N   UNL     1      -8.959  55.033  46.061  0.00  0.00    +0.000 N 
ATOM     17  C   UNL     1      -8.753  53.219  44.172  0.00  0.00    +0.000 A 
ATOM     18  C   UNL     1     -10.069  54.328  46.516  0.00  0.00    +0.000 C 
ATOM     19  C   UNL     1      -9.977  52.826  44.703  0.00  0.00    +0.000 A 
ATOM     20  C   UNL     1      -8.293  52.764  42.934  0.00  0.00    +0.000 A 
ATOM     21  N   UNL     1     -10.506  53.257  45.929  0.00  0.00    +0.000 N 
ATOM     22  C   UNL     1     -10.764  51.955  43.942  0.00  0.00    +0.000 A 
ATOM     23  C   UNL     1      -9.088  51.886  42.198  0.00  0.00    +0.000 A 
ATOM     24  C   UNL     1     -10.324  51.486  42.699  0.00  0.00    +0.000 A 
ATOM     25  H   UNL     1      -8.856  55.976  46.328  0.00  0.00    +0.000 HD
ATOM     26  H   UNL     1     -11.225  52.734  46.354  0.00  0.00    +0.000 HD
ENDBRANCH   1  18
BRANCH   3  27
ATOM     27  O   UNL     1      -9.004  54.003  49.143  0.00  0.00    +0.000 OA
ATOM     28  H   UNL     1      -8.524  53.656  48.418  0.00  0.00    +0.000 HD
ENDBRANCH   3  27
BRANCH   5  29
ATOM     29  C   UNL     1     -14.037  56.649  48.646  0.00  0.00    +0.000 C 
BRANCH  29  30
ATOM     30  C   UNL     1     -13.974  58.135  48.247  0.00  0.00    +0.000 C 
BRANCH  30  31
ATOM     31  C   UNL     1     -13.705  59.051  49.410  0.00  0.00    +0.000 C 
ATOM     32  C   UNL     1     -14.697  59.304  50.513  0.00  0.00    +0.000 C 
ATOM     33  C   UNL     1     -14.455  60.359  49.473  0.00  0.00    +0.000 C 
ENDBRANCH  30  31
ENDBRANCH  29  30
ENDBRANCH   5  29
TORSDOF 5
ENDMDL
MODEL 5
REMARK VINA RESULT:      -8.2      3.669      7.275
REMARK  Name = 338168
REMARK  5 active torsions:
REMARK  status: ('A' for Active; 'I' for Inactive)
REMARK    1  A    between atoms: C_6  and  C_10
REMARK    2  A    between atoms: C_14  and  O_18
REMARK    3  A    between atoms: N_17  and  C_21
REMARK    4  A    between atoms: C_21  and  C_24
REMARK    5  A    between atoms: C_24  and  C_27
REMARK                            x       y       z     vdW  Elec       q    Type
REMARK                         _______ _______ _______ _____ _____    ______ ____
ROOT
ATOM      1  C   UNL     1     -10.158  55.446  50.483  0.00  0.00    +0.000 A 
ATOM      2  C   UNL     1     -10.331  55.698  49.028  0.00  0.00    +0.000 A 
ATOM      3  C   UNL     1     -11.191  55.618  51.325  0.00  0.00    +0.000 A 
ATOM      4  O   UNL     1      -9.318  55.686  48.326  0.00  0.00    +0.000 OA
ATOM      5  N   UNL     1     -11.618  55.898  48.524  0.00  0.00    +0.000 N 
ATOM      6  C   UNL     1     -12.512  55.996  50.815  0.00  0.00    +0.000 A 
ATOM      7  C   UNL     1     -12.726  56.111  49.425  0.00  0.00    +0.000 A 
ATOM      8  C   UNL     1     -13.577  56.198  51.713  0.00  0.00    +0.000 A 
ATOM      9  C   UNL     1     -14.020  56.431  48.981  0.00  0.00    +0.000 A 
ATOM     10  C   UNL     1     -14.847  56.484  51.241  0.00  0.00    +0.000 A 
ATOM     11  C   UNL     1     -15.078  56.600  49.881  0.00  0.00    +0.000 A 
ATOM     12  F   UNL     1     -15.858  56.638  52.105  0.00  0.00    +0.000 F 
ENDROOT
BRANCH   1  18
ATOM     13  S   UNL     1      -6.555  53.751  50.463  0.00  0.00    +0.000 S 
ATOM     14  O   UNL     1      -5.854  54.727  49.657  0.00  0.00    +0.000 OA
ATOM     15  O   UNL     1      -6.347  52.331  50.301  0.00  0.00    +0.000 OA
ATOM     16  N   UNL     1      -8.176  54.018  50.310  0.00  0.00    +0.000 N 
ATOM     17  C   UNL     1      -6.294  54.150  52.139  0.00  0.00    +0.000 A 
ATOM     18  C   UNL     1      -8.849  54.995  51.037  0.00  0.00    +0.000 C 
ATOM     19  C   UNL     1      -7.241  54.957  52.760  0.00  0.00    +0.000 A 
ATOM     20  C   UNL     1      -5.186  53.637  52.817  0.00  0.00    +0.000 A 
ATOM     21  N   UNL     1      -8.384  55.490  52.143  0.00  0.00    +0.000 N 
ATOM     22  C   UNL     1      -7.064  55.236  54.119  0.00  0.00    +0.000 A 
ATOM     23  C   UNL     1      -5.021  53.940  54.169  0.00  0.00    +0.000 A 
ATOM     24  C   UNL     1      -5.962  54.734  54.819  0.00  0.00    +0.000 A 
ATOM     25  H   UNL     1      -8.689  53.462  49.679  0.00  0.00    +0.000 HD
ATOM     26  H   UNL     1      -8.842  56.256  52.558  0.00  0.00    +0.000 HD
ENDBRANCH   1  18
BRANCH   3  27
ATOM     27  O   UNL     1     -11.127  55.437  52.697  0.00  0.00    +0.000 OA
ATOM     28  H   UNL     1     -11.708  55.910  53.260  0.00  0.00    +0.000 HD
ENDBRANCH   3  27
BRANCH   5  29
ATOM     29  C   UNL     1     -11.799  56.093  47.067  0.00  0.00    +0.000 C 
BRANCH  29  30
ATOM     30  C   UNL     1     -12.086  54.830  46.235  0.00  0.00    +0.000 C 
BRANCH  30  31
ATOM     31  C   UNL     1     -10.852  54.238  45.610  0.00  0.00    +0.000 C 
ATOM     32  C   UNL     1     -10.888  53.133  44.589  0.00  0.00    +0.000 C 
ATOM     33  C   UNL     1     -10.463  52.832  45.997  0.00  0.00    +0.000 C 
ENDBRANCH  30  31
ENDBRANCH  29  30
ENDBRANCH   5  29
TORSDOF 5
ENDMDL
MODEL 6
REMARK VINA RESULT:      -8.2      3.989      5.825
REMARK  Name = 338168
REMARK  5 active torsions:
REMARK  status: ('A' for Active; 'I' for Inactive)
REMARK    1  A    between atoms: C_6  and  C_10
REMARK    2  A    between atoms: C_14  and  O_18
REMARK    3  A    between atoms: N_17  and  C_21
REMARK    4  A    between atoms: C_21  and  C_24
REMARK    5  A    between atoms: C_24  and  C_27
REMARK                            x       y       z     vdW  Elec       q    Type
REMARK                         _______ _______ _______ _____ _____    ______ ____
ROOT
ATOM      1  C   UNL     1     -11.513  55.848  48.904  0.00  0.00    +0.000 A 
ATOM      2  C   UNL     1     -10.374  55.215  49.618  0.00  0.00    +0.000 A 
ATOM      3  C   UNL     1     -11.745  55.559  47.613  0.00  0.00    +0.000 A 
ATOM      4  O   UNL     1     -10.105  55.636  50.745  0.00  0.00    +0.000 OA
ATOM      5  N   UNL     1      -9.692  54.161  49.005  0.00  0.00    +0.000 N 
ATOM      6  C   UNL     1     -10.920  54.572  46.911  0.00  0.00    +0.000 A 
ATOM      7  C   UNL     1      -9.919  53.865  47.610  0.00  0.00    +0.000 A 
ATOM      8  C   UNL     1     -11.160  54.300  45.551  0.00  0.00    +0.000 A 
ATOM      9  C   UNL     1      -9.183  52.896  46.907  0.00  0.00    +0.000 A 
ATOM     10  C   UNL     1     -10.436  53.319  44.894  0.00  0.00    +0.000 A 
ATOM     11  C   UNL     1      -9.450  52.612  45.562  0.00  0.00    +0.000 A 
ATOM     12  F   UNL     1     -10.700  53.044  43.611  0.00  0.00    +0.000 F 
ENDROOT
BRANCH   1  18
ATOM     13  S   UNL     1     -13.533  59.233  49.466  0.00  0.00    +0.000 S 
ATOM     14  O   UNL     1     -14.529  59.073  48.430  0.00  0.00    +0.000 OA
ATOM     15  O   UNL     1     -12.896  60.504  49.728  0.00  0.00    +0.000 OA
ATOM     16  N   UNL     1     -12.327  58.139  49.202  0.00  0.00    +0.000 N 
ATOM     17  C   UNL     1     -14.212  58.649  50.960  0.00  0.00    +0.000 A 
ATOM     18  C   UNL     1     -12.420  56.808  49.598  0.00  0.00    +0.000 C 
ATOM     19  C   UNL     1     -13.970  57.322  51.298  0.00  0.00    +0.000 A 
ATOM     20  C   UNL     1     -14.937  59.512  51.786  0.00  0.00    +0.000 A 
ATOM     21  N   UNL     1     -13.236  56.409  50.524  0.00  0.00    +0.000 N 
ATOM     22  C   UNL     1     -14.468  56.863  52.522  0.00  0.00    +0.000 A 
ATOM     23  C   UNL     1     -15.436  59.029  52.995  0.00  0.00    +0.000 A 
ATOM     24  C   UNL     1     -15.197  57.708  53.365  0.00  0.00    +0.000 A 
ATOM     25  H   UNL     1     -11.508  58.440  48.746  0.00  0.00    +0.000 HD
ATOM     26  H   UNL     1     -13.344  55.444  50.689  0.00  0.00    +0.000 HD
ENDBRANCH   1  18
BRANCH   3  27
ATOM     27  O   UNL     1     -12.761  56.115  46.851  0.00  0.00    +0.000 OA
ATOM     28  H   UNL     1     -13.431  55.568  46.492  0.00  0.00    +0.000 HD
ENDBRANCH   3  27
BRANCH   5  29
ATOM     29  C   UNL     1      -8.594  53.490  49.737  0.00  0.00    +0.000 C 
BRANCH  29  30
ATOM     30  C   UNL     1      -8.995  52.332  50.669  0.00  0.00    +0.000 C 
BRANCH  30  31
ATOM     31  C   UNL     1     -10.375  51.800  50.393  0.00  0.00    +0.000 C 
ATOM     32  C   UNL     1     -11.532  51.964  51.342  0.00  0.00    +0.000 C 
ATOM     33  C   UNL     1     -10.860  50.627  51.210  0.00  0.00    +0.000 C 
ENDBRANCH  30  31
ENDBRANCH  29  30
ENDBRANCH   5  29
TORSDOF 5
ENDMDL
MODEL 7
REMARK VINA RESULT:      -8.0      3.520      7.954
REMARK  Name = 338168
REMARK  5 active torsions:
REMARK  status: ('A' for Active; 'I' for Inactive)
REMARK    1  A    between atoms: C_6  and  C_10
REMARK    2  A    between atoms: C_14  and  O_18
REMARK    3  A    between atoms: N_17  and  C_21
REMARK    4  A    between atoms: C_21  and  C_24
REMARK    5  A    between atoms: C_24  and  C_27
REMARK                            x       y       z     vdW  Elec       q    Type
REMARK                         _______ _______ _______ _____ _____    ______ ____
ROOT
ATOM      1  C   UNL     1      -9.966  54.449  50.706  0.00  0.00    +0.000 A 
ATOM      2  C   UNL     1     -11.104  55.366  50.978  0.00  0.00    +0.000 A 
ATOM      3  C   UNL     1      -9.746  53.997  49.460  0.00  0.00    +0.000 A 
ATOM      4  O   UNL     1     -11.361  55.617  52.157  0.00  0.00    +0.000 OA
ATOM      5  N   UNL     1     -11.797  55.923  49.901  0.00  0.00    +0.000 N 
ATOM      6  C   UNL     1     -10.584  54.451  48.346  0.00  0.00    +0.000 A 
ATOM      7  C   UNL     1     -11.583  55.422  48.564  0.00  0.00    +0.000 A 
ATOM      8  C   UNL     1     -10.357  53.948  47.051  0.00  0.00    +0.000 A 
ATOM      9  C   UNL     1     -12.332  55.859  47.458  0.00  0.00    +0.000 A 
ATOM     10  C   UNL     1     -11.092  54.421  45.976  0.00  0.00    +0.000 A 
ATOM     11  C   UNL     1     -12.077  55.375  46.169  0.00  0.00    +0.000 A 
ATOM     12  F   UNL     1     -10.840  53.962  44.744  0.00  0.00    +0.000 F 
ENDROOT
BRANCH   1  18
ATOM     13  S   UNL     1      -6.765  54.569  53.071  0.00  0.00    +0.000 S 
ATOM     14  O   UNL     1      -7.109  55.736  53.853  0.00  0.00    +0.000 OA
ATOM     15  O   UNL     1      -5.420  54.332  52.598  0.00  0.00    +0.000 OA
ATOM     16  N   UNL     1      -7.751  54.519  51.749  0.00  0.00    +0.000 N 
ATOM     17  C   UNL     1      -7.288  53.159  53.949  0.00  0.00    +0.000 A 
ATOM     18  C   UNL     1      -9.047  54.014  51.798  0.00  0.00    +0.000 C 
ATOM     19  C   UNL     1      -8.551  52.656  53.659  0.00  0.00    +0.000 A 
ATOM     20  C   UNL     1      -6.436  52.555  54.878  0.00  0.00    +0.000 A 
ATOM     21  N   UNL     1      -9.448  53.202  52.727  0.00  0.00    +0.000 N 
ATOM     22  C   UNL     1      -8.955  51.493  54.323  0.00  0.00    +0.000 A 
ATOM     23  C   UNL     1      -6.864  51.404  55.538  0.00  0.00    +0.000 A 
ATOM     24  C   UNL     1      -8.119  50.871  55.257  0.00  0.00    +0.000 A 
ATOM     25  H   UNL     1      -7.409  54.860  50.891  0.00  0.00    +0.000 HD
ATOM     26  H   UNL     1     -10.402  52.963  52.780  0.00  0.00    +0.000 HD
ENDBRANCH   1  18
BRANCH   3  27
ATOM     27  O   UNL     1      -8.733  53.120  49.107  0.00  0.00    +0.000 OA
ATOM     28  H   UNL     1      -8.594  52.903  48.206  0.00  0.00    +0.000 HD
ENDBRANCH   3  27
BRANCH   5  29
ATOM     29  C   UNL     1     -12.894  56.881  50.168  0.00  0.00    +0.000 C 
BRANCH  29  30
ATOM     30  C   UNL     1     -14.262  56.275  50.534  0.00  0.00    +0.000 C 
BRANCH  30  31
ATOM     31  C   UNL     1     -15.187  57.257  51.199  0.00  0.00    +0.000 C 
ATOM     32  C   UNL     1     -14.747  58.214  52.274  0.00  0.00    +0.000 C 
ATOM     33  C   UNL     1     -15.568  57.011  52.639  0.00  0.00    +0.000 C 
ENDBRANCH  30  31
ENDBRANCH  29  30
ENDBRANCH   5  29
TORSDOF 5
ENDMDL
MODEL 8
REMARK VINA RESULT:      -8.0      3.600      7.543
REMARK  Name = 338168
REMARK  5 active torsions:
REMARK  status: ('A' for Active; 'I' for Inactive)
REMARK    1  A    between atoms: C_6  and  C_10
REMARK    2  A    between atoms: C_14  and  O_18
REMARK    3  A    between atoms: N_17  and  C_21
REMARK    4  A    between atoms: C_21  and  C_24
REMARK    5  A    between atoms: C_24  and  C_27
REMARK                            x       y       z     vdW  Elec       q    Type
REMARK                         _______ _______ _______ _____ _____    ______ ____
ROOT
ATOM      1  C   UNL     1     -10.002  55.460  50.426  0.00  0.00    +0.000 A 
ATOM      2  C   UNL     1     -10.205  55.709  48.975  0.00  0.00    +0.000 A 
ATOM      3  C   UNL     1     -11.022  55.613  51.286  0.00  0.00    +0.000 A 
ATOM      4  O   UNL     1      -9.205  55.717  48.254  0.00  0.00    +0.000 OA
ATOM      5  N   UNL     1     -11.505  55.883  48.493  0.00  0.00    +0.000 N 
ATOM      6  C   UNL     1     -12.360  55.964  50.800  0.00  0.00    +0.000 A 
ATOM      7  C   UNL     1     -12.600  56.074  49.414  0.00  0.00    +0.000 A 
ATOM      8  C   UNL     1     -13.412  56.145  51.717  0.00  0.00    +0.000 A 
ATOM      9  C   UNL     1     -13.908  56.368  48.992  0.00  0.00    +0.000 A 
ATOM     10  C   UNL     1     -14.696  56.405  51.267  0.00  0.00    +0.000 A 
ATOM     11  C   UNL     1     -14.953  56.516  49.912  0.00  0.00    +0.000 A 
ATOM     12  F   UNL     1     -15.695  56.539  52.149  0.00  0.00    +0.000 F 
ENDROOT
BRANCH   1  18
ATOM     13  S   UNL     1      -7.116  54.977  53.127  0.00  0.00    +0.000 S 
ATOM     14  O   UNL     1      -7.744  53.963  53.945  0.00  0.00    +0.000 OA
ATOM     15  O   UNL     1      -6.376  56.076  53.703  0.00  0.00    +0.000 OA
ATOM     16  N   UNL     1      -8.265  55.637  52.144  0.00  0.00    +0.000 N 
ATOM     17  C   UNL     1      -6.088  54.176  51.972  0.00  0.00    +0.000 A 
ATOM     18  C   UNL     1      -8.674  55.036  50.957  0.00  0.00    +0.000 C 
ATOM     19  C   UNL     1      -6.632  53.882  50.726  0.00  0.00    +0.000 A 
ATOM     20  C   UNL     1      -4.761  53.884  52.297  0.00  0.00    +0.000 A 
ATOM     21  N   UNL     1      -7.949  54.163  50.329  0.00  0.00    +0.000 N 
ATOM     22  C   UNL     1      -5.795  53.287  49.777  0.00  0.00    +0.000 A 
ATOM     23  C   UNL     1      -3.948  53.279  51.340  0.00  0.00    +0.000 A 
ATOM     24  C   UNL     1      -4.463  52.985  50.080  0.00  0.00    +0.000 A 
ATOM     25  H   UNL     1      -8.678  56.492  52.407  0.00  0.00    +0.000 HD
ATOM     26  H   UNL     1      -8.330  53.686  49.556  0.00  0.00    +0.000 HD
ENDBRANCH   1  18
BRANCH   3  27
ATOM     27  O   UNL     1     -10.931  55.433  52.657  0.00  0.00    +0.000 OA
ATOM     28  H   UNL     1     -11.081  56.154  53.236  0.00  0.00    +0.000 HD
ENDBRANCH   3  27
BRANCH   5  29
ATOM     29  C   UNL     1     -11.715  56.074  47.040  0.00  0.00    +0.000 C 
BRANCH  29  30
ATOM     30  C   UNL     1     -12.019  54.808  46.217  0.00  0.00    +0.000 C 
BRANCH  30  31
ATOM     31  C   UNL     1     -10.794  54.199  45.592  0.00  0.00    +0.000 C 
ATOM     32  C   UNL     1     -10.847  53.101  44.563  0.00  0.00    +0.000 C 
ATOM     33  C   UNL     1     -10.432  52.784  45.971  0.00  0.00    +0.000 C 
ENDBRANCH  30  31
ENDBRANCH  29  30
ENDBRANCH   5  29
TORSDOF 5
ENDMDL
MODEL 9
REMARK VINA RESULT:      -7.9      3.194      4.319
REMARK  Name = 338168
REMARK  5 active torsions:
REMARK  status: ('A' for Active; 'I' for Inactive)
REMARK    1  A    between atoms: C_6  and  C_10
REMARK    2  A    between atoms: C_14  and  O_18
REMARK    3  A    between atoms: N_17  and  C_21
REMARK    4  A    between atoms: C_21  and  C_24
REMARK    5  A    between atoms: C_24  and  C_27
REMARK                            x       y       z     vdW  Elec       q    Type
REMARK                         _______ _______ _______ _____ _____    ______ ____
ROOT
ATOM      1  C   UNL     1     -12.175  54.375  50.278  0.00  0.00    +0.000 A 
ATOM      2  C   UNL     1     -12.046  53.842  48.897  0.00  0.00    +0.000 A 
ATOM      3  C   UNL     1     -11.616  53.720  51.309  0.00  0.00    +0.000 A 
ATOM      4  O   UNL     1     -12.712  54.386  48.013  0.00  0.00    +0.000 OA
ATOM      5  N   UNL     1     -11.160  52.789  48.658  0.00  0.00    +0.000 N 
ATOM      6  C   UNL     1     -10.821  52.510  51.079  0.00  0.00    +0.000 A 
ATOM      7  C   UNL     1     -10.578  52.065  49.763  0.00  0.00    +0.000 A 
ATOM      8  C   UNL     1     -10.264  51.821  52.173  0.00  0.00    +0.000 A 
ATOM      9  C   UNL     1      -9.774  50.925  49.589  0.00  0.00    +0.000 A 
ATOM     10  C   UNL     1      -9.451  50.718  51.966  0.00  0.00    +0.000 A 
ATOM     11  C   UNL     1      -9.200  50.266  50.682  0.00  0.00    +0.000 A 
ATOM     12  F   UNL     1      -8.898  50.095  53.013  0.00  0.00    +0.000 F 
ENDROOT
BRANCH   1  18
ATOM     13  S   UNL     1     -14.430  56.934  52.333  0.00  0.00    +0.000 S 
ATOM     14  O   UNL     1     -13.477  57.297  53.358  0.00  0.00    +0.000 OA
ATOM     15  O   UNL     1     -15.825  56.700  52.631  0.00  0.00    +0.000 OA
ATOM     16  N   UNL     1     -13.874  55.586  51.560  0.00  0.00    +0.000 N 
ATOM     17  C   UNL     1     -14.337  58.125  51.065  0.00  0.00    +0.000 A 
ATOM     18  C   UNL     1     -12.918  55.639  50.551  0.00  0.00    +0.000 C 
ATOM     19  C   UNL     1     -13.486  57.859  49.999  0.00  0.00    +0.000 A 
ATOM     20  C   UNL     1     -15.126  59.276  51.126  0.00  0.00    +0.000 A 
ATOM     21  N   UNL     1     -12.681  56.716  49.867  0.00  0.00    +0.000 N 
ATOM     22  C   UNL     1     -13.447  58.787  48.953  0.00  0.00    +0.000 A 
ATOM     23  C   UNL     1     -15.062  60.194  50.078  0.00  0.00    +0.000 A 
ATOM     24  C   UNL     1     -14.228  59.947  48.991  0.00  0.00    +0.000 A 
ATOM     25  H   UNL     1     -14.234  54.708  51.824  0.00  0.00    +0.000 HD
ATOM     26  H   UNL     1     -11.920  56.733  49.243  0.00  0.00    +0.000 HD
ENDBRANCH   1  18
BRANCH   3  27
ATOM     27  O   UNL     1     -11.701  54.116  52.634  0.00  0.00    +0.000 OA
ATOM     28  H   UNL     1     -11.347  53.573  53.310  0.00  0.00    +0.000 HD
ENDBRANCH   3  27
BRANCH   5  29
ATOM     29  C   UNL     1     -10.987  52.293  47.273  0.00  0.00    +0.000 C 
BRANCH  29  30
ATOM     30  C   UNL     1      -9.864  52.945  46.445  0.00  0.00    +0.000 C 
BRANCH  30  31
ATOM     31  C   UNL     1      -9.069  53.960  47.219  0.00  0.00    +0.000 C 
ATOM     32  C   UNL     1      -9.137  55.441  46.957  0.00  0.00    +0.000 C 
ATOM     33  C   UNL     1      -7.933  54.661  46.515  0.00  0.00    +0.000 C 
ENDBRANCH  30  31
ENDBRANCH  29  30
ENDBRANCH   5  29
TORSDOF 5
ENDMDL
