MODEL 1
REMARK VINA RESULT:      -8.5      0.000      0.000
REMARK  Name = 338022
REMARK  7 active torsions:
REMARK  status: ('A' for Active; 'I' for Inactive)
REMARK    1  A    between atoms: C_7  and  O_9
REMARK    2  A    between atoms: C_10  and  C_13
REMARK    3  A    between atoms: N_11  and  C_14
REMARK    4  A    between atoms: C_14  and  C_18
REMARK    5  A    between atoms: C_18  and  C_21
REMARK    6  A    between atoms: C_21  and  C_26
REMARK    7  A    between atoms: C_21  and  C_27
REMARK                            x       y       z     vdW  Elec       q    Type
REMARK                         _______ _______ _______ _____ _____    ______ ____
ROOT
ATOM      1  I   UNL     1      -7.973  51.710  46.234  0.00  0.00    +0.000 I 
ATOM      2  C   UNL     1      -8.622  52.725  47.928  0.00  0.00    +0.000 A 
ATOM      3  C   UNL     1      -9.985  52.801  48.211  0.00  0.00    +0.000 A 
ATOM      4  C   UNL     1      -7.704  53.375  48.738  0.00  0.00    +0.000 A 
ATOM      5  C   UNL     1     -10.449  53.550  49.309  0.00  0.00    +0.000 A 
ATOM      6  C   UNL     1      -8.146  54.085  49.856  0.00  0.00    +0.000 A 
ATOM      7  C   UNL     1     -11.878  53.878  49.476  0.00  0.00    +0.000 A 
ATOM      8  C   UNL     1      -9.513  54.181  50.160  0.00  0.00    +0.000 A 
ATOM      9  C   UNL     1     -12.237  54.822  50.362  0.00  0.00    +0.000 A 
ATOM     10  N   UNL     1      -9.982  54.924  51.286  0.00  0.00    +0.000 N 
ATOM     11  C   UNL     1     -11.335  55.180  51.475  0.00  0.00    +0.000 A 
ATOM     12  O   UNL     1     -11.779  55.729  52.484  0.00  0.00    +0.000 OA
ENDROOT
BRANCH   9  13
ATOM     13  C   UNL     1     -13.595  55.427  50.259  0.00  0.00    +0.000 C 
ATOM     14  N   UNL     1     -14.370  55.400  51.317  0.00  0.00    +0.000 N 
ATOM     15  N   UNL     1     -13.954  56.096  49.089  0.00  0.00    +0.000 N 
ATOM     16  S   UNL     1     -15.637  56.429  51.317  0.00  0.00    +0.000 S 
ATOM     17  C   UNL     1     -14.100  57.478  49.403  0.00  0.00    +0.000 A 
ATOM     18  O   UNL     1     -15.925  56.841  52.672  0.00  0.00    +0.000 OA
ATOM     19  O   UNL     1     -16.678  55.903  50.449  0.00  0.00    +0.000 OA
ATOM     20  C   UNL     1     -14.946  57.836  50.462  0.00  0.00    +0.000 A 
ATOM     21  C   UNL     1     -13.131  58.375  48.967  0.00  0.00    +0.000 A 
ATOM     22  C   UNL     1     -14.899  59.095  51.044  0.00  0.00    +0.000 A 
ATOM     23  C   UNL     1     -13.025  59.616  49.589  0.00  0.00    +0.000 A 
ATOM     24  C   UNL     1     -13.921  59.984  50.601  0.00  0.00    +0.000 A 
ATOM     25  H   UNL     1     -14.196  54.791  52.070  0.00  0.00    +0.000 HD
ATOM     26  H   UNL     1     -14.085  55.685  48.205  0.00  0.00    +0.000 HD
ENDBRANCH   9  13
BRANCH   7  27
ATOM     27  O   UNL     1     -12.805  53.308  48.616  0.00  0.00    +0.000 OA
ATOM     28  H   UNL     1     -13.604  53.759  48.425  0.00  0.00    +0.000 HD
ENDBRANCH   7  27
BRANCH  10  29
ATOM     29  C   UNL     1      -9.069  55.636  52.178  0.00  0.00    +0.000 C 
BRANCH  29  30
ATOM     30  C   UNL     1      -8.867  54.816  53.459  0.00  0.00    +0.000 C 
BRANCH  30  31
ATOM     31  C   UNL     1      -7.576  55.122  54.225  0.00  0.00    +0.000 C 
ATOM     32  C   UNL     1      -6.657  53.904  54.317  0.00  0.00    +0.000 C 
ATOM     33  C   UNL     1      -6.841  56.272  53.527  0.00  0.00    +0.000 C 
ENDBRANCH  30  31
ENDBRANCH  29  30
ENDBRANCH  10  29
TORSDOF 5
ENDMDL
MODEL 2
REMARK VINA RESULT:      -8.2      2.214      4.351
REMARK  Name = 338022
REMARK  7 active torsions:
REMARK  status: ('A' for Active; 'I' for Inactive)
REMARK    1  A    between atoms: C_7  and  O_9
REMARK    2  A    between atoms: C_10  and  C_13
REMARK    3  A    between atoms: N_11  and  C_14
REMARK    4  A    between atoms: C_14  and  C_18
REMARK    5  A    between atoms: C_18  and  C_21
REMARK    6  A    between atoms: C_21  and  C_26
REMARK    7  A    between atoms: C_21  and  C_27
REMARK                            x       y       z     vdW  Elec       q    Type
REMARK                         _______ _______ _______ _____ _____    ______ ____
ROOT
ATOM      1  I   UNL     1      -8.192  51.934  54.143  0.00  0.00    +0.000 I 
ATOM      2  C   UNL     1      -9.044  52.495  52.331  0.00  0.00    +0.000 A 
ATOM      3  C   UNL     1      -9.926  53.573  52.285  0.00  0.00    +0.000 A 
ATOM      4  C   UNL     1      -8.779  51.759  51.186  0.00  0.00    +0.000 A 
ATOM      5  C   UNL     1     -10.574  53.918  51.083  0.00  0.00    +0.000 A 
ATOM      6  C   UNL     1      -9.380  52.117  49.978  0.00  0.00    +0.000 A 
ATOM      7  C   UNL     1     -11.707  54.862  51.057  0.00  0.00    +0.000 A 
ATOM      8  C   UNL     1     -10.276  53.194  49.906  0.00  0.00    +0.000 A 
ATOM      9  C   UNL     1     -12.471  54.941  49.954  0.00  0.00    +0.000 A 
ATOM     10  N   UNL     1     -10.917  53.558  48.681  0.00  0.00    +0.000 N 
ATOM     11  C   UNL     1     -11.944  54.494  48.650  0.00  0.00    +0.000 A 
ATOM     12  O   UNL     1     -12.447  54.901  47.602  0.00  0.00    +0.000 OA
ENDROOT
BRANCH   9  13
ATOM     13  C   UNL     1     -13.815  55.577  50.054  0.00  0.00    +0.000 C 
ATOM     14  N   UNL     1     -14.468  55.478  51.187  0.00  0.00    +0.000 N 
ATOM     15  N   UNL     1     -14.285  56.345  48.989  0.00  0.00    +0.000 N 
ATOM     16  S   UNL     1     -15.699  56.525  51.411  0.00  0.00    +0.000 S 
ATOM     17  C   UNL     1     -14.357  57.699  49.425  0.00  0.00    +0.000 A 
ATOM     18  O   UNL     1     -15.824  56.831  52.819  0.00  0.00    +0.000 OA
ATOM     19  O   UNL     1     -16.844  56.090  50.629  0.00  0.00    +0.000 OA
ATOM     20  C   UNL     1     -15.071  57.985  50.598  0.00  0.00    +0.000 A 
ATOM     21  C   UNL     1     -13.420  58.611  48.954  0.00  0.00    +0.000 A 
ATOM     22  C   UNL     1     -14.926  59.191  51.268  0.00  0.00    +0.000 A 
ATOM     23  C   UNL     1     -13.212  59.796  49.656  0.00  0.00    +0.000 A 
ATOM     24  C   UNL     1     -13.980  60.096  50.788  0.00  0.00    +0.000 A 
ATOM     25  H   UNL     1     -14.228  54.807  51.866  0.00  0.00    +0.000 HD
ATOM     26  H   UNL     1     -14.524  56.010  48.095  0.00  0.00    +0.000 HD
ENDBRANCH   9  13
BRANCH   7  27
ATOM     27  O   UNL     1     -12.046  55.540  52.217  0.00  0.00    +0.000 OA
ATOM     28  H   UNL     1     -12.700  55.191  52.790  0.00  0.00    +0.000 HD
ENDBRANCH   7  27
BRANCH  10  29
ATOM     29  C   UNL     1     -10.686  52.823  47.439  0.00  0.00    +0.000 C 
BRANCH  29  30
ATOM     30  C   UNL     1      -9.559  53.500  46.650  0.00  0.00    +0.000 C 
BRANCH  30  31
ATOM     31  C   UNL     1      -9.842  53.693  45.157  0.00  0.00    +0.000 C 
ATOM     32  C   UNL     1      -8.804  52.998  44.277  0.00  0.00    +0.000 C 
ATOM     33  C   UNL     1     -11.238  53.148  44.838  0.00  0.00    +0.000 C 
ENDBRANCH  30  31
ENDBRANCH  29  30
ENDBRANCH  10  29
TORSDOF 5
ENDMDL
MODEL 3
REMARK VINA RESULT:      -8.2      2.595      6.418
REMARK  Name = 338022
REMARK  7 active torsions:
REMARK  status: ('A' for Active; 'I' for Inactive)
REMARK    1  A    between atoms: C_7  and  O_9
REMARK    2  A    between atoms: C_10  and  C_13
REMARK    3  A    between atoms: N_11  and  C_14
REMARK    4  A    between atoms: C_14  and  C_18
REMARK    5  A    between atoms: C_18  and  C_21
REMARK    6  A    between atoms: C_21  and  C_26
REMARK    7  A    between atoms: C_21  and  C_27
REMARK                            x       y       z     vdW  Elec       q    Type
REMARK                         _______ _______ _______ _____ _____    ______ ____
ROOT
ATOM      1  I   UNL     1      -9.241  53.144  44.438  0.00  0.00    +0.000 I 
ATOM      2  C   UNL     1     -10.210  54.062  46.032  0.00  0.00    +0.000 A 
ATOM      3  C   UNL     1      -9.636  54.033  47.302  0.00  0.00    +0.000 A 
ATOM      4  C   UNL     1     -11.453  54.647  45.840  0.00  0.00    +0.000 A 
ATOM      5  C   UNL     1     -10.314  54.580  48.408  0.00  0.00    +0.000 A 
ATOM      6  C   UNL     1     -12.117  55.232  46.920  0.00  0.00    +0.000 A 
ATOM      7  C   UNL     1      -9.871  54.326  49.792  0.00  0.00    +0.000 A 
ATOM      8  C   UNL     1     -11.563  55.212  48.209  0.00  0.00    +0.000 A 
ATOM      9  C   UNL     1     -10.697  54.618  50.810  0.00  0.00    +0.000 A 
ATOM     10  N   UNL     1     -12.241  55.786  49.328  0.00  0.00    +0.000 N 
ATOM     11  C   UNL     1     -11.788  55.596  50.628  0.00  0.00    +0.000 A 
ATOM     12  O   UNL     1     -12.291  56.158  51.602  0.00  0.00    +0.000 OA
ENDROOT
BRANCH   9  13
ATOM     13  C   UNL     1     -10.432  54.016  52.148  0.00  0.00    +0.000 C 
ATOM     14  N   UNL     1     -10.485  52.710  52.264  0.00  0.00    +0.000 N 
ATOM     15  N   UNL     1     -10.031  54.841  53.198  0.00  0.00    +0.000 N 
ATOM     16  S   UNL     1      -9.778  52.068  53.587  0.00  0.00    +0.000 S 
ATOM     17  C   UNL     1      -8.687  54.504  53.530  0.00  0.00    +0.000 A 
ATOM     18  O   UNL     1      -9.256  50.758  53.269  0.00  0.00    +0.000 OA
ATOM     19  O   UNL     1     -10.640  52.279  54.738  0.00  0.00    +0.000 OA
ATOM     20  C   UNL     1      -8.385  53.163  53.806  0.00  0.00    +0.000 A 
ATOM     21  C   UNL     1      -7.666  55.379  53.178  0.00  0.00    +0.000 A 
ATOM     22  C   UNL     1      -7.079  52.693  53.814  0.00  0.00    +0.000 A 
ATOM     23  C   UNL     1      -6.358  54.904  53.112  0.00  0.00    +0.000 A 
ATOM     24  C   UNL     1      -6.063  53.579  53.456  0.00  0.00    +0.000 A 
ATOM     25  H   UNL     1     -10.928  52.148  51.588  0.00  0.00    +0.000 HD
ATOM     26  H   UNL     1     -10.580  55.533  53.632  0.00  0.00    +0.000 HD
ENDBRANCH   9  13
BRANCH   7  27
ATOM     27  O   UNL     1      -8.674  53.660  50.005  0.00  0.00    +0.000 OA
ATOM     28  H   UNL     1      -7.983  53.727  49.376  0.00  0.00    +0.000 HD
ENDBRANCH   7  27
BRANCH  10  29
ATOM     29  C   UNL     1     -13.555  56.415  49.197  0.00  0.00    +0.000 C 
BRANCH  29  30
ATOM     30  C   UNL     1     -13.376  57.917  48.945  0.00  0.00    +0.000 C 
BRANCH  30  31
ATOM     31  C   UNL     1     -13.892  58.825  50.066  0.00  0.00    +0.000 C 
ATOM     32  C   UNL     1     -14.303  60.203  49.549  0.00  0.00    +0.000 C 
ATOM     33  C   UNL     1     -15.088  58.150  50.746  0.00  0.00    +0.000 C 
ENDBRANCH  30  31
ENDBRANCH  29  30
ENDBRANCH  10  29
TORSDOF 5
ENDMDL
MODEL 4
REMARK VINA RESULT:      -7.6      3.471      6.502
REMARK  Name = 338022
REMARK  7 active torsions:
REMARK  status: ('A' for Active; 'I' for Inactive)
REMARK    1  A    between atoms: C_7  and  O_9
REMARK    2  A    between atoms: C_10  and  C_13
REMARK    3  A    between atoms: N_11  and  C_14
REMARK    4  A    between atoms: C_14  and  C_18
REMARK    5  A    between atoms: C_18  and  C_21
REMARK    6  A    between atoms: C_21  and  C_26
REMARK    7  A    between atoms: C_21  and  C_27
REMARK                            x       y       z     vdW  Elec       q    Type
REMARK                         _______ _______ _______ _____ _____    ______ ____
ROOT
ATOM      1  I   UNL     1      -9.746  51.582  42.810  0.00  0.00    +0.000 I 
ATOM      2  C   UNL     1     -10.063  52.921  44.368  0.00  0.00    +0.000 A 
ATOM      3  C   UNL     1      -9.032  53.197  45.265  0.00  0.00    +0.000 A 
ATOM      4  C   UNL     1     -11.315  53.490  44.545  0.00  0.00    +0.000 A 
ATOM      5  C   UNL     1      -9.252  54.040  46.372  0.00  0.00    +0.000 A 
ATOM      6  C   UNL     1     -11.534  54.362  45.614  0.00  0.00    +0.000 A 
ATOM      7  C   UNL     1      -8.282  54.133  47.480  0.00  0.00    +0.000 A 
ATOM      8  C   UNL     1     -10.516  54.652  46.534  0.00  0.00    +0.000 A 
ATOM      9  C   UNL     1      -8.654  54.713  48.632  0.00  0.00    +0.000 A 
ATOM     10  N   UNL     1     -10.732  55.524  47.646  0.00  0.00    +0.000 N 
ATOM     11  C   UNL     1      -9.790  55.657  48.658  0.00  0.00    +0.000 A 
ATOM     12  O   UNL     1      -9.902  56.472  49.575  0.00  0.00    +0.000 OA
ENDROOT
BRANCH   9  13
ATOM     13  C   UNL     1      -7.844  54.466  49.858  0.00  0.00    +0.000 C 
ATOM     14  N   UNL     1      -7.396  55.502  50.528  0.00  0.00    +0.000 N 
ATOM     15  N   UNL     1      -7.682  53.158  50.315  0.00  0.00    +0.000 N 
ATOM     16  S   UNL     1      -6.907  55.222  52.059  0.00  0.00    +0.000 S 
ATOM     17  C   UNL     1      -8.364  53.042  51.560  0.00  0.00    +0.000 A 
ATOM     18  O   UNL     1      -7.152  56.396  52.867  0.00  0.00    +0.000 OA
ATOM     19  O   UNL     1      -5.602  54.582  52.034  0.00  0.00    +0.000 OA
ATOM     20  C   UNL     1      -8.064  53.964  52.573  0.00  0.00    +0.000 A 
ATOM     21  C   UNL     1      -9.557  52.330  51.611  0.00  0.00    +0.000 A 
ATOM     22  C   UNL     1      -8.891  54.135  53.675  0.00  0.00    +0.000 A 
ATOM     23  C   UNL     1     -10.430  52.543  52.675  0.00  0.00    +0.000 A 
ATOM     24  C   UNL     1     -10.086  53.418  53.714  0.00  0.00    +0.000 A 
ATOM     25  H   UNL     1      -7.357  56.400  50.127  0.00  0.00    +0.000 HD
ATOM     26  H   UNL     1      -7.184  52.444  49.857  0.00  0.00    +0.000 HD
ENDBRANCH   9  13
BRANCH   7  27
ATOM     27  O   UNL     1      -7.058  53.494  47.359  0.00  0.00    +0.000 OA
ATOM     28  H   UNL     1      -6.945  52.629  47.703  0.00  0.00    +0.000 HD
ENDBRANCH   7  27
BRANCH  10  29
ATOM     29  C   UNL     1     -12.028  56.153  47.894  0.00  0.00    +0.000 C 
BRANCH  29  30
ATOM     30  C   UNL     1     -12.804  55.325  48.926  0.00  0.00    +0.000 C 
BRANCH  30  31
ATOM     31  C   UNL     1     -13.304  56.113  50.141  0.00  0.00    +0.000 C 
ATOM     32  C   UNL     1     -14.830  56.136  50.227  0.00  0.00    +0.000 C 
ATOM     33  C   UNL     1     -12.725  55.488  51.415  0.00  0.00    +0.000 C 
ENDBRANCH  30  31
ENDBRANCH  29  30
ENDBRANCH  10  29
TORSDOF 5
ENDMDL
MODEL 5
REMARK VINA RESULT:      -7.4      4.169      6.904
REMARK  Name = 338022
REMARK  7 active torsions:
REMARK  status: ('A' for Active; 'I' for Inactive)
REMARK    1  A    between atoms: C_7  and  O_9
REMARK    2  A    between atoms: C_10  and  C_13
REMARK    3  A    between atoms: N_11  and  C_14
REMARK    4  A    between atoms: C_14  and  C_18
REMARK    5  A    between atoms: C_18  and  C_21
REMARK    6  A    between atoms: C_21  and  C_26
REMARK    7  A    between atoms: C_21  and  C_27
REMARK                            x       y       z     vdW  Elec       q    Type
REMARK                         _______ _______ _______ _____ _____    ______ ____
ROOT
ATOM      1  I   UNL     1     -14.938  57.747  51.194  0.00  0.00    +0.000 I 
ATOM      2  C   UNL     1     -13.199  56.713  50.718  0.00  0.00    +0.000 A 
ATOM      3  C   UNL     1     -12.802  56.599  49.386  0.00  0.00    +0.000 A 
ATOM      4  C   UNL     1     -12.471  56.088  51.720  0.00  0.00    +0.000 A 
ATOM      5  C   UNL     1     -11.671  55.836  49.038  0.00  0.00    +0.000 A 
ATOM      6  C   UNL     1     -11.322  55.365  51.393  0.00  0.00    +0.000 A 
ATOM      7  C   UNL     1     -11.385  55.469  47.638  0.00  0.00    +0.000 A 
ATOM      8  C   UNL     1     -10.905  55.231  50.060  0.00  0.00    +0.000 A 
ATOM      9  C   UNL     1     -10.476  54.515  47.381  0.00  0.00    +0.000 A 
ATOM     10  N   UNL     1      -9.745  54.474  49.708  0.00  0.00    +0.000 N 
ATOM     11  C   UNL     1      -9.443  54.181  48.383  0.00  0.00    +0.000 A 
ATOM     12  O   UNL     1      -8.402  53.618  48.042  0.00  0.00    +0.000 OA
ENDROOT
BRANCH   9  13
ATOM     13  C   UNL     1     -10.466  53.872  46.037  0.00  0.00    +0.000 C 
ATOM     14  N   UNL     1      -9.306  53.614  45.479  0.00  0.00    +0.000 N 
ATOM     15  N   UNL     1     -11.672  53.465  45.468  0.00  0.00    +0.000 N 
ATOM     16  S   UNL     1      -9.314  52.542  44.249  0.00  0.00    +0.000 S 
ATOM     17  C   UNL     1     -11.668  52.042  45.403  0.00  0.00    +0.000 A 
ATOM     18  O   UNL     1      -8.062  51.818  44.232  0.00  0.00    +0.000 OA
ATOM     19  O   UNL     1      -9.828  53.190  43.054  0.00  0.00    +0.000 OA
ATOM     20  C   UNL     1     -10.584  51.406  44.781  0.00  0.00    +0.000 A 
ATOM     21  C   UNL     1     -12.472  51.325  46.282  0.00  0.00    +0.000 A 
ATOM     22  C   UNL     1     -10.331  50.053  44.955  0.00  0.00    +0.000 A 
ATOM     23  C   UNL     1     -12.186  49.983  46.521  0.00  0.00    +0.000 A 
ATOM     24  C   UNL     1     -11.142  49.344  45.841  0.00  0.00    +0.000 A 
ATOM     25  H   UNL     1      -8.477  54.046  45.787  0.00  0.00    +0.000 HD
ATOM     26  H   UNL     1     -12.397  54.058  45.165  0.00  0.00    +0.000 HD
ENDBRANCH   9  13
BRANCH   7  27
ATOM     27  O   UNL     1     -12.162  56.013  46.627  0.00  0.00    +0.000 OA
ATOM     28  H   UNL     1     -12.881  56.574  46.839  0.00  0.00    +0.000 HD
ENDBRANCH   7  27
BRANCH  10  29
ATOM     29  C   UNL     1      -8.935  53.787  50.713  0.00  0.00    +0.000 C 
BRANCH  29  30
ATOM     30  C   UNL     1      -7.838  54.734  51.215  0.00  0.00    +0.000 C 
BRANCH  30  31
ATOM     31  C   UNL     1      -7.444  54.544  52.684  0.00  0.00    +0.000 C 
ATOM     32  C   UNL     1      -7.164  55.874  53.383  0.00  0.00    +0.000 C 
ATOM     33  C   UNL     1      -8.571  53.805  53.412  0.00  0.00    +0.000 C 
ENDBRANCH  30  31
ENDBRANCH  29  30
ENDBRANCH  10  29
TORSDOF 5
ENDMDL
MODEL 6
REMARK VINA RESULT:      -7.3      3.773      6.372
REMARK  Name = 338022
REMARK  7 active torsions:
REMARK  status: ('A' for Active; 'I' for Inactive)
REMARK    1  A    between atoms: C_7  and  O_9
REMARK    2  A    between atoms: C_10  and  C_13
REMARK    3  A    between atoms: N_11  and  C_14
REMARK    4  A    between atoms: C_14  and  C_18
REMARK    5  A    between atoms: C_18  and  C_21
REMARK    6  A    between atoms: C_21  and  C_26
REMARK    7  A    between atoms: C_21  and  C_27
REMARK                            x       y       z     vdW  Elec       q    Type
REMARK                         _______ _______ _______ _____ _____    ______ ____
ROOT
ATOM      1  I   UNL     1      -4.056  54.965  54.144  0.00  0.00    +0.000 I 
ATOM      2  C   UNL     1      -5.941  54.455  53.431  0.00  0.00    +0.000 A 
ATOM      3  C   UNL     1      -6.060  53.633  52.311  0.00  0.00    +0.000 A 
ATOM      4  C   UNL     1      -7.073  54.981  54.035  0.00  0.00    +0.000 A 
ATOM      5  C   UNL     1      -7.325  53.341  51.767  0.00  0.00    +0.000 A 
ATOM      6  C   UNL     1      -8.337  54.664  53.532  0.00  0.00    +0.000 A 
ATOM      7  C   UNL     1      -7.472  52.713  50.440  0.00  0.00    +0.000 A 
ATOM      8  C   UNL     1      -8.483  53.843  52.403  0.00  0.00    +0.000 A 
ATOM      9  C   UNL     1      -8.674  52.716  49.841  0.00  0.00    +0.000 A 
ATOM     10  N   UNL     1      -9.768  53.529  51.863  0.00  0.00    +0.000 N 
ATOM     11  C   UNL     1      -9.904  52.883  50.640  0.00  0.00    +0.000 A 
ATOM     12  O   UNL     1     -10.991  52.511  50.197  0.00  0.00    +0.000 OA
ENDROOT
BRANCH   9  13
ATOM     13  C   UNL     1      -8.750  52.451  48.376  0.00  0.00    +0.000 C 
ATOM     14  N   UNL     1      -9.384  51.376  47.971  0.00  0.00    +0.000 N 
ATOM     15  N   UNL     1      -8.248  53.399  47.486  0.00  0.00    +0.000 N 
ATOM     16  S   UNL     1      -9.825  51.342  46.400  0.00  0.00    +0.000 S 
ATOM     17  C   UNL     1      -9.346  53.943  46.760  0.00  0.00    +0.000 A 
ATOM     18  O   UNL     1     -11.049  50.585  46.258  0.00  0.00    +0.000 OA
ATOM     19  O   UNL     1      -8.658  51.051  45.583  0.00  0.00    +0.000 OA
ATOM     20  C   UNL     1     -10.217  53.058  46.107  0.00  0.00    +0.000 A 
ATOM     21  C   UNL     1      -9.769  55.236  47.044  0.00  0.00    +0.000 A 
ATOM     22  C   UNL     1     -11.469  53.458  45.663  0.00  0.00    +0.000 A 
ATOM     23  C   UNL     1     -11.051  55.630  46.668  0.00  0.00    +0.000 A 
ATOM     24  C   UNL     1     -11.884  54.756  45.958  0.00  0.00    +0.000 A 
ATOM     25  H   UNL     1      -9.583  50.631  48.582  0.00  0.00    +0.000 HD
ATOM     26  H   UNL     1      -7.302  53.648  47.379  0.00  0.00    +0.000 HD
ENDBRANCH   9  13
BRANCH   7  27
ATOM     27  O   UNL     1      -6.340  52.263  49.779  0.00  0.00    +0.000 OA
ATOM     28  H   UNL     1      -6.425  51.771  48.986  0.00  0.00    +0.000 HD
ENDBRANCH   7  27
BRANCH  10  29
ATOM     29  C   UNL     1     -11.002  54.054  52.447  0.00  0.00    +0.000 C 
BRANCH  29  30
ATOM     30  C   UNL     1     -11.384  55.359  51.739  0.00  0.00    +0.000 C 
BRANCH  30  31
ATOM     31  C   UNL     1     -12.859  55.467  51.336  0.00  0.00    +0.000 C 
ATOM     32  C   UNL     1     -13.545  56.674  51.973  0.00  0.00    +0.000 C 
ATOM     33  C   UNL     1     -12.954  55.564  49.810  0.00  0.00    +0.000 C 
ENDBRANCH  30  31
ENDBRANCH  29  30
ENDBRANCH  10  29
TORSDOF 5
ENDMDL
MODEL 7
REMARK VINA RESULT:      -7.2      3.590      7.270
REMARK  Name = 338022
REMARK  7 active torsions:
REMARK  status: ('A' for Active; 'I' for Inactive)
REMARK    1  A    between atoms: C_7  and  O_9
REMARK    2  A    between atoms: C_10  and  C_13
REMARK    3  A    between atoms: N_11  and  C_14
REMARK    4  A    between atoms: C_14  and  C_18
REMARK    5  A    between atoms: C_18  and  C_21
REMARK    6  A    between atoms: C_21  and  C_26
REMARK    7  A    between atoms: C_21  and  C_27
REMARK                            x       y       z     vdW  Elec       q    Type
REMARK                         _______ _______ _______ _____ _____    ______ ____
ROOT
ATOM      1  I   UNL     1      -9.717  52.515  42.951  0.00  0.00    +0.000 I 
ATOM      2  C   UNL     1      -9.961  53.425  44.804  0.00  0.00    +0.000 A 
ATOM      3  C   UNL     1      -8.846  53.695  45.596  0.00  0.00    +0.000 A 
ATOM      4  C   UNL     1     -11.235  53.705  45.274  0.00  0.00    +0.000 A 
ATOM      5  C   UNL     1      -8.997  54.239  46.886  0.00  0.00    +0.000 A 
ATOM      6  C   UNL     1     -11.397  54.285  46.534  0.00  0.00    +0.000 A 
ATOM      7  C   UNL     1      -7.877  54.279  47.846  0.00  0.00    +0.000 A 
ATOM      8  C   UNL     1     -10.292  54.562  47.352  0.00  0.00    +0.000 A 
ATOM      9  C   UNL     1      -8.130  54.533  49.140  0.00  0.00    +0.000 A 
ATOM     10  N   UNL     1     -10.443  55.133  48.653  0.00  0.00    +0.000 N 
ATOM     11  C   UNL     1      -9.373  55.227  49.534  0.00  0.00    +0.000 A 
ATOM     12  O   UNL     1      -9.448  55.802  50.621  0.00  0.00    +0.000 OA
ENDROOT
BRANCH   9  13
ATOM     13  C   UNL     1      -7.095  54.193  50.157  0.00  0.00    +0.000 C 
ATOM     14  N   UNL     1      -6.763  55.108  51.037  0.00  0.00    +0.000 N 
ATOM     15  N   UNL     1      -6.597  52.892  50.212  0.00  0.00    +0.000 N 
ATOM     16  S   UNL     1      -5.980  54.585  52.370  0.00  0.00    +0.000 S 
ATOM     17  C   UNL     1      -7.026  52.312  51.441  0.00  0.00    +0.000 A 
ATOM     18  O   UNL     1      -6.322  55.428  53.494  0.00  0.00    +0.000 OA
ATOM     19  O   UNL     1      -4.595  54.304  52.031  0.00  0.00    +0.000 OA
ATOM     20  C   UNL     1      -6.757  52.999  52.633  0.00  0.00    +0.000 A 
ATOM     21  C   UNL     1      -8.023  51.344  51.417  0.00  0.00    +0.000 A 
ATOM     22  C   UNL     1      -7.406  52.689  53.819  0.00  0.00    +0.000 A 
ATOM     23  C   UNL     1      -8.733  51.072  52.584  0.00  0.00    +0.000 A 
ATOM     24  C   UNL     1      -8.407  51.719  53.783  0.00  0.00    +0.000 A 
ATOM     25  H   UNL     1      -6.975  56.060  50.900  0.00  0.00    +0.000 HD
ATOM     26  H   UNL     1      -6.047  52.454  49.524  0.00  0.00    +0.000 HD
ENDBRANCH   9  13
BRANCH   7  27
ATOM     27  O   UNL     1      -6.610  53.914  47.419  0.00  0.00    +0.000 OA
ATOM     28  H   UNL     1      -5.864  54.417  47.683  0.00  0.00    +0.000 HD
ENDBRANCH   7  27
BRANCH  10  29
ATOM     29  C   UNL     1     -11.758  55.449  49.211  0.00  0.00    +0.000 C 
BRANCH  29  30
ATOM     30  C   UNL     1     -12.019  56.954  49.075  0.00  0.00    +0.000 C 
BRANCH  30  31
ATOM     31  C   UNL     1     -13.483  57.337  48.835  0.00  0.00    +0.000 C 
ATOM     32  C   UNL     1     -13.847  57.323  47.351  0.00  0.00    +0.000 C 
ATOM     33  C   UNL     1     -14.385  56.361  49.597  0.00  0.00    +0.000 C 
ENDBRANCH  30  31
ENDBRANCH  29  30
ENDBRANCH  10  29
TORSDOF 5
ENDMDL
MODEL 8
REMARK VINA RESULT:      -7.2      3.596      7.318
REMARK  Name = 338022
REMARK  7 active torsions:
REMARK  status: ('A' for Active; 'I' for Inactive)
REMARK    1  A    between atoms: C_7  and  O_9
REMARK    2  A    between atoms: C_10  and  C_13
REMARK    3  A    between atoms: N_11  and  C_14
REMARK    4  A    between atoms: C_14  and  C_18
REMARK    5  A    between atoms: C_18  and  C_21
REMARK    6  A    between atoms: C_21  and  C_26
REMARK    7  A    between atoms: C_21  and  C_27
REMARK                            x       y       z     vdW  Elec       q    Type
REMARK                         _______ _______ _______ _____ _____    ______ ____
ROOT
ATOM      1  I   UNL     1     -10.873  53.054  44.718  0.00  0.00    +0.000 I 
ATOM      2  C   UNL     1     -10.912  53.601  46.723  0.00  0.00    +0.000 A 
ATOM      3  C   UNL     1      -9.717  53.746  47.426  0.00  0.00    +0.000 A 
ATOM      4  C   UNL     1     -12.127  53.760  47.372  0.00  0.00    +0.000 A 
ATOM      5  C   UNL     1      -9.725  54.038  48.803  0.00  0.00    +0.000 A 
ATOM      6  C   UNL     1     -12.150  54.093  48.728  0.00  0.00    +0.000 A 
ATOM      7  C   UNL     1      -8.506  53.927  49.626  0.00  0.00    +0.000 A 
ATOM      8  C   UNL     1     -10.961  54.240  49.458  0.00  0.00    +0.000 A 
ATOM      9  C   UNL     1      -8.615  53.932  50.965  0.00  0.00    +0.000 A 
ATOM     10  N   UNL     1     -10.969  54.558  50.852  0.00  0.00    +0.000 N 
ATOM     11  C   UNL     1      -9.808  54.512  51.614  0.00  0.00    +0.000 A 
ATOM     12  O   UNL     1      -9.764  54.874  52.790  0.00  0.00    +0.000 OA
ENDROOT
BRANCH   9  13
ATOM     13  C   UNL     1      -7.472  53.434  51.783  0.00  0.00    +0.000 C 
ATOM     14  N   UNL     1      -6.976  54.224  52.705  0.00  0.00    +0.000 N 
ATOM     15  N   UNL     1      -7.042  52.117  51.620  0.00  0.00    +0.000 N 
ATOM     16  S   UNL     1      -6.051  53.516  53.848  0.00  0.00    +0.000 S 
ATOM     17  C   UNL     1      -7.333  51.411  52.823  0.00  0.00    +0.000 A 
ATOM     18  O   UNL     1      -6.194  54.231  55.097  0.00  0.00    +0.000 OA
ATOM     19  O   UNL     1      -4.742  53.225  53.289  0.00  0.00    +0.000 OA
ATOM     20  C   UNL     1      -6.870  51.941  54.035  0.00  0.00    +0.000 A 
ATOM     21  C   UNL     1      -8.375  50.491  52.829  0.00  0.00    +0.000 A 
ATOM     22  C   UNL     1      -7.370  51.516  55.258  0.00  0.00    +0.000 A 
ATOM     23  C   UNL     1      -8.935  50.109  54.045  0.00  0.00    +0.000 A 
ATOM     24  C   UNL     1      -8.418  50.596  55.253  0.00  0.00    +0.000 A 
ATOM     25  H   UNL     1      -7.153  55.192  52.707  0.00  0.00    +0.000 HD
ATOM     26  H   UNL     1      -6.613  51.744  50.817  0.00  0.00    +0.000 HD
ENDBRANCH   9  13
BRANCH   7  27
ATOM     27  O   UNL     1      -7.293  53.676  49.004  0.00  0.00    +0.000 OA
ATOM     28  H   UNL     1      -6.503  53.663  49.507  0.00  0.00    +0.000 HD
ENDBRANCH   7  27
BRANCH  10  29
ATOM     29  C   UNL     1     -12.214  54.735  51.598  0.00  0.00    +0.000 C 
BRANCH  29  30
ATOM     30  C   UNL     1     -12.595  56.220  51.604  0.00  0.00    +0.000 C 
BRANCH  30  31
ATOM     31  C   UNL     1     -14.034  56.516  52.040  0.00  0.00    +0.000 C 
ATOM     32  C   UNL     1     -14.186  57.925  52.611  0.00  0.00    +0.000 C 
ATOM     33  C   UNL     1     -14.967  56.342  50.837  0.00  0.00    +0.000 C 
ENDBRANCH  30  31
ENDBRANCH  29  30
ENDBRANCH  10  29
TORSDOF 5
ENDMDL
MODEL 9
REMARK VINA RESULT:      -6.9      3.593      6.799
REMARK  Name = 338022
REMARK  7 active torsions:
REMARK  status: ('A' for Active; 'I' for Inactive)
REMARK    1  A    between atoms: C_7  and  O_9
REMARK    2  A    between atoms: C_10  and  C_13
REMARK    3  A    between atoms: N_11  and  C_14
REMARK    4  A    between atoms: C_14  and  C_18
REMARK    5  A    between atoms: C_18  and  C_21
REMARK    6  A    between atoms: C_21  and  C_26
REMARK    7  A    between atoms: C_21  and  C_27
REMARK                            x       y       z     vdW  Elec       q    Type
REMARK                         _______ _______ _______ _____ _____    ______ ____
ROOT
ATOM      1  I   UNL     1      -8.724  50.817  55.117  0.00  0.00    +0.000 I 
ATOM      2  C   UNL     1      -9.715  51.888  53.636  0.00  0.00    +0.000 A 
ATOM      3  C   UNL     1      -9.962  51.294  52.399  0.00  0.00    +0.000 A 
ATOM      4  C   UNL     1     -10.074  53.208  53.862  0.00  0.00    +0.000 A 
ATOM      5  C   UNL     1     -10.561  52.029  51.358  0.00  0.00    +0.000 A 
ATOM      6  C   UNL     1     -10.709  53.935  52.853  0.00  0.00    +0.000 A 
ATOM      7  C   UNL     1     -10.585  51.529  49.970  0.00  0.00    +0.000 A 
ATOM      8  C   UNL     1     -10.964  53.363  51.598  0.00  0.00    +0.000 A 
ATOM      9  C   UNL     1     -10.900  52.372  48.973  0.00  0.00    +0.000 A 
ATOM     10  N   UNL     1     -11.592  54.102  50.548  0.00  0.00    +0.000 N 
ATOM     11  C   UNL     1     -11.667  53.603  49.253  0.00  0.00    +0.000 A 
ATOM     12  O   UNL     1     -12.287  54.170  48.352  0.00  0.00    +0.000 OA
ENDROOT
BRANCH   9  13
ATOM     13  C   UNL     1     -10.550  51.997  47.574  0.00  0.00    +0.000 C 
ATOM     14  N   UNL     1     -11.384  52.324  46.615  0.00  0.00    +0.000 N 
ATOM     15  N   UNL     1      -9.310  51.414  47.316  0.00  0.00    +0.000 N 
ATOM     16  S   UNL     1     -10.789  52.300  45.095  0.00  0.00    +0.000 S 
ATOM     17  C   UNL     1      -8.547  52.336  46.543  0.00  0.00    +0.000 A 
ATOM     18  O   UNL     1     -11.453  53.308  44.300  0.00  0.00    +0.000 OA
ATOM     19  O   UNL     1     -10.694  50.922  44.643  0.00  0.00    +0.000 OA
ATOM     20  C   UNL     1      -9.112  52.848  45.366  0.00  0.00    +0.000 A 
ATOM     21  C   UNL     1      -7.491  53.010  47.146  0.00  0.00    +0.000 A 
ATOM     22  C   UNL     1      -8.598  53.972  44.736  0.00  0.00    +0.000 A 
ATOM     23  C   UNL     1      -7.011  54.180  46.563  0.00  0.00    +0.000 A 
ATOM     24  C   UNL     1      -7.542  54.642  45.352  0.00  0.00    +0.000 A 
ATOM     25  H   UNL     1     -12.318  52.571  46.803  0.00  0.00    +0.000 HD
ATOM     26  H   UNL     1      -9.015  50.525  47.615  0.00  0.00    +0.000 HD
ENDBRANCH   9  13
BRANCH   7  27
ATOM     27  O   UNL     1     -10.143  50.241  49.711  0.00  0.00    +0.000 OA
ATOM     28  H   UNL     1     -10.241  49.877  48.853  0.00  0.00    +0.000 HD
ENDBRANCH   7  27
BRANCH  10  29
ATOM     29  C   UNL     1     -11.992  55.498  50.717  0.00  0.00    +0.000 C 
BRANCH  29  30
ATOM     30  C   UNL     1     -13.428  55.554  51.251  0.00  0.00    +0.000 C 
BRANCH  30  31
ATOM     31  C   UNL     1     -14.035  56.958  51.327  0.00  0.00    +0.000 C 
ATOM     32  C   UNL     1     -15.447  57.009  50.744  0.00  0.00    +0.000 C 
ATOM     33  C   UNL     1     -14.063  57.413  52.790  0.00  0.00    +0.000 C 
ENDBRANCH  30  31
ENDBRANCH  29  30
ENDBRANCH  10  29
TORSDOF 5
ENDMDL
