MODEL 1
REMARK VINA RESULT:      -8.6      0.000      0.000
REMARK  Name = 338168
REMARK  5 active torsions:
REMARK  status: ('A' for Active; 'I' for Inactive)
REMARK    1  A    between atoms: C_6  and  C_10
REMARK    2  A    between atoms: C_14  and  O_18
REMARK    3  A    between atoms: N_17  and  C_21
REMARK    4  A    between atoms: C_21  and  C_24
REMARK    5  A    between atoms: C_24  and  C_27
REMARK                            x       y       z     vdW  Elec       q    Type
REMARK                         _______ _______ _______ _____ _____    ______ ____
ROOT
ATOM      1  C   UNL     1      -9.988  54.547  52.371  0.00  0.00    +0.000 A 
ATOM      2  C   UNL     1      -8.594  55.054  52.260  0.00  0.00    +0.000 A 
ATOM      3  C   UNL     1     -10.242  53.415  53.049  0.00  0.00    +0.000 A 
ATOM      4  O   UNL     1      -8.393  55.998  51.495  0.00  0.00    +0.000 OA
ATOM      5  N   UNL     1      -7.598  54.470  53.046  0.00  0.00    +0.000 N 
ATOM      6  C   UNL     1      -9.161  52.703  53.739  0.00  0.00    +0.000 A 
ATOM      7  C   UNL     1      -7.858  53.242  53.755  0.00  0.00    +0.000 A 
ATOM      8  C   UNL     1      -9.441  51.507  54.426  0.00  0.00    +0.000 A 
ATOM      9  C   UNL     1      -6.865  52.547  54.472  0.00  0.00    +0.000 A 
ATOM     10  C   UNL     1      -8.448  50.864  55.144  0.00  0.00    +0.000 A 
ATOM     11  C   UNL     1      -7.164  51.374  55.176  0.00  0.00    +0.000 A 
ATOM     12  F   UNL     1      -8.736  49.745  55.823  0.00  0.00    +0.000 F 
ENDROOT
BRANCH   1  18
ATOM     13  S   UNL     1     -12.372  55.790  49.431  0.00  0.00    +0.000 S 
ATOM     14  O   UNL     1     -13.046  54.545  49.144  0.00  0.00    +0.000 OA
ATOM     15  O   UNL     1     -11.940  56.684  48.385  0.00  0.00    +0.000 OA
ATOM     16  N   UNL     1     -11.052  55.461  50.363  0.00  0.00    +0.000 N 
ATOM     17  C   UNL     1     -13.366  56.695  50.543  0.00  0.00    +0.000 A 
ATOM     18  C   UNL     1     -11.126  55.280  51.742  0.00  0.00    +0.000 C 
ATOM     19  C   UNL     1     -13.102  56.553  51.901  0.00  0.00    +0.000 A 
ATOM     20  C   UNL     1     -14.361  57.550  50.058  0.00  0.00    +0.000 A 
ATOM     21  N   UNL     1     -12.114  55.723  52.454  0.00  0.00    +0.000 N 
ATOM     22  C   UNL     1     -13.866  57.316  52.791  0.00  0.00    +0.000 A 
ATOM     23  C   UNL     1     -15.118  58.287  50.962  0.00  0.00    +0.000 A 
ATOM     24  C   UNL     1     -14.866  58.176  52.329  0.00  0.00    +0.000 A 
ATOM     25  H   UNL     1     -10.173  55.391  49.926  0.00  0.00    +0.000 HD
ATOM     26  H   UNL     1     -12.174  55.472  53.403  0.00  0.00    +0.000 HD
ENDBRANCH   1  18
BRANCH   3  27
ATOM     27  O   UNL     1     -11.497  52.843  53.184  0.00  0.00    +0.000 OA
ATOM     28  H   UNL     1     -11.633  51.950  52.938  0.00  0.00    +0.000 HD
ENDBRANCH   3  27
BRANCH   5  29
ATOM     29  C   UNL     1      -6.220  55.011  52.977  0.00  0.00    +0.000 C 
BRANCH  29  30
ATOM     30  C   UNL     1      -5.216  54.224  52.114  0.00  0.00    +0.000 C 
BRANCH  30  31
ATOM     31  C   UNL     1      -5.335  54.517  50.645  0.00  0.00    +0.000 C 
ATOM     32  C   UNL     1      -6.140  53.673  49.693  0.00  0.00    +0.000 C 
ATOM     33  C   UNL     1      -4.640  53.593  49.677  0.00  0.00    +0.000 C 
ENDBRANCH  30  31
ENDBRANCH  29  30
ENDBRANCH   5  29
TORSDOF 5
ENDMDL
MODEL 2
REMARK VINA RESULT:      -8.3      3.864      7.423
REMARK  Name = 338168
REMARK  5 active torsions:
REMARK  status: ('A' for Active; 'I' for Inactive)
REMARK    1  A    between atoms: C_6  and  C_10
REMARK    2  A    between atoms: C_14  and  O_18
REMARK    3  A    between atoms: N_17  and  C_21
REMARK    4  A    between atoms: C_21  and  C_24
REMARK    5  A    between atoms: C_24  and  C_27
REMARK                            x       y       z     vdW  Elec       q    Type
REMARK                         _______ _______ _______ _____ _____    ______ ____
ROOT
ATOM      1  C   UNL     1     -10.192  55.102  50.826  0.00  0.00    +0.000 A 
ATOM      2  C   UNL     1      -9.843  55.163  49.382  0.00  0.00    +0.000 A 
ATOM      3  C   UNL     1     -11.382  55.557  51.252  0.00  0.00    +0.000 A 
ATOM      4  O   UNL     1      -8.685  54.888  49.066  0.00  0.00    +0.000 OA
ATOM      5  N   UNL     1     -10.840  55.489  48.459  0.00  0.00    +0.000 N 
ATOM      6  C   UNL     1     -12.373  56.060  50.295  0.00  0.00    +0.000 A 
ATOM      7  C   UNL     1     -12.109  56.002  48.910  0.00  0.00    +0.000 A 
ATOM      8  C   UNL     1     -13.605  56.554  50.760  0.00  0.00    +0.000 A 
ATOM      9  C   UNL     1     -13.110  56.451  48.028  0.00  0.00    +0.000 A 
ATOM     10  C   UNL     1     -14.579  56.962  49.865  0.00  0.00    +0.000 A 
ATOM     11  C   UNL     1     -14.344  56.913  48.504  0.00  0.00    +0.000 A 
ATOM     12  F   UNL     1     -15.761  57.397  50.320  0.00  0.00    +0.000 F 
ENDROOT
BRANCH   1  18
ATOM     13  S   UNL     1      -6.879  54.893  53.029  0.00  0.00    +0.000 S 
ATOM     14  O   UNL     1      -7.141  55.986  53.937  0.00  0.00    +0.000 OA
ATOM     15  O   UNL     1      -5.570  54.660  52.470  0.00  0.00    +0.000 OA
ATOM     16  N   UNL     1      -7.932  55.006  51.765  0.00  0.00    +0.000 N 
ATOM     17  C   UNL     1      -7.412  53.419  53.795  0.00  0.00    +0.000 A 
ATOM     18  C   UNL     1      -9.240  54.533  51.825  0.00  0.00    +0.000 C 
ATOM     19  C   UNL     1      -8.704  52.983  53.517  0.00  0.00    +0.000 A 
ATOM     20  C   UNL     1      -6.543  52.705  54.624  0.00  0.00    +0.000 A 
ATOM     21  N   UNL     1      -9.623  53.643  52.686  0.00  0.00    +0.000 N 
ATOM     22  C   UNL     1      -9.115  51.775  54.091  0.00  0.00    +0.000 A 
ATOM     23  C   UNL     1      -6.979  51.515  55.197  0.00  0.00    +0.000 A 
ATOM     24  C   UNL     1      -8.263  51.045  54.925  0.00  0.00    +0.000 A 
ATOM     25  H   UNL     1      -7.621  55.426  50.930  0.00  0.00    +0.000 HD
ATOM     26  H   UNL     1     -10.580  53.426  52.761  0.00  0.00    +0.000 HD
ENDBRANCH   1  18
BRANCH   3  27
ATOM     27  O   UNL     1     -11.790  55.574  52.577  0.00  0.00    +0.000 OA
ATOM     28  H   UNL     1     -12.683  55.761  52.790  0.00  0.00    +0.000 HD
ENDBRANCH   3  27
BRANCH   5  29
ATOM     29  C   UNL     1     -10.506  55.496  47.015  0.00  0.00    +0.000 C 
BRANCH  29  30
ATOM     30  C   UNL     1     -10.322  54.121  46.347  0.00  0.00    +0.000 C 
BRANCH  30  31
ATOM     31  C   UNL     1     -11.284  53.872  45.220  0.00  0.00    +0.000 C 
ATOM     32  C   UNL     1     -12.037  52.581  45.039  0.00  0.00    +0.000 C 
ATOM     33  C   UNL     1     -10.878  52.903  44.139  0.00  0.00    +0.000 C 
ENDBRANCH  30  31
ENDBRANCH  29  30
ENDBRANCH   5  29
TORSDOF 5
ENDMDL
MODEL 3
REMARK VINA RESULT:      -8.3      3.823      5.405
REMARK  Name = 338168
REMARK  5 active torsions:
REMARK  status: ('A' for Active; 'I' for Inactive)
REMARK    1  A    between atoms: C_6  and  C_10
REMARK    2  A    between atoms: C_14  and  O_18
REMARK    3  A    between atoms: N_17  and  C_21
REMARK    4  A    between atoms: C_21  and  C_24
REMARK    5  A    between atoms: C_24  and  C_27
REMARK                            x       y       z     vdW  Elec       q    Type
REMARK                         _______ _______ _______ _____ _____    ______ ____
ROOT
ATOM      1  C   UNL     1     -11.471  55.809  48.982  0.00  0.00    +0.000 A 
ATOM      2  C   UNL     1     -10.384  55.133  49.740  0.00  0.00    +0.000 A 
ATOM      3  C   UNL     1     -11.643  55.548  47.675  0.00  0.00    +0.000 A 
ATOM      4  O   UNL     1     -10.163  55.527  50.886  0.00  0.00    +0.000 OA
ATOM      5  N   UNL     1      -9.698  54.075  49.140  0.00  0.00    +0.000 N 
ATOM      6  C   UNL     1     -10.806  54.551  46.998  0.00  0.00    +0.000 A 
ATOM      7  C   UNL     1      -9.860  53.807  47.734  0.00  0.00    +0.000 A 
ATOM      8  C   UNL     1     -10.986  54.307  45.624  0.00  0.00    +0.000 A 
ATOM      9  C   UNL     1      -9.115  52.828  47.050  0.00  0.00    +0.000 A 
ATOM     10  C   UNL     1     -10.256  53.317  44.988  0.00  0.00    +0.000 A 
ATOM     11  C   UNL     1      -9.325  52.574  45.689  0.00  0.00    +0.000 A 
ATOM     12  F   UNL     1     -10.462  53.070  43.687  0.00  0.00    +0.000 F 
ENDROOT
BRANCH   1  18
ATOM     13  S   UNL     1     -13.518  59.193  49.451  0.00  0.00    +0.000 S 
ATOM     14  O   UNL     1     -14.509  59.004  48.416  0.00  0.00    +0.000 OA
ATOM     15  O   UNL     1     -12.893  60.471  49.686  0.00  0.00    +0.000 OA
ATOM     16  N   UNL     1     -12.309  58.098  49.216  0.00  0.00    +0.000 N 
ATOM     17  C   UNL     1     -14.203  58.638  50.957  0.00  0.00    +0.000 A 
ATOM     18  C   UNL     1     -12.389  56.777  49.650  0.00  0.00    +0.000 C 
ATOM     19  C   UNL     1     -13.948  57.322  51.330  0.00  0.00    +0.000 A 
ATOM     20  C   UNL     1     -14.946  59.513  51.754  0.00  0.00    +0.000 A 
ATOM     21  N   UNL     1     -13.202  56.396  50.584  0.00  0.00    +0.000 N 
ATOM     22  C   UNL     1     -14.455  56.891  52.560  0.00  0.00    +0.000 A 
ATOM     23  C   UNL     1     -15.454  59.057  52.966  0.00  0.00    +0.000 A 
ATOM     24  C   UNL     1     -15.202  57.747  53.374  0.00  0.00    +0.000 A 
ATOM     25  H   UNL     1     -11.492  58.391  48.749  0.00  0.00    +0.000 HD
ATOM     26  H   UNL     1     -13.300  55.436  50.775  0.00  0.00    +0.000 HD
ENDBRANCH   1  18
BRANCH   3  27
ATOM     27  O   UNL     1     -12.603  56.145  46.873  0.00  0.00    +0.000 OA
ATOM     28  H   UNL     1     -12.345  56.739  46.196  0.00  0.00    +0.000 HD
ENDBRANCH   3  27
BRANCH   5  29
ATOM     29  C   UNL     1      -8.653  53.366  49.916  0.00  0.00    +0.000 C 
BRANCH  29  30
ATOM     30  C   UNL     1      -7.444  54.207  50.365  0.00  0.00    +0.000 C 
BRANCH  30  31
ATOM     31  C   UNL     1      -6.722  54.870  49.226  0.00  0.00    +0.000 C 
ATOM     32  C   UNL     1      -5.789  54.140  48.297  0.00  0.00    +0.000 C 
ATOM     33  C   UNL     1      -5.231  55.062  49.343  0.00  0.00    +0.000 C 
ENDBRANCH  30  31
ENDBRANCH  29  30
ENDBRANCH   5  29
TORSDOF 5
ENDMDL
MODEL 4
REMARK VINA RESULT:      -8.2      3.673      7.277
REMARK  Name = 338168
REMARK  5 active torsions:
REMARK  status: ('A' for Active; 'I' for Inactive)
REMARK    1  A    between atoms: C_6  and  C_10
REMARK    2  A    between atoms: C_14  and  O_18
REMARK    3  A    between atoms: N_17  and  C_21
REMARK    4  A    between atoms: C_21  and  C_24
REMARK    5  A    between atoms: C_24  and  C_27
REMARK                            x       y       z     vdW  Elec       q    Type
REMARK                         _______ _______ _______ _____ _____    ______ ____
ROOT
ATOM      1  C   UNL     1     -10.178  55.433  50.494  0.00  0.00    +0.000 A 
ATOM      2  C   UNL     1     -10.345  55.681  49.037  0.00  0.00    +0.000 A 
ATOM      3  C   UNL     1     -11.212  55.616  51.332  0.00  0.00    +0.000 A 
ATOM      4  O   UNL     1      -9.331  55.660  48.338  0.00  0.00    +0.000 OA
ATOM      5  N   UNL     1     -11.630  55.889  48.529  0.00  0.00    +0.000 N 
ATOM      6  C   UNL     1     -12.530  56.000  50.815  0.00  0.00    +0.000 A 
ATOM      7  C   UNL     1     -12.738  56.111  49.424  0.00  0.00    +0.000 A 
ATOM      8  C   UNL     1     -13.596  56.209  51.709  0.00  0.00    +0.000 A 
ATOM      9  C   UNL     1     -14.033  56.434  48.974  0.00  0.00    +0.000 A 
ATOM     10  C   UNL     1     -14.863  56.499  51.232  0.00  0.00    +0.000 A 
ATOM     11  C   UNL     1     -15.091  56.610  49.873  0.00  0.00    +0.000 A 
ATOM     12  F   UNL     1     -15.878  56.661  52.092  0.00  0.00    +0.000 F 
ENDROOT
BRANCH   1  18
ATOM     13  S   UNL     1      -6.595  53.693  50.483  0.00  0.00    +0.000 S 
ATOM     14  O   UNL     1      -5.882  54.646  49.665  0.00  0.00    +0.000 OA
ATOM     15  O   UNL     1      -6.406  52.270  50.340  0.00  0.00    +0.000 OA
ATOM     16  N   UNL     1      -8.210  53.984  50.330  0.00  0.00    +0.000 N 
ATOM     17  C   UNL     1      -6.323  54.110  52.155  0.00  0.00    +0.000 A 
ATOM     18  C   UNL     1      -8.872  54.973  51.052  0.00  0.00    +0.000 C 
ATOM     19  C   UNL     1      -7.262  54.931  52.772  0.00  0.00    +0.000 A 
ATOM     20  C   UNL     1      -5.215  53.598  52.835  0.00  0.00    +0.000 A 
ATOM     21  N   UNL     1      -8.401  55.470  52.152  0.00  0.00    +0.000 N 
ATOM     22  C   UNL     1      -7.072  55.226  54.126  0.00  0.00    +0.000 A 
ATOM     23  C   UNL     1      -5.037  53.917  54.177  0.00  0.00    +0.000 A 
ATOM     24  C   UNL     1      -5.970  54.726  54.825  0.00  0.00    +0.000 A 
ATOM     25  H   UNL     1      -8.730  53.434  49.700  0.00  0.00    +0.000 HD
ATOM     26  H   UNL     1      -8.851  56.243  52.563  0.00  0.00    +0.000 HD
ENDBRANCH   1  18
BRANCH   3  27
ATOM     27  O   UNL     1     -11.152  55.443  52.706  0.00  0.00    +0.000 OA
ATOM     28  H   UNL     1     -10.784  54.660  53.064  0.00  0.00    +0.000 HD
ENDBRANCH   3  27
BRANCH   5  29
ATOM     29  C   UNL     1     -11.803  56.081  47.070  0.00  0.00    +0.000 C 
BRANCH  29  30
ATOM     30  C   UNL     1     -12.093  54.816  46.241  0.00  0.00    +0.000 C 
BRANCH  30  31
ATOM     31  C   UNL     1     -10.866  54.226  45.605  0.00  0.00    +0.000 C 
ATOM     32  C   UNL     1     -10.909  53.111  44.595  0.00  0.00    +0.000 C 
ATOM     33  C   UNL     1     -10.462  52.828  46.000  0.00  0.00    +0.000 C 
ENDBRANCH  30  31
ENDBRANCH  29  30
ENDBRANCH   5  29
TORSDOF 5
ENDMDL
MODEL 5
REMARK VINA RESULT:      -8.1      4.033      5.823
REMARK  Name = 338168
REMARK  5 active torsions:
REMARK  status: ('A' for Active; 'I' for Inactive)
REMARK    1  A    between atoms: C_6  and  C_10
REMARK    2  A    between atoms: C_14  and  O_18
REMARK    3  A    between atoms: N_17  and  C_21
REMARK    4  A    between atoms: C_21  and  C_24
REMARK    5  A    between atoms: C_24  and  C_27
REMARK                            x       y       z     vdW  Elec       q    Type
REMARK                         _______ _______ _______ _____ _____    ______ ____
ROOT
ATOM      1  C   UNL     1     -11.494  55.860  48.901  0.00  0.00    +0.000 A 
ATOM      2  C   UNL     1     -10.351  55.229  49.614  0.00  0.00    +0.000 A 
ATOM      3  C   UNL     1     -11.727  55.569  47.610  0.00  0.00    +0.000 A 
ATOM      4  O   UNL     1     -10.083  55.651  50.739  0.00  0.00    +0.000 OA
ATOM      5  N   UNL     1      -9.668  54.178  48.999  0.00  0.00    +0.000 N 
ATOM      6  C   UNL     1     -10.898  54.582  46.908  0.00  0.00    +0.000 A 
ATOM      7  C   UNL     1      -9.895  53.878  47.607  0.00  0.00    +0.000 A 
ATOM      8  C   UNL     1     -11.142  54.306  45.550  0.00  0.00    +0.000 A 
ATOM      9  C   UNL     1      -9.159  52.906  46.903  0.00  0.00    +0.000 A 
ATOM     10  C   UNL     1     -10.418  53.324  44.895  0.00  0.00    +0.000 A 
ATOM     11  C   UNL     1      -9.432  52.620  45.560  0.00  0.00    +0.000 A 
ATOM     12  F   UNL     1     -10.683  53.046  43.612  0.00  0.00    +0.000 F 
ENDROOT
BRANCH   1  18
ATOM     13  S   UNL     1     -13.525  59.240  49.463  0.00  0.00    +0.000 S 
ATOM     14  O   UNL     1     -14.524  59.079  48.432  0.00  0.00    +0.000 OA
ATOM     15  O   UNL     1     -12.893  60.510  49.723  0.00  0.00    +0.000 OA
ATOM     16  N   UNL     1     -12.321  58.146  49.194  0.00  0.00    +0.000 N 
ATOM     17  C   UNL     1     -14.200  58.653  50.961  0.00  0.00    +0.000 A 
ATOM     18  C   UNL     1     -12.404  56.817  49.598  0.00  0.00    +0.000 C 
ATOM     19  C   UNL     1     -13.947  57.329  51.302  0.00  0.00    +0.000 A 
ATOM     20  C   UNL     1     -14.934  59.513  51.784  0.00  0.00    +0.000 A 
ATOM     21  N   UNL     1     -13.211  56.417  50.529  0.00  0.00    +0.000 N 
ATOM     22  C   UNL     1     -14.447  56.871  52.526  0.00  0.00    +0.000 A 
ATOM     23  C   UNL     1     -15.434  59.031  52.990  0.00  0.00    +0.000 A 
ATOM     24  C   UNL     1     -15.184  57.712  53.365  0.00  0.00    +0.000 A 
ATOM     25  H   UNL     1     -11.508  58.447  48.727  0.00  0.00    +0.000 HD
ATOM     26  H   UNL     1     -13.311  55.453  50.699  0.00  0.00    +0.000 HD
ENDBRANCH   1  18
BRANCH   3  27
ATOM     27  O   UNL     1     -12.743  56.124  46.848  0.00  0.00    +0.000 OA
ATOM     28  H   UNL     1     -13.132  55.631  46.155  0.00  0.00    +0.000 HD
ENDBRANCH   3  27
BRANCH   5  29
ATOM     29  C   UNL     1      -8.565  53.513  49.732  0.00  0.00    +0.000 C 
BRANCH  29  30
ATOM     30  C   UNL     1      -8.873  52.124  50.321  0.00  0.00    +0.000 C 
BRANCH  30  31
ATOM     31  C   UNL     1     -10.326  51.922  50.642  0.00  0.00    +0.000 C 
ATOM     32  C   UNL     1     -10.881  50.643  51.211  0.00  0.00    +0.000 C 
ATOM     33  C   UNL     1     -11.125  50.987  49.769  0.00  0.00    +0.000 C 
ENDBRANCH  30  31
ENDBRANCH  29  30
ENDBRANCH   5  29
TORSDOF 5
ENDMDL
MODEL 6
REMARK VINA RESULT:      -8.0      3.199      4.350
REMARK  Name = 338168
REMARK  5 active torsions:
REMARK  status: ('A' for Active; 'I' for Inactive)
REMARK    1  A    between atoms: C_6  and  C_10
REMARK    2  A    between atoms: C_14  and  O_18
REMARK    3  A    between atoms: N_17  and  C_21
REMARK    4  A    between atoms: C_21  and  C_24
REMARK    5  A    between atoms: C_24  and  C_27
REMARK                            x       y       z     vdW  Elec       q    Type
REMARK                         _______ _______ _______ _____ _____    ______ ____
ROOT
ATOM      1  C   UNL     1     -12.168  54.420  50.248  0.00  0.00    +0.000 A 
ATOM      2  C   UNL     1     -11.994  53.924  48.856  0.00  0.00    +0.000 A 
ATOM      3  C   UNL     1     -11.637  53.739  51.277  0.00  0.00    +0.000 A 
ATOM      4  O   UNL     1     -12.635  54.489  47.969  0.00  0.00    +0.000 OA
ATOM      5  N   UNL     1     -11.098  52.880  48.617  0.00  0.00    +0.000 N 
ATOM      6  C   UNL     1     -10.830  52.538  51.037  0.00  0.00    +0.000 A 
ATOM      7  C   UNL     1     -10.546  52.130  49.717  0.00  0.00    +0.000 A 
ATOM      8  C   UNL     1     -10.300  51.824  52.128  0.00  0.00    +0.000 A 
ATOM      9  C   UNL     1      -9.726  50.999  49.538  0.00  0.00    +0.000 A 
ATOM     10  C   UNL     1      -9.475  50.733  51.916  0.00  0.00    +0.000 A 
ATOM     11  C   UNL     1      -9.181  50.316  50.632  0.00  0.00    +0.000 A 
ATOM     12  F   UNL     1      -8.948  50.083  52.963  0.00  0.00    +0.000 F 
ENDROOT
BRANCH   1  18
ATOM     13  S   UNL     1     -14.452  56.937  52.324  0.00  0.00    +0.000 S 
ATOM     14  O   UNL     1     -13.509  57.302  53.356  0.00  0.00    +0.000 OA
ATOM     15  O   UNL     1     -15.843  56.690  52.614  0.00  0.00    +0.000 OA
ATOM     16  N   UNL     1     -13.876  55.606  51.542  0.00  0.00    +0.000 N 
ATOM     17  C   UNL     1     -14.365  58.144  51.067  0.00  0.00    +0.000 A 
ATOM     18  C   UNL     1     -12.923  55.677  50.529  0.00  0.00    +0.000 C 
ATOM     19  C   UNL     1     -13.513  57.894  49.997  0.00  0.00    +0.000 A 
ATOM     20  C   UNL     1     -15.159  59.292  51.141  0.00  0.00    +0.000 A 
ATOM     21  N   UNL     1     -12.699  56.760  49.855  0.00  0.00    +0.000 N 
ATOM     22  C   UNL     1     -13.479  58.838  48.964  0.00  0.00    +0.000 A 
ATOM     23  C   UNL     1     -15.098  60.224  50.110  0.00  0.00    +0.000 A 
ATOM     24  C   UNL     1     -14.263  59.994  49.017  0.00  0.00    +0.000 A 
ATOM     25  H   UNL     1     -14.222  54.721  51.802  0.00  0.00    +0.000 HD
ATOM     26  H   UNL     1     -11.940  56.789  49.229  0.00  0.00    +0.000 HD
ENDBRANCH   1  18
BRANCH   3  27
ATOM     27  O   UNL     1     -11.767  54.098  52.609  0.00  0.00    +0.000 OA
ATOM     28  H   UNL     1     -11.381  53.568  53.278  0.00  0.00    +0.000 HD
ENDBRANCH   3  27
BRANCH   5  29
ATOM     29  C   UNL     1     -10.884  52.423  47.224  0.00  0.00    +0.000 C 
BRANCH  29  30
ATOM     30  C   UNL     1      -9.552  52.828  46.566  0.00  0.00    +0.000 C 
BRANCH  30  31
ATOM     31  C   UNL     1      -9.427  54.308  46.337  0.00  0.00    +0.000 C 
ATOM     32  C   UNL     1      -8.194  54.960  45.771  0.00  0.00    +0.000 C 
ATOM     33  C   UNL     1      -8.504  55.092  47.235  0.00  0.00    +0.000 C 
ENDBRANCH  30  31
ENDBRANCH  29  30
ENDBRANCH   5  29
TORSDOF 5
ENDMDL
MODEL 7
REMARK VINA RESULT:      -8.0      3.516      7.960
REMARK  Name = 338168
REMARK  5 active torsions:
REMARK  status: ('A' for Active; 'I' for Inactive)
REMARK    1  A    between atoms: C_6  and  C_10
REMARK    2  A    between atoms: C_14  and  O_18
REMARK    3  A    between atoms: N_17  and  C_21
REMARK    4  A    between atoms: C_21  and  C_24
REMARK    5  A    between atoms: C_24  and  C_27
REMARK                            x       y       z     vdW  Elec       q    Type
REMARK                         _______ _______ _______ _____ _____    ______ ____
ROOT
ATOM      1  C   UNL     1      -9.992  54.373  50.747  0.00  0.00    +0.000 A 
ATOM      2  C   UNL     1     -11.124  55.296  51.029  0.00  0.00    +0.000 A 
ATOM      3  C   UNL     1      -9.773  53.938  49.494  0.00  0.00    +0.000 A 
ATOM      4  O   UNL     1     -11.381  55.533  52.210  0.00  0.00    +0.000 OA
ATOM      5  N   UNL     1     -11.811  55.871  49.958  0.00  0.00    +0.000 N 
ATOM      6  C   UNL     1     -10.606  54.414  48.385  0.00  0.00    +0.000 A 
ATOM      7  C   UNL     1     -11.599  55.390  48.616  0.00  0.00    +0.000 A 
ATOM      8  C   UNL     1     -10.378  53.931  47.083  0.00  0.00    +0.000 A 
ATOM      9  C   UNL     1     -12.340  55.852  47.511  0.00  0.00    +0.000 A 
ATOM     10  C   UNL     1     -11.106  54.426  46.015  0.00  0.00    +0.000 A 
ATOM     11  C   UNL     1     -12.082  55.384  46.217  0.00  0.00    +0.000 A 
ATOM     12  F   UNL     1     -10.854  53.984  44.776  0.00  0.00    +0.000 F 
ENDROOT
BRANCH   1  18
ATOM     13  S   UNL     1      -6.765  54.420  53.082  0.00  0.00    +0.000 S 
ATOM     14  O   UNL     1      -7.064  55.602  53.859  0.00  0.00    +0.000 OA
ATOM     15  O   UNL     1      -5.435  54.138  52.601  0.00  0.00    +0.000 OA
ATOM     16  N   UNL     1      -7.769  54.392  51.775  0.00  0.00    +0.000 N 
ATOM     17  C   UNL     1      -7.324  53.033  53.980  0.00  0.00    +0.000 A 
ATOM     18  C   UNL     1      -9.077  53.920  51.836  0.00  0.00    +0.000 C 
ATOM     19  C   UNL     1      -8.603  52.561  53.701  0.00  0.00    +0.000 A 
ATOM     20  C   UNL     1      -6.485  52.417  54.913  0.00  0.00    +0.000 A 
ATOM     21  N   UNL     1      -9.491  53.125  52.772  0.00  0.00    +0.000 N 
ATOM     22  C   UNL     1      -9.033  51.419  54.385  0.00  0.00    +0.000 A 
ATOM     23  C   UNL     1      -6.940  51.291  55.592  0.00  0.00    +0.000 A 
ATOM     24  C   UNL     1      -8.212  50.787  55.323  0.00  0.00    +0.000 A 
ATOM     25  H   UNL     1      -7.428  54.723  50.912  0.00  0.00    +0.000 HD
ATOM     26  H   UNL     1     -10.450  52.910  52.832  0.00  0.00    +0.000 HD
ENDBRANCH   1  18
BRANCH   3  27
ATOM     27  O   UNL     1      -8.768  53.055  49.132  0.00  0.00    +0.000 OA
ATOM     28  H   UNL     1      -8.759  52.682  48.273  0.00  0.00    +0.000 HD
ENDBRANCH   3  27
BRANCH   5  29
ATOM     29  C   UNL     1     -12.903  56.832  50.239  0.00  0.00    +0.000 C 
BRANCH  29  30
ATOM     30  C   UNL     1     -14.277  56.228  50.583  0.00  0.00    +0.000 C 
BRANCH  30  31
ATOM     31  C   UNL     1     -15.228  57.218  51.194  0.00  0.00    +0.000 C 
ATOM     32  C   UNL     1     -14.811  58.257  52.200  0.00  0.00    +0.000 C 
ATOM     33  C   UNL     1     -15.589  57.053  52.649  0.00  0.00    +0.000 C 
ENDBRANCH  30  31
ENDBRANCH  29  30
ENDBRANCH   5  29
TORSDOF 5
ENDMDL
MODEL 8
REMARK VINA RESULT:      -8.0      3.776      7.373
REMARK  Name = 338168
REMARK  5 active torsions:
REMARK  status: ('A' for Active; 'I' for Inactive)
REMARK    1  A    between atoms: C_6  and  C_10
REMARK    2  A    between atoms: C_14  and  O_18
REMARK    3  A    between atoms: N_17  and  C_21
REMARK    4  A    between atoms: C_21  and  C_24
REMARK    5  A    between atoms: C_24  and  C_27
REMARK                            x       y       z     vdW  Elec       q    Type
REMARK                         _______ _______ _______ _____ _____    ______ ____
ROOT
ATOM      1  C   UNL     1     -10.429  55.075  50.686  0.00  0.00    +0.000 A 
ATOM      2  C   UNL     1     -10.124  55.145  49.232  0.00  0.00    +0.000 A 
ATOM      3  C   UNL     1     -11.566  55.611  51.163  0.00  0.00    +0.000 A 
ATOM      4  O   UNL     1      -9.001  54.790  48.871  0.00  0.00    +0.000 OA
ATOM      5  N   UNL     1     -11.121  55.570  48.351  0.00  0.00    +0.000 N 
ATOM      6  C   UNL     1     -12.544  56.212  50.251  0.00  0.00    +0.000 A 
ATOM      7  C   UNL     1     -12.331  56.169  48.857  0.00  0.00    +0.000 A 
ATOM      8  C   UNL     1     -13.719  56.788  50.770  0.00  0.00    +0.000 A 
ATOM      9  C   UNL     1     -13.322  56.716  48.020  0.00  0.00    +0.000 A 
ATOM     10  C   UNL     1     -14.686  57.293  49.917  0.00  0.00    +0.000 A 
ATOM     11  C   UNL     1     -14.500  57.259  48.548  0.00  0.00    +0.000 A 
ATOM     12  F   UNL     1     -15.816  57.807  50.422  0.00  0.00    +0.000 F 
ENDROOT
BRANCH   1  18
ATOM     13  S   UNL     1      -8.873  52.089  52.814  0.00  0.00    +0.000 S 
ATOM     14  O   UNL     1      -8.280  51.328  51.739  0.00  0.00    +0.000 OA
ATOM     15  O   UNL     1      -9.563  51.454  53.910  0.00  0.00    +0.000 OA
ATOM     16  N   UNL     1      -9.913  53.189  52.160  0.00  0.00    +0.000 N 
ATOM     17  C   UNL     1      -7.640  53.129  53.479  0.00  0.00    +0.000 A 
ATOM     18  C   UNL     1      -9.493  54.410  51.639  0.00  0.00    +0.000 C 
ATOM     19  C   UNL     1      -7.553  54.423  52.976  0.00  0.00    +0.000 A 
ATOM     20  C   UNL     1      -6.808  52.665  54.502  0.00  0.00    +0.000 A 
ATOM     21  N   UNL     1      -8.362  54.955  51.960  0.00  0.00    +0.000 N 
ATOM     22  C   UNL     1      -6.597  55.273  53.543  0.00  0.00    +0.000 A 
ATOM     23  C   UNL     1      -5.854  53.524  55.040  0.00  0.00    +0.000 A 
ATOM     24  C   UNL     1      -5.754  54.831  54.565  0.00  0.00    +0.000 A 
ATOM     25  H   UNL     1     -10.873  52.973  52.137  0.00  0.00    +0.000 HD
ATOM     26  H   UNL     1      -8.063  55.761  51.480  0.00  0.00    +0.000 HD
ENDBRANCH   1  18
BRANCH   3  27
ATOM     27  O   UNL     1     -11.928  55.626  52.500  0.00  0.00    +0.000 OA
ATOM     28  H   UNL     1     -12.380  56.366  52.855  0.00  0.00    +0.000 HD
ENDBRANCH   3  27
BRANCH   5  29
ATOM     29  C   UNL     1     -10.835  55.587  46.898  0.00  0.00    +0.000 C 
BRANCH  29  30
ATOM     30  C   UNL     1     -11.451  54.448  46.064  0.00  0.00    +0.000 C 
BRANCH  30  31
ATOM     31  C   UNL     1     -10.472  53.358  45.730  0.00  0.00    +0.000 C 
ATOM     32  C   UNL     1      -9.158  53.606  45.038  0.00  0.00    +0.000 C 
ATOM     33  C   UNL     1     -10.295  52.981  44.280  0.00  0.00    +0.000 C 
ENDBRANCH  30  31
ENDBRANCH  29  30
ENDBRANCH   5  29
TORSDOF 5
ENDMDL
MODEL 9
REMARK VINA RESULT:      -8.0      4.906      7.790
REMARK  Name = 338168
REMARK  5 active torsions:
REMARK  status: ('A' for Active; 'I' for Inactive)
REMARK    1  A    between atoms: C_6  and  C_10
REMARK    2  A    between atoms: C_14  and  O_18
REMARK    3  A    between atoms: N_17  and  C_21
REMARK    4  A    between atoms: C_21  and  C_24
REMARK    5  A    between atoms: C_24  and  C_27
REMARK                            x       y       z     vdW  Elec       q    Type
REMARK                         _______ _______ _______ _____ _____    ______ ____
ROOT
ATOM      1  C   UNL     1     -11.413  54.239  47.931  0.00  0.00    +0.000 A 
ATOM      2  C   UNL     1     -11.507  53.408  49.162  0.00  0.00    +0.000 A 
ATOM      3  C   UNL     1     -12.072  55.408  47.855  0.00  0.00    +0.000 A 
ATOM      4  O   UNL     1     -11.024  52.276  49.119  0.00  0.00    +0.000 OA
ATOM      5  N   UNL     1     -12.098  53.955  50.303  0.00  0.00    +0.000 N 
ATOM      6  C   UNL     1     -12.836  55.907  49.003  0.00  0.00    +0.000 A 
ATOM      7  C   UNL     1     -12.826  55.196  50.221  0.00  0.00    +0.000 A 
ATOM      8  C   UNL     1     -13.538  57.122  48.899  0.00  0.00    +0.000 A 
ATOM      9  C   UNL     1     -13.535  55.740  51.310  0.00  0.00    +0.000 A 
ATOM     10  C   UNL     1     -14.202  57.644  49.996  0.00  0.00    +0.000 A 
ATOM     11  C   UNL     1     -14.205  56.965  51.200  0.00  0.00    +0.000 A 
ATOM     12  F   UNL     1     -14.837  58.819  49.893  0.00  0.00    +0.000 F 
ENDROOT
BRANCH   1  18
ATOM     13  S   UNL     1      -8.193  54.006  45.599  0.00  0.00    +0.000 S 
ATOM     14  O   UNL     1      -7.341  53.223  46.465  0.00  0.00    +0.000 OA
ATOM     15  O   UNL     1      -7.687  55.119  44.833  0.00  0.00    +0.000 OA
ATOM     16  N   UNL     1      -9.462  54.568  46.489  0.00  0.00    +0.000 N 
ATOM     17  C   UNL     1      -8.995  52.912  44.502  0.00  0.00    +0.000 A 
ATOM     18  C   UNL     1     -10.590  53.800  46.766  0.00  0.00    +0.000 C 
ATOM     19  C   UNL     1     -10.254  52.447  44.867  0.00  0.00    +0.000 A 
ATOM     20  C   UNL     1      -8.388  52.560  43.293  0.00  0.00    +0.000 A 
ATOM     21  N   UNL     1     -10.924  52.768  46.058  0.00  0.00    +0.000 N 
ATOM     22  C   UNL     1     -10.919  51.609  43.966  0.00  0.00    +0.000 A 
ATOM     23  C   UNL     1      -9.061  51.713  42.419  0.00  0.00    +0.000 A 
ATOM     24  C   UNL     1     -10.331  51.243  42.752  0.00  0.00    +0.000 A 
ATOM     25  H   UNL     1      -9.420  55.487  46.840  0.00  0.00    +0.000 HD
ATOM     26  H   UNL     1     -11.665  52.196  46.362  0.00  0.00    +0.000 HD
ENDBRANCH   1  18
BRANCH   3  27
ATOM     27  O   UNL     1     -12.076  56.238  46.746  0.00  0.00    +0.000 OA
ATOM     28  H   UNL     1     -11.783  57.124  46.823  0.00  0.00    +0.000 HD
ENDBRANCH   3  27
BRANCH   5  29
ATOM     29  C   UNL     1     -12.141  53.148  51.545  0.00  0.00    +0.000 C 
BRANCH  29  30
ATOM     30  C   UNL     1     -10.887  53.193  52.437  0.00  0.00    +0.000 C 
BRANCH  30  31
ATOM     31  C   UNL     1     -10.420  54.590  52.737  0.00  0.00    +0.000 C 
ATOM     32  C   UNL     1      -9.198  55.209  52.114  0.00  0.00    +0.000 C 
ATOM     33  C   UNL     1      -9.159  54.760  53.547  0.00  0.00    +0.000 C 
ENDBRANCH  30  31
ENDBRANCH  29  30
ENDBRANCH   5  29
TORSDOF 5
ENDMDL
