MODEL 1
REMARK VINA RESULT:      -8.0      0.000      0.000
REMARK  Name = 338307
REMARK  8 active torsions:
REMARK  status: ('A' for Active; 'I' for Inactive)
REMARK    1  A    between atoms: C_6  and  C_10
REMARK    2  A    between atoms: C_14  and  O_18
REMARK    3  A    between atoms: N_17  and  C_21
REMARK    4  A    between atoms: C_21  and  C_24
REMARK    5  A    between atoms: C_24  and  C_27
REMARK    6  A    between atoms: C_27  and  O_28
REMARK    7  A    between atoms: C_27  and  C_29
REMARK    8  A    between atoms: O_28  and  C_30
REMARK                            x       y       z     vdW  Elec       q    Type
REMARK                         _______ _______ _______ _____ _____    ______ ____
ROOT
ATOM      1  C   UNL     1     -11.631  53.995  51.171  0.00  0.00    +0.000 A 
ATOM      2  C   UNL     1     -10.730  54.032  52.364  0.00  0.00    +0.000 A 
ATOM      3  C   UNL     1     -11.710  52.884  50.422  0.00  0.00    +0.000 A 
ATOM      4  O   UNL     1     -10.737  55.041  53.076  0.00  0.00    +0.000 OA
ATOM      5  N   UNL     1      -9.928  52.935  52.631  0.00  0.00    +0.000 N 
ATOM      6  C   UNL     1     -10.909  51.697  50.763  0.00  0.00    +0.000 A 
ATOM      7  C   UNL     1     -10.011  51.744  51.846  0.00  0.00    +0.000 A 
ATOM      8  C   UNL     1     -11.034  50.511  50.017  0.00  0.00    +0.000 A 
ATOM      9  C   UNL     1      -9.248  50.601  52.141  0.00  0.00    +0.000 A 
ATOM     10  C   UNL     1     -10.290  49.379  50.342  0.00  0.00    +0.000 A 
ATOM     11  C   UNL     1      -9.397  49.426  51.402  0.00  0.00    +0.000 A 
ENDROOT
BRANCH   1  17
ATOM     12  S   UNL     1     -13.234  57.043  49.278  0.00  0.00    +0.000 S 
ATOM     13  O   UNL     1     -14.325  56.674  48.395  0.00  0.00    +0.000 OA
ATOM     14  O   UNL     1     -12.258  58.031  48.862  0.00  0.00    +0.000 OA
ATOM     15  N   UNL     1     -12.437  55.687  49.671  0.00  0.00    +0.000 N 
ATOM     16  C   UNL     1     -13.984  57.691  50.732  0.00  0.00    +0.000 A 
ATOM     17  C   UNL     1     -12.488  55.209  50.880  0.00  0.00    +0.000 C 
ATOM     18  C   UNL     1     -13.879  56.949  51.895  0.00  0.00    +0.000 A 
ATOM     19  C   UNL     1     -14.642  58.922  50.698  0.00  0.00    +0.000 A 
ATOM     20  N   UNL     1     -13.238  55.715  51.915  0.00  0.00    +0.000 N 
ATOM     21  C   UNL     1     -14.506  57.429  53.051  0.00  0.00    +0.000 A 
ATOM     22  C   UNL     1     -15.235  59.404  51.863  0.00  0.00    +0.000 A 
ATOM     23  C   UNL     1     -15.176  58.654  53.035  0.00  0.00    +0.000 A 
ATOM     24  H   UNL     1     -11.906  55.219  48.985  0.00  0.00    +0.000 HD
ATOM     25  H   UNL     1     -13.327  55.166  52.727  0.00  0.00    +0.000 HD
ENDBRANCH   1  17
BRANCH   3  26
ATOM     26  O   UNL     1     -12.536  52.744  49.319  0.00  0.00    +0.000 OA
ATOM     27  H   UNL     1     -12.847  53.503  48.867  0.00  0.00    +0.000 HD
ENDBRANCH   3  26
BRANCH   5  28
ATOM     28  C   UNL     1      -8.973  53.055  53.742  0.00  0.00    +0.000 C 
BRANCH  28  29
ATOM     29  C   UNL     1      -7.659  53.700  53.286  0.00  0.00    +0.000 C 
BRANCH  29  30
ATOM     30  C   UNL     1      -7.262  54.904  54.153  0.00  0.00    +0.000 C 
ATOM     31  C   UNL     1      -7.080  56.168  53.312  0.00  0.00    +0.000 C 
BRANCH  30  32
ATOM     32  O   UNL     1      -6.125  54.614  54.972  0.00  0.00    +0.000 OA
ATOM     33  C   UNL     1      -4.860  54.986  54.443  0.00  0.00    +0.000 C 
ENDBRANCH  30  32
ENDBRANCH  29  30
ENDBRANCH  28  29
ENDBRANCH   5  28
TORSDOF 6
ENDMDL
MODEL 2
REMARK VINA RESULT:      -8.0      2.282      3.145
REMARK  Name = 338307
REMARK  8 active torsions:
REMARK  status: ('A' for Active; 'I' for Inactive)
REMARK    1  A    between atoms: C_6  and  C_10
REMARK    2  A    between atoms: C_14  and  O_18
REMARK    3  A    between atoms: N_17  and  C_21
REMARK    4  A    between atoms: C_21  and  C_24
REMARK    5  A    between atoms: C_24  and  C_27
REMARK    6  A    between atoms: C_27  and  O_28
REMARK    7  A    between atoms: C_27  and  C_29
REMARK    8  A    between atoms: O_28  and  C_30
REMARK                            x       y       z     vdW  Elec       q    Type
REMARK                         _______ _______ _______ _____ _____    ______ ____
ROOT
ATOM      1  C   UNL     1     -10.156  54.459  52.281  0.00  0.00    +0.000 A 
ATOM      2  C   UNL     1      -8.781  55.034  52.156  0.00  0.00    +0.000 A 
ATOM      3  C   UNL     1     -10.358  53.353  53.015  0.00  0.00    +0.000 A 
ATOM      4  O   UNL     1      -8.640  56.093  51.538  0.00  0.00    +0.000 OA
ATOM      5  N   UNL     1      -7.720  54.364  52.743  0.00  0.00    +0.000 N 
ATOM      6  C   UNL     1      -9.232  52.696  53.698  0.00  0.00    +0.000 A 
ATOM      7  C   UNL     1      -7.925  53.193  53.535  0.00  0.00    +0.000 A 
ATOM      8  C   UNL     1      -9.449  51.573  54.517  0.00  0.00    +0.000 A 
ATOM      9  C   UNL     1      -6.867  52.538  54.186  0.00  0.00    +0.000 A 
ATOM     10  C   UNL     1      -8.391  50.953  55.178  0.00  0.00    +0.000 A 
ATOM     11  C   UNL     1      -7.101  51.435  55.010  0.00  0.00    +0.000 A 
ENDROOT
BRANCH   1  17
ATOM     12  S   UNL     1     -12.464  56.012  49.505  0.00  0.00    +0.000 S 
ATOM     13  O   UNL     1     -13.370  55.056  48.896  0.00  0.00    +0.000 OA
ATOM     14  O   UNL     1     -11.785  56.999  48.688  0.00  0.00    +0.000 OA
ATOM     15  N   UNL     1     -11.337  55.175  50.318  0.00  0.00    +0.000 N 
ATOM     16  C   UNL     1     -13.424  56.925  50.661  0.00  0.00    +0.000 A 
ATOM     17  C   UNL     1     -11.304  55.190  51.619  0.00  0.00    +0.000 C 
ATOM     18  C   UNL     1     -13.166  56.732  52.007  0.00  0.00    +0.000 A 
ATOM     19  C   UNL     1     -14.397  57.824  50.218  0.00  0.00    +0.000 A 
ATOM     20  N   UNL     1     -12.208  55.821  52.440  0.00  0.00    +0.000 N 
ATOM     21  C   UNL     1     -13.950  57.419  52.942  0.00  0.00    +0.000 A 
ATOM     22  C   UNL     1     -15.149  58.524  51.158  0.00  0.00    +0.000 A 
ATOM     23  C   UNL     1     -14.933  58.314  52.519  0.00  0.00    +0.000 A 
ATOM     24  H   UNL     1     -10.669  54.650  49.820  0.00  0.00    +0.000 HD
ATOM     25  H   UNL     1     -12.174  55.615  53.402  0.00  0.00    +0.000 HD
ENDBRANCH   1  17
BRANCH   3  26
ATOM     26  O   UNL     1     -11.596  52.765  53.215  0.00  0.00    +0.000 OA
ATOM     27  H   UNL     1     -12.146  53.057  53.915  0.00  0.00    +0.000 HD
ENDBRANCH   3  26
BRANCH   5  28
ATOM     28  C   UNL     1      -6.372  54.898  52.500  0.00  0.00    +0.000 C 
BRANCH  28  29
ATOM     29  C   UNL     1      -5.869  54.534  51.098  0.00  0.00    +0.000 C 
BRANCH  29  30
ATOM     30  C   UNL     1      -4.893  53.349  51.113  0.00  0.00    +0.000 C 
ATOM     31  C   UNL     1      -3.848  53.494  52.220  0.00  0.00    +0.000 C 
BRANCH  30  32
ATOM     32  O   UNL     1      -4.311  53.127  49.825  0.00  0.00    +0.000 OA
ATOM     33  C   UNL     1      -4.575  54.114  48.838  0.00  0.00    +0.000 C 
ENDBRANCH  30  32
ENDBRANCH  29  30
ENDBRANCH  28  29
ENDBRANCH   5  28
TORSDOF 6
ENDMDL
MODEL 3
REMARK VINA RESULT:      -7.7      2.831      3.474
REMARK  Name = 338307
REMARK  8 active torsions:
REMARK  status: ('A' for Active; 'I' for Inactive)
REMARK    1  A    between atoms: C_6  and  C_10
REMARK    2  A    between atoms: C_14  and  O_18
REMARK    3  A    between atoms: N_17  and  C_21
REMARK    4  A    between atoms: C_21  and  C_24
REMARK    5  A    between atoms: C_24  and  C_27
REMARK    6  A    between atoms: C_27  and  O_28
REMARK    7  A    between atoms: C_27  and  C_29
REMARK    8  A    between atoms: O_28  and  C_30
REMARK                            x       y       z     vdW  Elec       q    Type
REMARK                         _______ _______ _______ _____ _____    ______ ____
ROOT
ATOM      1  C   UNL     1     -11.605  55.774  48.823  0.00  0.00    +0.000 A 
ATOM      2  C   UNL     1     -10.673  55.050  49.741  0.00  0.00    +0.000 A 
ATOM      3  C   UNL     1     -11.632  55.471  47.516  0.00  0.00    +0.000 A 
ATOM      4  O   UNL     1     -10.727  55.297  50.950  0.00  0.00    +0.000 OA
ATOM      5  N   UNL     1      -9.791  54.125  49.207  0.00  0.00    +0.000 N 
ATOM      6  C   UNL     1     -10.743  54.430  46.974  0.00  0.00    +0.000 A 
ATOM      7  C   UNL     1      -9.818  53.787  47.819  0.00  0.00    +0.000 A 
ATOM      8  C   UNL     1     -10.810  54.067  45.617  0.00  0.00    +0.000 A 
ATOM      9  C   UNL     1      -8.972  52.808  47.273  0.00  0.00    +0.000 A 
ATOM     10  C   UNL     1      -9.983  53.073  45.099  0.00  0.00    +0.000 A 
ATOM     11  C   UNL     1      -9.063  52.446  45.927  0.00  0.00    +0.000 A 
ENDROOT
BRANCH   1  17
ATOM     12  S   UNL     1     -13.521  59.151  49.431  0.00  0.00    +0.000 S 
ATOM     13  O   UNL     1     -14.651  59.349  48.544  0.00  0.00    +0.000 OA
ATOM     14  O   UNL     1     -12.638  60.256  49.748  0.00  0.00    +0.000 OA
ATOM     15  N   UNL     1     -12.618  57.949  48.820  0.00  0.00    +0.000 N 
ATOM     16  C   UNL     1     -14.194  58.618  50.966  0.00  0.00    +0.000 A 
ATOM     17  C   UNL     1     -12.551  56.796  49.418  0.00  0.00    +0.000 C 
ATOM     18  C   UNL     1     -13.959  57.310  51.353  0.00  0.00    +0.000 A 
ATOM     19  C   UNL     1     -14.923  59.504  51.763  0.00  0.00    +0.000 A 
ATOM     20  N   UNL     1     -13.248  56.430  50.544  0.00  0.00    +0.000 N 
ATOM     21  C   UNL     1     -14.524  56.858  52.552  0.00  0.00    +0.000 A 
ATOM     22  C   UNL     1     -15.453  59.050  52.969  0.00  0.00    +0.000 A 
ATOM     23  C   UNL     1     -15.262  57.726  53.358  0.00  0.00    +0.000 A 
ATOM     24  H   UNL     1     -12.115  58.096  47.986  0.00  0.00    +0.000 HD
ATOM     25  H   UNL     1     -13.243  55.479  50.798  0.00  0.00    +0.000 HD
ENDBRANCH   1  17
BRANCH   3  26
ATOM     26  O   UNL     1     -12.480  56.063  46.594  0.00  0.00    +0.000 OA
ATOM     27  H   UNL     1     -12.955  56.836  46.825  0.00  0.00    +0.000 HD
ENDBRANCH   3  26
BRANCH   5  28
ATOM     28  C   UNL     1      -8.815  53.521  50.124  0.00  0.00    +0.000 C 
BRANCH  28  29
ATOM     29  C   UNL     1      -7.557  54.389  50.255  0.00  0.00    +0.000 C 
BRANCH  29  30
ATOM     30  C   UNL     1      -7.269  54.791  51.709  0.00  0.00    +0.000 C 
ATOM     31  C   UNL     1      -7.894  53.807  52.700  0.00  0.00    +0.000 C 
BRANCH  30  32
ATOM     32  O   UNL     1      -7.641  56.149  51.966  0.00  0.00    +0.000 OA
ATOM     33  C   UNL     1      -7.645  57.021  50.844  0.00  0.00    +0.000 C 
ENDBRANCH  30  32
ENDBRANCH  29  30
ENDBRANCH  28  29
ENDBRANCH   5  28
TORSDOF 6
ENDMDL
MODEL 4
REMARK VINA RESULT:      -7.7      2.883      7.489
REMARK  Name = 338307
REMARK  8 active torsions:
REMARK  status: ('A' for Active; 'I' for Inactive)
REMARK    1  A    between atoms: C_6  and  C_10
REMARK    2  A    between atoms: C_14  and  O_18
REMARK    3  A    between atoms: N_17  and  C_21
REMARK    4  A    between atoms: C_21  and  C_24
REMARK    5  A    between atoms: C_24  and  C_27
REMARK    6  A    between atoms: C_27  and  O_28
REMARK    7  A    between atoms: C_27  and  C_29
REMARK    8  A    between atoms: O_28  and  C_30
REMARK                            x       y       z     vdW  Elec       q    Type
REMARK                         _______ _______ _______ _____ _____    ______ ____
ROOT
ATOM      1  C   UNL     1     -10.001  54.727  50.967  0.00  0.00    +0.000 A 
ATOM      2  C   UNL     1     -11.323  55.285  51.385  0.00  0.00    +0.000 A 
ATOM      3  C   UNL     1      -9.684  54.653  49.664  0.00  0.00    +0.000 A 
ATOM      4  O   UNL     1     -11.554  55.411  52.592  0.00  0.00    +0.000 OA
ATOM      5  N   UNL     1     -12.236  55.648  50.408  0.00  0.00    +0.000 N 
ATOM      6  C   UNL     1     -10.634  55.114  48.639  0.00  0.00    +0.000 A 
ATOM      7  C   UNL     1     -11.906  55.583  49.020  0.00  0.00    +0.000 A 
ATOM      8  C   UNL     1     -10.282  55.095  47.277  0.00  0.00    +0.000 A 
ATOM      9  C   UNL     1     -12.798  56.004  48.020  0.00  0.00    +0.000 A 
ATOM     10  C   UNL     1     -11.169  55.543  46.302  0.00  0.00    +0.000 A 
ATOM     11  C   UNL     1     -12.427  55.995  46.674  0.00  0.00    +0.000 A 
ENDROOT
BRANCH   1  17
ATOM     12  S   UNL     1      -6.735  54.550  53.144  0.00  0.00    +0.000 S 
ATOM     13  O   UNL     1      -6.645  55.592  54.150  0.00  0.00    +0.000 OA
ATOM     14  O   UNL     1      -5.562  54.169  52.380  0.00  0.00    +0.000 OA
ATOM     15  N   UNL     1      -7.898  54.973  52.096  0.00  0.00    +0.000 N 
ATOM     16  C   UNL     1      -7.248  53.097  53.992  0.00  0.00    +0.000 A 
ATOM     17  C   UNL     1      -9.020  54.317  52.045  0.00  0.00    +0.000 C 
ATOM     18  C   UNL     1      -8.521  52.619  53.736  0.00  0.00    +0.000 A 
ATOM     19  C   UNL     1      -6.380  52.451  54.875  0.00  0.00    +0.000 A 
ATOM     20  N   UNL     1      -9.385  53.280  52.869  0.00  0.00    +0.000 N 
ATOM     21  C   UNL     1      -8.961  51.488  54.434  0.00  0.00    +0.000 A 
ATOM     22  C   UNL     1      -6.820  51.308  55.540  0.00  0.00    +0.000 A 
ATOM     23  C   UNL     1      -8.112  50.833  55.328  0.00  0.00    +0.000 A 
ATOM     24  H   UNL     1      -7.752  55.737  51.491  0.00  0.00    +0.000 HD
ATOM     25  H   UNL     1     -10.323  52.982  52.844  0.00  0.00    +0.000 HD
ENDBRANCH   1  17
BRANCH   3  26
ATOM     26  O   UNL     1      -8.475  54.181  49.181  0.00  0.00    +0.000 OA
ATOM     27  H   UNL     1      -8.262  53.272  49.260  0.00  0.00    +0.000 HD
ENDBRANCH   3  26
BRANCH   5  28
ATOM     28  C   UNL     1     -13.566  56.083  50.860  0.00  0.00    +0.000 C 
BRANCH  28  29
ATOM     29  C   UNL     1     -13.660  57.612  50.935  0.00  0.00    +0.000 C 
BRANCH  29  30
ATOM     30  C   UNL     1     -14.503  58.091  52.125  0.00  0.00    +0.000 C 
ATOM     31  C   UNL     1     -15.511  57.028  52.566  0.00  0.00    +0.000 C 
BRANCH  30  32
ATOM     32  O   UNL     1     -15.114  59.359  51.864  0.00  0.00    +0.000 OA
ATOM     33  C   UNL     1     -15.047  59.823  50.523  0.00  0.00    +0.000 C 
ENDBRANCH  30  32
ENDBRANCH  29  30
ENDBRANCH  28  29
ENDBRANCH   5  28
TORSDOF 6
ENDMDL
MODEL 5
REMARK VINA RESULT:      -7.7      3.601      7.667
REMARK  Name = 338307
REMARK  8 active torsions:
REMARK  status: ('A' for Active; 'I' for Inactive)
REMARK    1  A    between atoms: C_6  and  C_10
REMARK    2  A    between atoms: C_14  and  O_18
REMARK    3  A    between atoms: N_17  and  C_21
REMARK    4  A    between atoms: C_21  and  C_24
REMARK    5  A    between atoms: C_24  and  C_27
REMARK    6  A    between atoms: C_27  and  O_28
REMARK    7  A    between atoms: C_27  and  C_29
REMARK    8  A    between atoms: O_28  and  C_30
REMARK                            x       y       z     vdW  Elec       q    Type
REMARK                         _______ _______ _______ _____ _____    ______ ____
ROOT
ATOM      1  C   UNL     1     -10.214  55.163  50.624  0.00  0.00    +0.000 A 
ATOM      2  C   UNL     1      -9.764  55.002  49.208  0.00  0.00    +0.000 A 
ATOM      3  C   UNL     1     -11.421  55.686  50.892  0.00  0.00    +0.000 A 
ATOM      4  O   UNL     1      -8.683  54.446  48.993  0.00  0.00    +0.000 OA
ATOM      5  N   UNL     1     -10.578  55.472  48.190  0.00  0.00    +0.000 N 
ATOM      6  C   UNL     1     -12.308  56.110  49.796  0.00  0.00    +0.000 A 
ATOM      7  C   UNL     1     -11.868  56.021  48.462  0.00  0.00    +0.000 A 
ATOM      8  C   UNL     1     -13.597  56.603  50.069  0.00  0.00    +0.000 A 
ATOM      9  C   UNL     1     -12.729  56.447  47.437  0.00  0.00    +0.000 A 
ATOM     10  C   UNL     1     -14.448  56.994  49.038  0.00  0.00    +0.000 A 
ATOM     11  C   UNL     1     -14.012  56.917  47.723  0.00  0.00    +0.000 A 
ENDROOT
BRANCH   1  17
ATOM     12  S   UNL     1      -7.091  54.776  52.978  0.00  0.00    +0.000 S 
ATOM     13  O   UNL     1      -7.049  55.744  54.058  0.00  0.00    +0.000 OA
ATOM     14  O   UNL     1      -5.879  54.427  52.262  0.00  0.00    +0.000 OA
ATOM     15  N   UNL     1      -8.181  55.292  51.894  0.00  0.00    +0.000 N 
ATOM     16  C   UNL     1      -7.676  53.278  53.689  0.00  0.00    +0.000 A 
ATOM     17  C   UNL     1      -9.307  54.661  51.729  0.00  0.00    +0.000 C 
ATOM     18  C   UNL     1      -8.938  52.842  53.324  0.00  0.00    +0.000 A 
ATOM     19  C   UNL     1      -6.874  52.556  54.576  0.00  0.00    +0.000 A 
ATOM     20  N   UNL     1      -9.737  53.577  52.455  0.00  0.00    +0.000 N 
ATOM     21  C   UNL     1      -9.436  51.674  53.914  0.00  0.00    +0.000 A 
ATOM     22  C   UNL     1      -7.370  51.378  55.132  0.00  0.00    +0.000 A 
ATOM     23  C   UNL     1      -8.653  50.943  54.809  0.00  0.00    +0.000 A 
ATOM     24  H   UNL     1      -7.988  56.093  51.354  0.00  0.00    +0.000 HD
ATOM     25  H   UNL     1     -10.676  53.299  52.352  0.00  0.00    +0.000 HD
ENDBRANCH   1  17
BRANCH   3  26
ATOM     26  O   UNL     1     -11.937  55.847  52.167  0.00  0.00    +0.000 OA
ATOM     27  H   UNL     1     -11.365  55.837  52.908  0.00  0.00    +0.000 HD
ENDBRANCH   3  26
BRANCH   5  28
ATOM     28  C   UNL     1     -10.049  55.399  46.820  0.00  0.00    +0.000 C 
BRANCH  28  29
ATOM     29  C   UNL     1     -10.429  54.078  46.141  0.00  0.00    +0.000 C 
BRANCH  29  30
ATOM     30  C   UNL     1      -9.279  53.491  45.311  0.00  0.00    +0.000 C 
ATOM     31  C   UNL     1      -8.067  54.424  45.289  0.00  0.00    +0.000 C 
BRANCH  30  32
ATOM     32  O   UNL     1      -9.712  53.113  44.000  0.00  0.00    +0.000 OA
ATOM     33  C   UNL     1      -8.688  52.783  43.072  0.00  0.00    +0.000 C 
ENDBRANCH  30  32
ENDBRANCH  29  30
ENDBRANCH  28  29
ENDBRANCH   5  28
TORSDOF 6
ENDMDL
MODEL 6
REMARK VINA RESULT:      -7.5      3.595      4.308
REMARK  Name = 338307
REMARK  8 active torsions:
REMARK  status: ('A' for Active; 'I' for Inactive)
REMARK    1  A    between atoms: C_6  and  C_10
REMARK    2  A    between atoms: C_14  and  O_18
REMARK    3  A    between atoms: N_17  and  C_21
REMARK    4  A    between atoms: C_21  and  C_24
REMARK    5  A    between atoms: C_24  and  C_27
REMARK    6  A    between atoms: C_27  and  O_28
REMARK    7  A    between atoms: C_27  and  C_29
REMARK    8  A    between atoms: O_28  and  C_30
REMARK                            x       y       z     vdW  Elec       q    Type
REMARK                         _______ _______ _______ _____ _____    ______ ____
ROOT
ATOM      1  C   UNL     1     -10.760  55.701  48.420  0.00  0.00    +0.000 A 
ATOM      2  C   UNL     1      -9.336  55.612  48.865  0.00  0.00    +0.000 A 
ATOM      3  C   UNL     1     -11.137  55.149  47.255  0.00  0.00    +0.000 A 
ATOM      4  O   UNL     1      -9.037  56.062  49.976  0.00  0.00    +0.000 OA
ATOM      5  N   UNL     1      -8.407  55.024  48.023  0.00  0.00    +0.000 N 
ATOM      6  C   UNL     1     -10.153  54.458  46.406  0.00  0.00    +0.000 A 
ATOM      7  C   UNL     1      -8.798  54.424  46.786  0.00  0.00    +0.000 A 
ATOM      8  C   UNL     1     -10.554  53.826  45.215  0.00  0.00    +0.000 A 
ATOM      9  C   UNL     1      -7.878  53.771  45.950  0.00  0.00    +0.000 A 
ATOM     10  C   UNL     1      -9.632  53.159  44.413  0.00  0.00    +0.000 A 
ATOM     11  C   UNL     1      -8.295  53.134  44.780  0.00  0.00    +0.000 A 
ENDROOT
BRANCH   1  17
ATOM     12  S   UNL     1     -13.337  56.231  51.340  0.00  0.00    +0.000 S 
ATOM     13  O   UNL     1     -12.717  56.506  52.623  0.00  0.00    +0.000 OA
ATOM     14  O   UNL     1     -14.482  55.346  51.256  0.00  0.00    +0.000 OA
ATOM     15  N   UNL     1     -12.187  55.658  50.350  0.00  0.00    +0.000 N 
ATOM     16  C   UNL     1     -13.883  57.784  50.721  0.00  0.00    +0.000 A 
ATOM     17  C   UNL     1     -11.762  56.363  49.342  0.00  0.00    +0.000 C 
ATOM     18  C   UNL     1     -13.229  58.303  49.617  0.00  0.00    +0.000 A 
ATOM     19  C   UNL     1     -14.955  58.447  51.324  0.00  0.00    +0.000 A 
ATOM     20  N   UNL     1     -12.152  57.645  49.035  0.00  0.00    +0.000 N 
ATOM     21  C   UNL     1     -13.624  59.558  49.138  0.00  0.00    +0.000 A 
ATOM     22  C   UNL     1     -15.358  59.681  50.818  0.00  0.00    +0.000 A 
ATOM     23  C   UNL     1     -14.687  60.240  49.732  0.00  0.00    +0.000 A 
ATOM     24  H   UNL     1     -11.807  54.764  50.513  0.00  0.00    +0.000 HD
ATOM     25  H   UNL     1     -11.633  58.130  48.354  0.00  0.00    +0.000 HD
ENDBRANCH   1  17
BRANCH   3  26
ATOM     26  O   UNL     1     -12.436  55.152  46.774  0.00  0.00    +0.000 OA
ATOM     27  H   UNL     1     -13.156  55.147  47.372  0.00  0.00    +0.000 HD
ENDBRANCH   3  26
BRANCH   5  28
ATOM     28  C   UNL     1      -7.000  55.060  48.446  0.00  0.00    +0.000 C 
BRANCH  28  29
ATOM     29  C   UNL     1      -6.685  53.940  49.445  0.00  0.00    +0.000 C 
BRANCH  29  30
ATOM     30  C   UNL     1      -5.988  54.459  50.710  0.00  0.00    +0.000 C 
ATOM     31  C   UNL     1      -4.575  53.890  50.850  0.00  0.00    +0.000 C 
BRANCH  30  32
ATOM     32  O   UNL     1      -6.788  54.251  51.879  0.00  0.00    +0.000 OA
ATOM     33  C   UNL     1      -6.883  55.347  52.778  0.00  0.00    +0.000 C 
ENDBRANCH  30  32
ENDBRANCH  29  30
ENDBRANCH  28  29
ENDBRANCH   5  28
TORSDOF 6
ENDMDL
MODEL 7
REMARK VINA RESULT:      -7.5      4.131      6.938
REMARK  Name = 338307
REMARK  8 active torsions:
REMARK  status: ('A' for Active; 'I' for Inactive)
REMARK    1  A    between atoms: C_6  and  C_10
REMARK    2  A    between atoms: C_14  and  O_18
REMARK    3  A    between atoms: N_17  and  C_21
REMARK    4  A    between atoms: C_21  and  C_24
REMARK    5  A    between atoms: C_24  and  C_27
REMARK    6  A    between atoms: C_27  and  O_28
REMARK    7  A    between atoms: C_27  and  C_29
REMARK    8  A    between atoms: O_28  and  C_30
REMARK                            x       y       z     vdW  Elec       q    Type
REMARK                         _______ _______ _______ _____ _____    ______ ____
ROOT
ATOM      1  C   UNL     1     -11.040  54.572  48.259  0.00  0.00    +0.000 A 
ATOM      2  C   UNL     1     -10.703  54.163  49.656  0.00  0.00    +0.000 A 
ATOM      3  C   UNL     1     -12.018  55.464  48.036  0.00  0.00    +0.000 A 
ATOM      4  O   UNL     1      -9.748  53.400  49.833  0.00  0.00    +0.000 OA
ATOM      5  N   UNL     1     -11.466  54.658  50.701  0.00  0.00    +0.000 N 
ATOM      6  C   UNL     1     -12.770  56.042  49.162  0.00  0.00    +0.000 A 
ATOM      7  C   UNL     1     -12.503  55.616  50.477  0.00  0.00    +0.000 A 
ATOM      8  C   UNL     1     -13.754  57.021  48.937  0.00  0.00    +0.000 A 
ATOM      9  C   UNL     1     -13.245  56.173  51.531  0.00  0.00    +0.000 A 
ATOM     10  C   UNL     1     -14.460  57.584  49.998  0.00  0.00    +0.000 A 
ATOM     11  C   UNL     1     -14.207  57.157  51.293  0.00  0.00    +0.000 A 
ENDROOT
BRANCH   1  17
ATOM     12  S   UNL     1      -8.044  53.981  45.785  0.00  0.00    +0.000 S 
ATOM     13  O   UNL     1      -7.009  53.113  46.317  0.00  0.00    +0.000 OA
ATOM     14  O   UNL     1      -7.687  55.166  45.031  0.00  0.00    +0.000 OA
ATOM     15  N   UNL     1      -8.987  54.440  47.022  0.00  0.00    +0.000 N 
ATOM     16  C   UNL     1      -8.999  52.986  44.694  0.00  0.00    +0.000 A 
ATOM     17  C   UNL     1     -10.210  54.008  47.125  0.00  0.00    +0.000 C 
ATOM     18  C   UNL     1     -10.294  52.677  45.072  0.00  0.00    +0.000 A 
ATOM     19  C   UNL     1      -8.460  52.550  43.482  0.00  0.00    +0.000 A 
ATOM     20  N   UNL     1     -10.816  53.100  46.289  0.00  0.00    +0.000 N 
ATOM     21  C   UNL     1     -11.053  51.851  44.235  0.00  0.00    +0.000 A 
ATOM     22  C   UNL     1      -9.238  51.754  42.642  0.00  0.00    +0.000 A 
ATOM     23  C   UNL     1     -10.529  51.397  43.023  0.00  0.00    +0.000 A 
ATOM     24  H   UNL     1      -8.629  55.054  47.704  0.00  0.00    +0.000 HD
ATOM     25  H   UNL     1     -11.681  52.725  46.572  0.00  0.00    +0.000 HD
ENDBRANCH   1  17
BRANCH   3  26
ATOM     26  O   UNL     1     -12.382  55.927  46.782  0.00  0.00    +0.000 OA
ATOM     27  H   UNL     1     -11.951  56.674  46.416  0.00  0.00    +0.000 HD
ENDBRANCH   3  26
BRANCH   5  28
ATOM     28  C   UNL     1     -11.178  54.143  52.047  0.00  0.00    +0.000 C 
BRANCH  28  29
ATOM     29  C   UNL     1     -10.274  55.101  52.833  0.00  0.00    +0.000 C 
BRANCH  29  30
ATOM     30  C   UNL     1      -8.898  54.494  53.138  0.00  0.00    +0.000 C 
ATOM     31  C   UNL     1      -9.000  53.004  53.471  0.00  0.00    +0.000 C 
BRANCH  30  32
ATOM     32  O   UNL     1      -8.201  55.240  54.141  0.00  0.00    +0.000 OA
ATOM     33  C   UNL     1      -6.920  55.736  53.778  0.00  0.00    +0.000 C 
ENDBRANCH  30  32
ENDBRANCH  29  30
ENDBRANCH  28  29
ENDBRANCH   5  28
TORSDOF 6
ENDMDL
MODEL 8
REMARK VINA RESULT:      -7.5      3.494      5.820
REMARK  Name = 338307
REMARK  8 active torsions:
REMARK  status: ('A' for Active; 'I' for Inactive)
REMARK    1  A    between atoms: C_6  and  C_10
REMARK    2  A    between atoms: C_14  and  O_18
REMARK    3  A    between atoms: N_17  and  C_21
REMARK    4  A    between atoms: C_21  and  C_24
REMARK    5  A    between atoms: C_24  and  C_27
REMARK    6  A    between atoms: C_27  and  O_28
REMARK    7  A    between atoms: C_27  and  C_29
REMARK    8  A    between atoms: O_28  and  C_30
REMARK                            x       y       z     vdW  Elec       q    Type
REMARK                         _______ _______ _______ _____ _____    ______ ____
ROOT
ATOM      1  C   UNL     1     -11.455  55.848  48.910  0.00  0.00    +0.000 A 
ATOM      2  C   UNL     1     -11.602  55.430  47.483  0.00  0.00    +0.000 A 
ATOM      3  C   UNL     1     -10.429  55.387  49.644  0.00  0.00    +0.000 A 
ATOM      4  O   UNL     1     -12.511  55.931  46.814  0.00  0.00    +0.000 OA
ATOM      5  N   UNL     1     -10.712  54.506  46.960  0.00  0.00    +0.000 N 
ATOM      6  C   UNL     1      -9.445  54.465  49.052  0.00  0.00    +0.000 A 
ATOM      7  C   UNL     1      -9.611  54.017  47.727  0.00  0.00    +0.000 A 
ATOM      8  C   UNL     1      -8.336  54.027  49.797  0.00  0.00    +0.000 A 
ATOM      9  C   UNL     1      -8.666  53.126  47.192  0.00  0.00    +0.000 A 
ATOM     10  C   UNL     1      -7.393  53.167  49.241  0.00  0.00    +0.000 A 
ATOM     11  C   UNL     1      -7.560  52.715  47.940  0.00  0.00    +0.000 A 
ENDROOT
BRANCH   1  17
ATOM     12  S   UNL     1     -13.513  59.156  49.423  0.00  0.00    +0.000 S 
ATOM     13  O   UNL     1     -14.647  59.283  48.526  0.00  0.00    +0.000 OA
ATOM     14  O   UNL     1     -12.679  60.305  49.714  0.00  0.00    +0.000 OA
ATOM     15  N   UNL     1     -12.558  57.978  48.847  0.00  0.00    +0.000 N 
ATOM     16  C   UNL     1     -14.171  58.636  50.969  0.00  0.00    +0.000 A 
ATOM     17  C   UNL     1     -12.445  56.844  49.475  0.00  0.00    +0.000 C 
ATOM     18  C   UNL     1     -13.883  57.349  51.391  0.00  0.00    +0.000 A 
ATOM     19  C   UNL     1     -14.939  59.511  51.739  0.00  0.00    +0.000 A 
ATOM     20  N   UNL     1     -13.132  56.479  50.608  0.00  0.00    +0.000 N 
ATOM     21  C   UNL     1     -14.434  56.905  52.598  0.00  0.00    +0.000 A 
ATOM     22  C   UNL     1     -15.456  59.066  52.955  0.00  0.00    +0.000 A 
ATOM     23  C   UNL     1     -15.212  57.761  53.379  0.00  0.00    +0.000 A 
ATOM     24  H   UNL     1     -12.058  58.124  48.011  0.00  0.00    +0.000 HD
ATOM     25  H   UNL     1     -13.089  55.536  50.886  0.00  0.00    +0.000 HD
ENDBRANCH   1  17
BRANCH   3  26
ATOM     26  O   UNL     1     -10.191  55.739  50.962  0.00  0.00    +0.000 OA
ATOM     27  H   UNL     1     -10.910  55.918  51.535  0.00  0.00    +0.000 HD
ENDBRANCH   3  26
BRANCH   5  28
ATOM     28  C   UNL     1     -10.961  54.035  45.590  0.00  0.00    +0.000 C 
BRANCH  28  29
ATOM     29  C   UNL     1     -11.866  52.797  45.578  0.00  0.00    +0.000 C 
BRANCH  29  30
ATOM     30  C   UNL     1     -11.432  51.762  44.530  0.00  0.00    +0.000 C 
ATOM     31  C   UNL     1     -11.718  50.334  44.997  0.00  0.00    +0.000 C 
BRANCH  30  32
ATOM     32  O   UNL     1     -10.071  51.952  44.131  0.00  0.00    +0.000 OA
ATOM     33  C   UNL     1      -9.832  52.026  42.732  0.00  0.00    +0.000 C 
ENDBRANCH  30  32
ENDBRANCH  29  30
ENDBRANCH  28  29
ENDBRANCH   5  28
TORSDOF 6
ENDMDL
MODEL 9
REMARK VINA RESULT:      -7.4      3.223      7.723
REMARK  Name = 338307
REMARK  8 active torsions:
REMARK  status: ('A' for Active; 'I' for Inactive)
REMARK    1  A    between atoms: C_6  and  C_10
REMARK    2  A    between atoms: C_14  and  O_18
REMARK    3  A    between atoms: N_17  and  C_21
REMARK    4  A    between atoms: C_21  and  C_24
REMARK    5  A    between atoms: C_24  and  C_27
REMARK    6  A    between atoms: C_27  and  O_28
REMARK    7  A    between atoms: C_27  and  C_29
REMARK    8  A    between atoms: O_28  and  C_30
REMARK                            x       y       z     vdW  Elec       q    Type
REMARK                         _______ _______ _______ _____ _____    ______ ____
ROOT
ATOM      1  C   UNL     1     -10.445  54.881  50.394  0.00  0.00    +0.000 A 
ATOM      2  C   UNL     1     -10.136  54.763  48.937  0.00  0.00    +0.000 A 
ATOM      3  C   UNL     1     -11.550  55.528  50.797  0.00  0.00    +0.000 A 
ATOM      4  O   UNL     1      -9.154  54.096  48.595  0.00  0.00    +0.000 OA
ATOM      5  N   UNL     1     -10.963  55.396  48.023  0.00  0.00    +0.000 N 
ATOM      6  C   UNL     1     -12.462  56.130  49.810  0.00  0.00    +0.000 A 
ATOM      7  C   UNL     1     -12.147  56.078  48.439  0.00  0.00    +0.000 A 
ATOM      8  C   UNL     1     -13.652  56.756  50.224  0.00  0.00    +0.000 A 
ATOM      9  C   UNL     1     -13.027  56.673  47.521  0.00  0.00    +0.000 A 
ATOM     10  C   UNL     1     -14.527  57.315  49.297  0.00  0.00    +0.000 A 
ATOM     11  C   UNL     1     -14.213  57.275  47.946  0.00  0.00    +0.000 A 
ENDROOT
BRANCH   1  17
ATOM     12  S   UNL     1      -9.004  52.232  52.914  0.00  0.00    +0.000 S 
ATOM     13  O   UNL     1      -8.328  51.121  52.271  0.00  0.00    +0.000 OA
ATOM     14  O   UNL     1      -9.872  51.999  54.052  0.00  0.00    +0.000 OA
ATOM     15  N   UNL     1      -9.865  53.009  51.780  0.00  0.00    +0.000 N 
ATOM     16  C   UNL     1      -7.737  53.307  53.488  0.00  0.00    +0.000 A 
ATOM     17  C   UNL     1      -9.522  54.200  51.383  0.00  0.00    +0.000 C 
ATOM     18  C   UNL     1      -7.601  54.534  52.863  0.00  0.00    +0.000 A 
ATOM     19  C   UNL     1      -6.917  52.927  54.553  0.00  0.00    +0.000 A 
ATOM     20  N   UNL     1      -8.410  54.896  51.791  0.00  0.00    +0.000 N 
ATOM     21  C   UNL     1      -6.570  55.384  53.279  0.00  0.00    +0.000 A 
ATOM     22  C   UNL     1      -5.914  53.796  54.979  0.00  0.00    +0.000 A 
ATOM     23  C   UNL     1      -5.734  55.019  54.336  0.00  0.00    +0.000 A 
ATOM     24  H   UNL     1     -10.656  52.574  51.388  0.00  0.00    +0.000 HD
ATOM     25  H   UNL     1      -8.169  55.710  51.291  0.00  0.00    +0.000 HD
ENDBRANCH   1  17
BRANCH   3  26
ATOM     26  O   UNL     1     -11.937  55.664  52.120  0.00  0.00    +0.000 OA
ATOM     27  H   UNL     1     -12.821  55.894  52.328  0.00  0.00    +0.000 HD
ENDBRANCH   3  26
BRANCH   5  28
ATOM     28  C   UNL     1     -10.560  55.352  46.610  0.00  0.00    +0.000 C 
BRANCH  28  29
ATOM     29  C   UNL     1     -11.368  54.310  45.828  0.00  0.00    +0.000 C 
BRANCH  29  30
ATOM     30  C   UNL     1     -10.549  53.052  45.505  0.00  0.00    +0.000 C 
ATOM     31  C   UNL     1     -10.550  52.748  44.006  0.00  0.00    +0.000 C 
BRANCH  30  32
ATOM     32  O   UNL     1     -10.962  51.934  46.298  0.00  0.00    +0.000 OA
ATOM     33  C   UNL     1     -12.362  51.770  46.470  0.00  0.00    +0.000 C 
ENDBRANCH  30  32
ENDBRANCH  29  30
ENDBRANCH  28  29
ENDBRANCH   5  28
TORSDOF 6
ENDMDL
