REMARK  Name = 
REMARK  6 active torsions:
REMARK  status: ('A' for Active; 'I' for Inactive)
REMARK    1  A    between atoms: C_1  and  C_2
REMARK    2  A    between atoms: C_5  and  N_6
REMARK    3  A    between atoms: C_7  and  C_9
REMARK    4  A    between atoms: C_12  and  O_13
REMARK    5  A    between atoms: O_13  and  C_14
REMARK    6  A    between atoms: C_24  and  C_25
REMARK                            x       y       z     vdW  Elec       q    Type
REMARK                         _______ _______ _______ _____ _____    ______ ____
ROOT
ATOM      1  N   UNK     1      -1.133   0.988  -1.576  0.00  0.00    -0.243 N 
ATOM      2  C   UNK     1       0.226   1.099  -1.852  0.00  0.00    +0.253 C 
ATOM      3  O   UNK     1       0.807   2.169  -2.031  0.00  0.00    -0.270 OA
ATOM      4  C   UNK     1      -1.921   0.064  -2.281  0.00  0.00    +0.168 A 
ATOM      5  N   UNK     1      -3.110  -0.321  -1.884  0.00  0.00    -0.223 NA
ATOM      6  C   UNK     1      -3.669  -1.216  -2.806  0.00  0.00    +0.095 A 
ATOM      7  C   UNK     1      -2.878  -1.440  -3.919  0.00  0.00    +0.078 A 
ATOM      8  S   UNK     1      -1.432  -0.535  -3.814  0.00  0.00    -0.060 S 
ENDROOT
BRANCH   1  13
ATOM      9  C   UNK     1       0.890   2.737   2.857  0.00  0.00    +0.007 C 
ATOM     10  C   UNK     1      -0.338   2.644   1.952  0.00  0.00    -0.014 C 
ATOM     11  C   UNK     1      -0.097   3.387   0.636  0.00  0.00    +0.005 C 
ATOM     12  C   UNK     1      -1.272   3.255  -0.338  0.00  0.00    +0.023 C 
ATOM     13  C   UNK     1      -1.806   1.822  -0.545  0.00  0.00    +0.084 C 
ATOM     14  C   UNK     1      -1.936   1.075   0.797  0.00  0.00    +0.023 C 
ATOM     15  C   UNK     1      -0.696   1.182   1.679  0.00  0.00    +0.005 C 
ENDBRANCH   1  13
BRANCH   2  16
ATOM     16  C   UNK     1       1.075  -0.138  -1.822  0.00  0.00    +0.038 A 
ATOM     17  C   UNK     1       2.285  -0.131  -2.532  0.00  0.00    +0.016 A 
ATOM     18  C   UNK     1       3.134  -1.239  -2.491  0.00  0.00    +0.047 A 
ATOM     19  C   UNK     1       2.790  -2.347  -1.717  0.00  0.00    +0.128 A 
ATOM     20  C   UNK     1       1.580  -2.373  -1.020  0.00  0.00    +0.047 A 
ATOM     21  C   UNK     1       0.729  -1.265  -1.061  0.00  0.00    +0.016 A 
BRANCH  19  22
ATOM     22  O   UNK     1       3.656  -3.416  -1.723  0.00  0.00    -0.456 OA
BRANCH  22  23
ATOM     23  C   UNK     1       4.036  -3.918  -0.498  0.00  0.00    +0.128 A 
ATOM     24  C   UNK     1       4.440  -3.104   0.563  0.00  0.00    +0.046 A 
ATOM     25  C   UNK     1       4.845  -3.684   1.767  0.00  0.00    +0.004 A 
ATOM     26  C   UNK     1       4.862  -5.073   1.902  0.00  0.00    +0.000 A 
ATOM     27  C   UNK     1       4.480  -5.884   0.833  0.00  0.00    +0.004 A 
ATOM     28  C   UNK     1       4.074  -5.307  -0.371  0.00  0.00    +0.046 A 
ENDBRANCH  22  23
ENDBRANCH  19  22
ENDBRANCH   2  16
BRANCH   6  29
ATOM     29  C   UNK     1      -5.004  -1.888  -2.640  0.00  0.00    +0.090 C 
ATOM     30  O   UNK     1      -5.363  -2.671  -3.578  0.00  0.00    -0.543 OA
ATOM     31  O   UNK     1      -5.664  -1.631  -1.586  0.00  0.00    -0.543 OA
ENDBRANCH   6  29
TORSDOF 5
