
 OpenBabel09132204463D

 31 34  0  0  1  0  0  0  0  0999 V2000
    2.3260   -7.1280    4.5830 N   0  0  0  0  0  0  0  0  0  0  0  0
    1.6960   -5.8990    4.7450 C   0  0  0  0  0  0  0  0  0  0  0  0
    0.4930   -5.7130    4.5660 O   0  0  0  0  0  0  0  0  0  0  0  0
    3.5190   -7.2160    3.8480 C   0  0  0  0  0  0  0  0  0  0  0  0
    4.3280   -8.2470    3.9040 N   0  0  0  0  0  0  0  0  0  0  0  0
    5.4130   -8.0680    3.0360 C   0  0  0  0  0  0  0  0  0  0  0  0
    5.3540   -6.8970    2.3010 C   0  0  0  0  0  3  0  0  0  0  0  0
    3.9440   -6.0160    2.6960 S   0  0  0  0  0  0  0  0  0  0  0  0
   -2.5270   -8.0180    6.1500 C   0  0  0  0  0  1  0  0  0  0  0  0
   -1.1030   -8.5540    6.0070 C   0  0  1  0  0  3  0  0  0  0  0  0
   -0.7210   -8.6880    4.5320 C   0  0  0  0  0  2  0  0  0  0  0  0
    0.7280   -9.1470    4.3380 C   0  0  0  0  0  2  0  0  0  0  0  0
    1.7830   -8.3840    5.1660 C   0  0  2  0  0  3  0  0  0  0  0  0
    1.3130   -8.1810    6.6200 C   0  0  0  0  0  2  0  0  0  0  0  0
   -0.1100   -7.6430    6.7330 C   0  0  0  0  0  2  0  0  0  0  0  0
    2.4890   -4.7420    5.2790 C   0  0  0  0  0  0  0  0  0  0  0  0
    3.2620   -4.9430    6.4330 C   0  0  0  0  0  3  0  0  0  0  0  0
    4.0590   -3.9120    6.9370 C   0  0  0  0  0  3  0  0  0  0  0  0
    4.1070   -2.6860    6.2730 C   0  0  0  0  0  0  0  0  0  0  0  0
    3.3290   -2.4690    5.1340 C   0  0  0  0  0  3  0  0  0  0  0  0
    2.5310   -3.4990    4.6290 C   0  0  0  0  0  3  0  0  0  0  0  0
    4.8970   -1.7020    6.8200 O   0  0  0  0  0  0  0  0  0  0  0  0
    6.2510   -1.7810    6.5760 C   0  0  0  0  0  0  0  0  0  0  0  0
    7.1510   -0.7870    6.9670 C   0  0  0  0  0  3  0  0  0  0  0  0
    8.5060   -0.9180    6.6560 C   0  0  0  0  0  3  0  0  0  0  0  0
    8.9550   -2.0300    5.9430 C   0  0  0  0  0  3  0  0  0  0  0  0
    8.0500   -3.0110    5.5350 C   0  0  0  0  0  3  0  0  0  0  0  0
    6.6960   -2.8830    5.8450 C   0  0  0  0  0  3  0  0  0  0  0  0
    6.5530   -9.0370    2.8850 C   0  0  0  0  0  0  0  0  0  0  0  0
    6.6130   -9.9760    3.7430 O   0  0  0  0  0  1  0  0  0  0  0  0
    7.3580   -8.8510    1.9210 O   0  0  0  0  0  0  0  0  0  0  0  0
  1  2  1  0  0  0  0
  2 16  1  0  0  0  0
  3  2  2  0  0  0  0
  4  5  2  0  0  0  0
  4  1  1  0  0  0  0
  6  5  1  0  0  0  0
  7  8  1  0  0  0  0
  7  6  2  0  0  0  0
  8  4  1  0  0  0  0
 10  9  1  6  0  0  0
 10 15  1  0  0  0  0
 11 10  1  0  0  0  0
 12 11  1  0  0  0  0
 12 13  1  0  0  0  0
 13  1  1  6  0  0  0
 13 14  1  0  0  0  0
 14 15  1  0  0  0  0
 16 17  1  0  0  0  0
 17 18  2  0  0  0  0
 19 22  1  0  0  0  0
 19 18  1  0  0  0  0
 20 19  2  0  0  0  0
 21 20  1  0  0  0  0
 21 16  2  0  0  0  0
 23 22  1  0  0  0  0
 23 24  1  0  0  0  0
 25 24  2  0  0  0  0
 26 25  1  0  0  0  0
 27 28  1  0  0  0  0
 27 26  2  0  0  0  0
 28 23  2  0  0  0  0
 29  6  1  0  0  0  0
 29 30  1  0  0  0  0
 31 29  2  0  0  0  0
M  END
>  <minimizedAffinity>
-3.71860886

$$$$
