REMARK  Name = 
REMARK  11 active torsions:
REMARK  status: ('A' for Active; 'I' for Inactive)
REMARK    1  A    between atoms: C_1  and  C_2
REMARK    2  A    between atoms: C_2  and  N_3
REMARK    3  A    between atoms: N_3  and  C_7
REMARK    4  A    between atoms: C_4  and  C_5
REMARK    5  A    between atoms: C_10  and  C_11
REMARK    6  A    between atoms: C_18  and  C_19
REMARK    7  A    between atoms: C_19  and  O_20
REMARK    8  A    between atoms: O_20  and  C_21
REMARK    9  A    between atoms: C_24  and  C_25
REMARK   10  A    between atoms: C_29  and  C_30
REMARK   11  A    between atoms: N_36  and  C_37
REMARK                            x       y       z     vdW  Elec       q    Type
REMARK                         _______ _______ _______ _____ _____    ______ ____
ROOT
ATOM      1  C   UNL     1       5.164  -0.900   3.849  0.00  0.00    +0.124 A 
ATOM      2  C   UNL     1       5.357  -1.904   4.798  0.00  0.00    +0.046 A 
ATOM      3  C   UNL     1       4.467  -2.047   5.863  0.00  0.00    +0.018 A 
ATOM      4  C   UNL     1       3.402  -1.153   6.014  0.00  0.00    +0.053 A 
ATOM      5  C   UNL     1       3.249  -0.123   5.082  0.00  0.00    +0.137 A 
ATOM      6  F   UNL     1       2.265   0.778   5.219  0.00  0.00    -0.205 F 
ATOM      7  C   UNL     1       4.123   0.012   4.003  0.00  0.00    +0.084 A 
ENDROOT
BRANCH   4   8
ATOM      8  C   UNL     1       2.470  -1.329   7.120  0.00  0.00    +0.145 A 
ATOM      9  N   UNL     1       1.597  -2.313   7.187  0.00  0.00    -0.227 NA
ATOM     10  C   UNL     1       0.944  -2.164   8.384  0.00  0.00    +0.090 A 
ATOM     11  C   UNL     1      -0.083  -2.944   8.939  0.00  0.00    +0.039 A 
ATOM     12  C   UNL     1      -0.601  -2.621  10.209  0.00  0.00    -0.001 A 
ATOM     13  C   UNL     1      -0.072  -1.514  10.892  0.00  0.00    +0.012 A 
ATOM     14  C   UNL     1       0.952  -0.723  10.354  0.00  0.00    +0.028 A 
ATOM     15  C   UNL     1       1.443  -1.072   9.089  0.00  0.00    +0.069 A 
ATOM     16  N   UNL     1       2.426  -0.554   8.269  0.00  0.00    -0.320 N 
BRANCH  16  17
ATOM     17  C   UNL     1       3.325   0.555   8.577  0.00  0.00    +0.089 C 
ATOM     18  C   UNL     1       2.594   1.897   8.739  0.00  0.00    +0.025 C 
ATOM     19  C   UNL     1       3.577   3.034   9.016  0.00  0.00    +0.002 C 
ATOM     20  C   UNL     1       4.480   2.724  10.207  0.00  0.00    +0.000 C 
ATOM     21  C   UNL     1       5.219   1.401  10.027  0.00  0.00    +0.002 C 
ATOM     22  C   UNL     1       4.251   0.249   9.765  0.00  0.00    +0.025 C 
ENDBRANCH  16  17
BRANCH  12  23
ATOM     23  C   UNL     1      -1.703  -3.456  10.830  0.00  0.00    +0.072 C 
ATOM     24  O   UNL     1      -2.130  -4.449  10.161  0.00  0.00    -0.545 OA
ATOM     25  O   UNL     1      -2.117  -3.102  11.979  0.00  0.00    -0.545 OA
ENDBRANCH  12  23
ENDBRANCH   4   8
BRANCH   1  26
ATOM     26  O   UNL     1       6.074  -0.856   2.829  0.00  0.00    -0.487 OA
BRANCH  26  27
ATOM     27  C   UNL     1       5.520  -0.713   1.514  0.00  0.00    +0.265 C 
BRANCH  27  32
ATOM     28  C   UNL     1       2.479  -2.772   0.441  0.00  0.00    +0.037 A 
ATOM     29  C   UNL     1       3.041  -4.043   0.314  0.00  0.00    +0.024 A 
ATOM     30  C   UNL     1       4.402  -4.254   0.557  0.00  0.00    +0.011 A 
ATOM     31  C   UNL     1       5.253  -3.201   0.933  0.00  0.00    -0.011 A 
ATOM     32  C   UNL     1       4.700  -1.909   1.064  0.00  0.00    -0.001 A 
ATOM     33  C   UNL     1       3.325  -1.714   0.800  0.00  0.00    +0.031 A 
BRANCH  31  34
ATOM     34  C   UNL     1       6.674  -3.496   1.170  0.00  0.00    -0.017 A 
ATOM     35  C   UNL     1       7.661  -3.085   0.260  0.00  0.00    +0.010 A 
ATOM     36  C   UNL     1       9.010  -3.370   0.490  0.00  0.00    +0.020 A 
ATOM     37  C   UNL     1       9.383  -4.078   1.630  0.00  0.00    +0.041 A 
ATOM     38 CL   UNL     1      11.044  -4.427   1.914  0.00  0.00    -0.084 Cl
ATOM     39  C   UNL     1       8.420  -4.509   2.538  0.00  0.00    +0.020 A 
ATOM     40  C   UNL     1       7.072  -4.224   2.304  0.00  0.00    +0.010 A 
ENDBRANCH  31  34
BRANCH  28  41
ATOM     41  N   UNL     1       1.100  -2.543   0.147  0.00  0.00    -0.272 N 
ATOM     42  C   UNL     1       0.064  -3.443   0.413  0.00  0.00    +0.217 C 
ATOM     43  C   UNL     1       0.265  -4.468   1.507  0.00  0.00    +0.109 C 
ATOM     44  O   UNL     1      -1.026  -3.382  -0.163  0.00  0.00    -0.276 OA
BRANCH  41  46
ATOM     45  C   UNL     1       0.054  -0.294   0.299  0.00  0.00    +0.025 C 
ATOM     46  C   UNL     1       0.740  -1.325  -0.587  0.00  0.00    +0.110 C 
ENDBRANCH  41  46
ENDBRANCH  28  41
ENDBRANCH  27  32
ENDBRANCH  26  27
ENDBRANCH   1  26
TORSDOF 9
