
 OpenBabel09122221053D

 46 51  0  0  0  0  0  0  0  0999 V2000
    5.8330   -1.8050    9.6230 C   0  0  0  0  0  0  0  0  0  0  0  0
    5.6010   -0.9240    8.5670 C   0  0  0  0  0  3  0  0  0  0  0  0
    6.2250   -1.1220    7.3340 C   0  0  0  0  0  3  0  0  0  0  0  0
    7.1250   -2.1790    7.1640 C   0  0  0  0  0  0  0  0  0  0  0  0
    7.3840   -3.0250    8.2460 C   0  0  0  0  0  0  0  0  0  0  0  0
    8.2740   -4.0230    8.1320 F   0  0  0  0  0  0  0  0  0  0  0  0
    6.7470   -2.8450    9.4740 C   0  0  0  0  0  3  0  0  0  0  0  0
    7.7520   -2.3840    5.8650 C   0  0  0  0  0  0  0  0  0  0  0  0
    7.2490   -3.1620    4.9290 N   0  0  0  0  0  0  0  0  0  0  0  0
    8.0910   -3.0580    3.8510 C   0  0  0  0  0  0  0  0  0  0  0  0
    8.0140   -3.6870    2.5990 C   0  0  0  0  0  3  0  0  0  0  0  0
    8.9870   -3.4160    1.6160 C   0  0  0  0  0  0  0  0  0  0  0  0
   10.0200   -2.5150    1.9200 C   0  0  0  0  0  3  0  0  0  0  0  0
   10.1150   -1.8780    3.1650 C   0  0  0  0  0  3  0  0  0  0  0  0
    9.1310   -2.1720    4.1190 C   0  0  0  0  0  0  0  0  0  0  0  0
    8.8940   -1.7430    5.4090 N   0  0  0  0  0  0  0  0  0  0  0  0
    9.6480   -0.7320    6.1460 C   0  0  0  0  0  3  0  0  0  0  0  0
   10.6430   -1.3340    7.1510 C   0  0  0  0  0  2  0  0  0  0  0  0
   11.3760   -0.2420    7.9280 C   0  0  0  0  0  2  0  0  0  0  0  0
   12.0400    0.7680    6.9960 C   0  0  0  0  0  2  0  0  0  0  0  0
   11.0400    1.3780    6.0180 C   0  0  0  0  0  2  0  0  0  0  0  0
   10.3090    0.3010    5.2190 C   0  0  0  0  0  2  0  0  0  0  0  0
    8.9160   -4.0770    0.2540 C   0  0  0  0  0  0  0  0  0  0  0  0
    8.0890   -5.0320    0.1110 O   0  0  0  0  0  1  0  0  0  0  0  0
    9.6890   -3.6240   -0.6480 O   0  0  0  0  0  0  0  0  0  0  0  0
    5.1570   -1.5420   10.7830 O   0  0  0  0  0  0  0  0  0  0  0  0
    3.8710   -0.9290   10.6210 C   0  0  0  0  0  2  0  0  0  0  0  0
    1.2350   -2.6750   12.7750 C   0  0  0  0  0  0  0  0  0  0  0  0
    0.6400   -3.5260   11.8420 C   0  0  0  0  0  3  0  0  0  0  0  0
    1.0660   -3.5410   10.5100 C   0  0  0  0  0  3  0  0  0  0  0  0
    2.1010   -2.7040   10.0600 C   0  0  0  0  0  0  0  0  0  0  0  0
    2.7110   -1.8370   10.9910 C   0  0  0  0  0  0  0  0  0  0  0  0
    2.2560   -1.8260   12.3300 C   0  0  0  0  0  3  0  0  0  0  0  0
    2.4950   -2.7720    8.6450 C   0  0  0  0  0  0  0  0  0  0  0  0
    3.2870   -3.8270    8.1640 C   0  0  0  0  0  3  0  0  0  0  0  0
    3.6600   -3.8850    6.8180 C   0  0  0  0  0  3  0  0  0  0  0  0
    3.2510   -2.8830    5.9420 C   0  0  0  0  0  0  0  0  0  0  0  0
    3.7080   -2.9560    4.2850 Cl  0  0  0  0  0  0  0  0  0  0  0  0
    2.4780   -1.8190    6.4010 C   0  0  0  0  0  3  0  0  0  0  0  0
    2.1090   -1.7630    7.7480 C   0  0  0  0  0  3  0  0  0  0  0  0
    0.7700   -2.6210   14.1250 N   0  0  0  0  0  0  0  0  0  0  0  0
    0.7400   -3.7060   15.0060 C   0  0  0  0  0  0  0  0  0  0  0  0
    1.6900   -4.8580   14.7610 C   0  0  0  0  0  1  0  0  0  0  0  0
    0.0200   -3.7210   16.0080 O   0  0  0  0  0  0  0  0  0  0  0  0
    1.1370   -0.5650   15.4710 C   0  0  0  0  0  1  0  0  0  0  0  0
    0.1760   -1.3680   14.6050 C   0  0  0  0  0  2  0  0  0  0  0  0
  1 26  1  0  0  0  0
  2  1  2  0  0  0  0
  3  2  1  0  0  0  0
  4  3  2  0  0  0  0
  4  5  1  0  0  0  0
  5  7  2  0  0  0  0
  6  5  1  0  0  0  0
  7  1  1  0  0  0  0
  8  4  1  0  0  0  0
  9  8  2  0  0  0  0
 10 15  1  0  0  0  0
 10  9  1  0  0  0  0
 11 10  2  0  0  0  0
 12 13  2  0  0  0  0
 12 11  1  0  0  0  0
 13 14  1  0  0  0  0
 14 15  2  0  0  0  0
 15 16  1  0  0  0  0
 16  8  1  0  0  0  0
 16 17  1  0  0  0  0
 17 18  1  0  0  0  0
 18 19  1  0  0  0  0
 20 19  1  0  0  0  0
 21 20  1  0  0  0  0
 22 21  1  0  0  0  0
 22 17  1  0  0  0  0
 23 12  1  0  0  0  0
 24 23  1  0  0  0  0
 25 23  2  0  0  0  0
 27 26  1  0  0  0  0
 27 32  1  0  0  0  0
 28 41  1  0  0  0  0
 29 28  2  0  0  0  0
 30 29  1  0  0  0  0
 31 30  2  0  0  0  0
 31 32  1  0  0  0  0
 32 33  2  0  0  0  0
 33 28  1  0  0  0  0
 34 31  1  0  0  0  0
 35 34  1  0  0  0  0
 36 35  2  0  0  0  0
 37 39  2  0  0  0  0
 37 36  1  0  0  0  0
 38 37  1  0  0  0  0
 39 40  1  0  0  0  0
 40 34  2  0  0  0  0
 41 46  1  0  0  0  0
 41 42  1  0  0  0  0
 42 44  2  0  0  0  0
 43 42  1  0  0  0  0
 46 45  1  0  0  0  0
M  END
>  <minimizedAffinity>
-8.6104517

$$$$

 OpenBabel09122221053D

 46 51  0  0  0  0  0  0  0  0999 V2000
    3.5860   -1.3020    7.3790 C   0  0  0  0  0  0  0  0  0  0  0  0
    4.7630   -2.0430    7.2740 C   0  0  0  0  0  3  0  0  0  0  0  0
    4.9040   -3.0000    6.2680 C   0  0  0  0  0  3  0  0  0  0  0  0
    3.8480   -3.2570    5.3880 C   0  0  0  0  0  0  0  0  0  0  0  0
    2.6570   -2.5390    5.5360 C   0  0  0  0  0  0  0  0  0  0  0  0
    1.6090   -2.7890    4.7390 F   0  0  0  0  0  0  0  0  0  0  0  0
    2.5180   -1.5660    6.5260 C   0  0  0  0  0  3  0  0  0  0  0  0
    4.0190   -4.2440    4.3300 C   0  0  0  0  0  0  0  0  0  0  0  0
    4.6250   -3.9900    3.1890 N   0  0  0  0  0  0  0  0  0  0  0  0
    4.6270   -5.1690    2.4870 C   0  0  0  0  0  0  0  0  0  0  0  0
    5.1440   -5.4410    1.2100 C   0  0  0  0  0  3  0  0  0  0  0  0
    5.0570   -6.7450    0.6820 C   0  0  0  0  0  0  0  0  0  0  0  0
    4.4480   -7.7470    1.4550 C   0  0  0  0  0  3  0  0  0  0  0  0
    3.9260   -7.4940    2.7300 C   0  0  0  0  0  3  0  0  0  0  0  0
    4.0280   -6.1860    3.2240 C   0  0  0  0  0  0  0  0  0  0  0  0
    3.6520   -5.5790    4.4060 N   0  0  0  0  0  0  0  0  0  0  0  0
    3.0550   -6.2280    5.5700 C   0  0  0  0  0  3  0  0  0  0  0  0
    1.5180   -6.2140    5.5450 C   0  0  0  0  0  2  0  0  0  0  0  0
    0.9380   -6.8630    6.8010 C   0  0  0  0  0  2  0  0  0  0  0  0
    1.4960   -8.2670    7.0230 C   0  0  0  0  0  2  0  0  0  0  0  0
    3.0220   -8.2670    7.0680 C   0  0  0  0  0  2  0  0  0  0  0  0
    3.6210   -7.6360    5.8130 C   0  0  0  0  0  2  0  0  0  0  0  0
    5.6170   -7.0620   -0.6900 C   0  0  0  0  0  0  0  0  0  0  0  0
    5.3740   -8.2150   -1.1670 O   0  0  0  0  0  1  0  0  0  0  0  0
    6.2880   -6.1480   -1.2650 O   0  0  0  0  0  0  0  0  0  0  0  0
    3.5520   -0.3710    8.3810 O   0  0  0  0  0  0  0  0  0  0  0  0
    2.5130   -0.5490    9.3540 C   0  0  0  0  0  2  0  0  0  0  0  0
    2.3160   -3.6940   11.5240 C   0  0  0  0  0  0  0  0  0  0  0  0
    3.3290   -3.4490   12.4520 C   0  0  0  0  0  3  0  0  0  0  0  0
    4.0960   -2.2810   12.3870 C   0  0  0  0  0  3  0  0  0  0  0  0
    3.8810   -1.3160   11.3880 C   0  0  0  0  0  0  0  0  0  0  0  0
    2.8610   -1.5500   10.4410 C   0  0  0  0  0  0  0  0  0  0  0  0
    2.1070   -2.7430   10.5160 C   0  0  0  0  0  3  0  0  0  0  0  0
    4.7270   -0.1140   11.3790 C   0  0  0  0  0  0  0  0  0  0  0  0
    6.0310   -0.1490   10.8600 C   0  0  0  0  0  3  0  0  0  0  0  0
    6.8310    0.9970   10.8560 C   0  0  0  0  0  3  0  0  0  0  0  0
    6.3360    2.1880   11.3810 C   0  0  0  0  0  0  0  0  0  0  0  0
    7.3210    3.6000   11.3740 Cl  0  0  0  0  0  0  0  0  0  0  0  0
    5.0520    2.2430   11.9150 C   0  0  0  0  0  3  0  0  0  0  0  0
    4.2560    1.0950   11.9190 C   0  0  0  0  0  3  0  0  0  0  0  0
    1.5630   -4.9070   11.5580 N   0  0  0  0  0  0  0  0  0  0  0  0
    1.7500   -5.9910   10.6950 C   0  0  0  0  0  0  0  0  0  0  0  0
    3.1010   -6.1610   10.0380 C   0  0  0  0  0  1  0  0  0  0  0  0
    0.8770   -6.8440   10.5110 O   0  0  0  0  0  0  0  0  0  0  0  0
    0.8110   -5.6790   13.7970 C   0  0  0  0  0  1  0  0  0  0  0  0
    0.4330   -4.9960   12.4900 C   0  0  0  0  0  2  0  0  0  0  0  0
  1 26  1  0  0  0  0
  2  1  1  0  0  0  0
  3  2  2  0  0  0  0
  4  5  2  0  0  0  0
  4  3  1  0  0  0  0
  5  7  1  0  0  0  0
  6  5  1  0  0  0  0
  7  1  2  0  0  0  0
  8 16  1  0  0  0  0
  8  4  1  0  0  0  0
  9  8  2  0  0  0  0
 10  9  1  0  0  0  0
 10 15  1  0  0  0  0
 11 10  2  0  0  0  0
 12 11  1  0  0  0  0
 12 13  2  0  0  0  0
 13 14  1  0  0  0  0
 14 15  2  0  0  0  0
 15 16  1  0  0  0  0
 16 17  1  0  0  0  0
 17 22  1  0  0  0  0
 18 17  1  0  0  0  0
 18 19  1  0  0  0  0
 19 20  1  0  0  0  0
 20 21  1  0  0  0  0
 22 21  1  0  0  0  0
 23 12  1  0  0  0  0
 24 23  1  0  0  0  0
 25 23  2  0  0  0  0
 26 27  1  0  0  0  0
 27 32  1  0  0  0  0
 28 41  1  0  0  0  0
 28 29  1  0  0  0  0
 30 29  2  0  0  0  0
 31 30  1  0  0  0  0
 32 33  1  0  0  0  0
 32 31  2  0  0  0  0
 33 28  2  0  0  0  0
 34 31  1  0  0  0  0
 34 40  1  0  0  0  0
 35 34  2  0  0  0  0
 36 35  1  0  0  0  0
 36 37  2  0  0  0  0
 37 39  1  0  0  0  0
 38 37  1  0  0  0  0
 39 40  2  0  0  0  0
 41 46  1  0  0  0  0
 42 41  1  0  0  0  0
 43 42  1  0  0  0  0
 44 42  2  0  0  0  0
 46 45  1  0  0  0  0
M  END
>  <minimizedAffinity>
-8.56646919

$$$$

 OpenBabel09122221053D

 46 51  0  0  0  0  0  0  0  0999 V2000
    3.2650   -1.1600    7.4090 C   0  0  0  0  0  0  0  0  0  0  0  0
    4.4900   -1.8170    7.2910 C   0  0  0  0  0  3  0  0  0  0  0  0
    4.6870   -2.7660    6.2870 C   0  0  0  0  0  3  0  0  0  0  0  0
    3.6400   -3.1010    5.4220 C   0  0  0  0  0  0  0  0  0  0  0  0
    2.4040   -2.4700    5.5820 C   0  0  0  0  0  0  0  0  0  0  0  0
    1.3660   -2.7970    4.7990 F   0  0  0  0  0  0  0  0  0  0  0  0
    2.2080   -1.5040    6.5700 C   0  0  0  0  0  3  0  0  0  0  0  0
    3.8690   -4.0790    4.3670 C   0  0  0  0  0  0  0  0  0  0  0  0
    4.5250   -3.8130    3.2560 N   0  0  0  0  0  0  0  0  0  0  0  0
    4.5690   -4.9860    2.5470 C   0  0  0  0  0  0  0  0  0  0  0  0
    5.1470   -5.2450    1.2930 C   0  0  0  0  0  3  0  0  0  0  0  0
    5.0950   -6.5450    0.7530 C   0  0  0  0  0  0  0  0  0  0  0  0
    4.4580   -7.5570    1.4890 C   0  0  0  0  0  3  0  0  0  0  0  0
    3.8750   -7.3180    2.7400 C   0  0  0  0  0  3  0  0  0  0  0  0
    3.9440   -6.0130    3.2480 C   0  0  0  0  0  0  0  0  0  0  0  0
    3.5090   -5.4180    4.4150 N   0  0  0  0  0  0  0  0  0  0  0  0
    2.8620   -6.0800    5.5450 C   0  0  0  0  0  3  0  0  0  0  0  0
    1.3690   -6.3540    5.3090 C   0  0  0  0  0  2  0  0  0  0  0  0
    0.7250   -7.0070    6.5320 C   0  0  0  0  0  2  0  0  0  0  0  0
    1.4780   -8.2610    6.9670 C   0  0  0  0  0  2  0  0  0  0  0  0
    2.9550   -7.9750    7.2200 C   0  0  0  0  0  2  0  0  0  0  0  0
    3.6200   -7.3370    6.0020 C   0  0  0  0  0  2  0  0  0  0  0  0
    5.7200   -6.8480   -0.5940 C   0  0  0  0  0  0  0  0  0  0  0  0
    6.5260   -5.9880   -1.0700 O   0  0  0  0  0  1  0  0  0  0  0  0
    5.3950   -7.9450   -1.1480 O   0  0  0  0  0  0  0  0  0  0  0  0
    3.1770   -0.2290    8.4070 O   0  0  0  0  0  0  0  0  0  0  0  0
    2.7440   -0.7280    9.6790 C   0  0  0  0  0  2  0  0  0  0  0  0
    5.9980   -0.5020   11.6800 C   0  0  0  0  0  0  0  0  0  0  0  0
    6.0980   -1.7990   12.1860 C   0  0  0  0  0  3  0  0  0  0  0  0
    5.1190   -2.7570   11.9040 C   0  0  0  0  0  3  0  0  0  0  0  0
    4.0010   -2.4530   11.1090 C   0  0  0  0  0  0  0  0  0  0  0  0
    3.8850   -1.1460   10.5910 C   0  0  0  0  0  0  0  0  0  0  0  0
    4.8770   -0.1880   10.8990 C   0  0  0  0  0  3  0  0  0  0  0  0
    3.0100   -3.5100   10.8560 C   0  0  0  0  0  0  0  0  0  0  0  0
    2.0540   -3.8540   11.8250 C   0  0  0  0  0  3  0  0  0  0  0  0
    1.1160   -4.8610   11.5790 C   0  0  0  0  0  3  0  0  0  0  0  0
    1.1320   -5.5400   10.3630 C   0  0  0  0  0  0  0  0  0  0  0  0
   -0.0240   -6.7780   10.0600 Cl  0  0  0  0  0  0  0  0  0  0  0  0
    2.0810   -5.2270    9.3940 C   0  0  0  0  0  3  0  0  0  0  0  0
    3.0190   -4.2210    9.6430 C   0  0  0  0  0  3  0  0  0  0  0  0
    6.9700    0.4930   12.0050 N   0  0  0  0  0  0  0  0  0  0  0  0
    8.2320    0.6020   11.4160 C   0  0  0  0  0  0  0  0  0  0  0  0
    8.4340    0.0180   10.0350 C   0  0  0  0  0  1  0  0  0  0  0  0
    9.1590    1.2170   11.9520 O   0  0  0  0  0  0  0  0  0  0  0  0
    6.1440    2.7510   12.6330 C   0  0  0  0  0  1  0  0  0  0  0  0
    6.6810    1.4100   13.1140 C   0  0  0  0  0  2  0  0  0  0  0  0
  1 26  1  0  0  0  0
  2  1  1  0  0  0  0
  3  2  2  0  0  0  0
  4  5  2  0  0  0  0
  4  3  1  0  0  0  0
  5  7  1  0  0  0  0
  6  5  1  0  0  0  0
  7  1  2  0  0  0  0
  8 16  1  0  0  0  0
  8  4  1  0  0  0  0
  9  8  2  0  0  0  0
 10 15  1  0  0  0  0
 10  9  1  0  0  0  0
 11 10  2  0  0  0  0
 12 11  1  0  0  0  0
 12 13  2  0  0  0  0
 13 14  1  0  0  0  0
 14 15  2  0  0  0  0
 15 16  1  0  0  0  0
 16 17  1  0  0  0  0
 17 22  1  0  0  0  0
 18 17  1  0  0  0  0
 18 19  1  0  0  0  0
 19 20  1  0  0  0  0
 20 21  1  0  0  0  0
 22 21  1  0  0  0  0
 23 12  1  0  0  0  0
 24 23  1  0  0  0  0
 25 23  2  0  0  0  0
 26 27  1  0  0  0  0
 27 32  1  0  0  0  0
 28 41  1  0  0  0  0
 28 29  1  0  0  0  0
 30 29  2  0  0  0  0
 31 30  1  0  0  0  0
 32 33  1  0  0  0  0
 32 31  2  0  0  0  0
 33 28  2  0  0  0  0
 34 31  1  0  0  0  0
 34 35  1  0  0  0  0
 36 35  2  0  0  0  0
 37 36  1  0  0  0  0
 38 37  1  0  0  0  0
 39 40  1  0  0  0  0
 39 37  2  0  0  0  0
 40 34  2  0  0  0  0
 41 46  1  0  0  0  0
 42 44  2  0  0  0  0
 42 41  1  0  0  0  0
 43 42  1  0  0  0  0
 45 46  1  0  0  0  0
M  END
>  <minimizedAffinity>
-8.48768806

$$$$

 OpenBabel09122221053D

 46 51  0  0  0  0  0  0  0  0999 V2000
    3.2560   -1.2630    7.5280 C   0  0  0  0  0  0  0  0  0  0  0  0
    2.2180   -1.6630    6.6850 C   0  0  0  0  0  3  0  0  0  0  0  0
    2.4520   -2.5960    5.6750 C   0  0  0  0  0  3  0  0  0  0  0  0
    3.7400   -3.1010    5.4680 C   0  0  0  0  0  0  0  0  0  0  0  0
    4.7790   -2.6550    6.2890 C   0  0  0  0  0  0  0  0  0  0  0  0
    6.0340   -3.0840    6.0920 F   0  0  0  0  0  0  0  0  0  0  0  0
    4.5470   -1.7380    7.3150 C   0  0  0  0  0  3  0  0  0  0  0  0
    3.9620   -4.0900    4.4220 C   0  0  0  0  0  0  0  0  0  0  0  0
    4.5110   -3.8090    3.2580 N   0  0  0  0  0  0  0  0  0  0  0  0
    4.5910   -4.9960    2.5760 C   0  0  0  0  0  0  0  0  0  0  0  0
    5.0910   -5.2490    1.2890 C   0  0  0  0  0  3  0  0  0  0  0  0
    5.0980   -6.5660    0.7850 C   0  0  0  0  0  0  0  0  0  0  0  0
    4.5970   -7.6000    1.5920 C   0  0  0  0  0  3  0  0  0  0  0  0
    4.0930   -7.3660    2.8790 C   0  0  0  0  0  3  0  0  0  0  0  0
    4.1000   -6.0460    3.3480 C   0  0  0  0  0  0  0  0  0  0  0  0
    3.7100   -5.4500    4.5300 N   0  0  0  0  0  0  0  0  0  0  0  0
    3.2030   -6.1240    5.7220 C   0  0  0  0  0  3  0  0  0  0  0  0
    3.8930   -5.6630    7.0160 C   0  0  0  0  0  2  0  0  0  0  0  0
    3.3620   -6.4260    8.2290 C   0  0  0  0  0  2  0  0  0  0  0  0
    1.8410   -6.3440    8.3290 C   0  0  0  0  0  2  0  0  0  0  0  0
    1.1640   -6.8240    7.0490 C   0  0  0  0  0  2  0  0  0  0  0  0
    1.6700   -6.0620    5.8260 C   0  0  0  0  0  2  0  0  0  0  0  0
    5.6420   -6.8610   -0.5980 C   0  0  0  0  0  0  0  0  0  0  0  0
    5.3330   -7.9790   -1.1200 O   0  0  0  0  0  1  0  0  0  0  0  0
    6.3660   -5.9660   -1.1370 O   0  0  0  0  0  0  0  0  0  0  0  0
    2.9230   -0.3640    8.5030 O   0  0  0  0  0  0  0  0  0  0  0  0
    2.8060   -0.9040    9.8260 C   0  0  0  0  0  2  0  0  0  0  0  0
    6.1870    0.4180   11.0330 C   0  0  0  0  0  0  0  0  0  0  0  0
    6.5140   -0.5210   12.0110 C   0  0  0  0  0  3  0  0  0  0  0  0
    5.6510   -1.5810   12.3060 C   0  0  0  0  0  3  0  0  0  0  0  0
    4.4270   -1.7400   11.6360 C   0  0  0  0  0  0  0  0  0  0  0  0
    4.0810   -0.7970   10.6440 C   0  0  0  0  0  0  0  0  0  0  0  0
    4.9600    0.2760   10.3710 C   0  0  0  0  0  3  0  0  0  0  0  0
    3.5680   -2.8770   12.0000 C   0  0  0  0  0  0  0  0  0  0  0  0
    2.6050   -2.7620   13.0150 C   0  0  0  0  0  3  0  0  0  0  0  0
    1.7930   -3.8470   13.3570 C   0  0  0  0  0  3  0  0  0  0  0  0
    1.9440   -5.0620   12.6920 C   0  0  0  0  0  0  0  0  0  0  0  0
    0.9430   -6.3970   13.1120 Cl  0  0  0  0  0  0  0  0  0  0  0  0
    2.9030   -5.2030   11.6930 C   0  0  0  0  0  3  0  0  0  0  0  0
    3.7150   -4.1160   11.3540 C   0  0  0  0  0  3  0  0  0  0  0  0
    7.0430    1.5300   10.7620 N   0  0  0  0  0  0  0  0  0  0  0  0
    6.8130    2.8410   11.1890 C   0  0  0  0  0  0  0  0  0  0  0  0
    5.9410    3.0590   12.4050 C   0  0  0  0  0  1  0  0  0  0  0  0
    7.3510    3.8130   10.6510 O   0  0  0  0  0  0  0  0  0  0  0  0
    7.7920    1.1460    8.4240 C   0  0  0  0  0  1  0  0  0  0  0  0
    8.1970    1.3180    9.8810 C   0  0  0  0  0  2  0  0  0  0  0  0
  1 26  1  0  0  0  0
  2  1  2  0  0  0  0
  3  2  1  0  0  0  0
  4  3  2  0  0  0  0
  4  5  1  0  0  0  0
  5  7  2  0  0  0  0
  6  5  1  0  0  0  0
  7  1  1  0  0  0  0
  8 16  1  0  0  0  0
  8  4  1  0  0  0  0
  9  8  2  0  0  0  0
 10  9  1  0  0  0  0
 10 15  1  0  0  0  0
 11 10  2  0  0  0  0
 12 11  1  0  0  0  0
 12 13  2  0  0  0  0
 13 14  1  0  0  0  0
 14 15  2  0  0  0  0
 15 16  1  0  0  0  0
 16 17  1  0  0  0  0
 17 22  1  0  0  0  0
 17 18  1  0  0  0  0
 18 19  1  0  0  0  0
 19 20  1  0  0  0  0
 21 20  1  0  0  0  0
 22 21  1  0  0  0  0
 23 12  1  0  0  0  0
 24 23  1  0  0  0  0
 25 23  2  0  0  0  0
 26 27  1  0  0  0  0
 27 32  1  0  0  0  0
 28 29  1  0  0  0  0
 29 30  2  0  0  0  0
 31 34  1  0  0  0  0
 31 30  1  0  0  0  0
 32 31  2  0  0  0  0
 33 32  1  0  0  0  0
 33 28  2  0  0  0  0
 34 35  1  0  0  0  0
 35 36  2  0  0  0  0
 37 38  1  0  0  0  0
 37 36  1  0  0  0  0
 39 37  2  0  0  0  0
 40 39  1  0  0  0  0
 40 34  2  0  0  0  0
 41 28  1  0  0  0  0
 41 42  1  0  0  0  0
 42 43  1  0  0  0  0
 44 42  2  0  0  0  0
 45 46  1  0  0  0  0
 46 41  1  0  0  0  0
M  END
>  <minimizedAffinity>
-8.35825634

$$$$

 OpenBabel09122221053D

 46 51  0  0  0  0  0  0  0  0999 V2000
    9.3300   -2.4940    4.7270 C   0  0  0  0  0  0  0  0  0  0  0  0
   10.2930   -1.4870    4.7840 C   0  0  0  0  0  3  0  0  0  0  0  0
   10.2310   -0.5090    5.7770 C   0  0  0  0  0  3  0  0  0  0  0  0
    9.1730   -0.5020    6.6920 C   0  0  0  0  0  0  0  0  0  0  0  0
    8.1890   -1.4890    6.5920 C   0  0  0  0  0  0  0  0  0  0  0  0
    7.1380   -1.4890    7.4260 F   0  0  0  0  0  0  0  0  0  0  0  0
    8.2580   -2.4830    5.6160 C   0  0  0  0  0  3  0  0  0  0  0  0
    9.1340    0.5150    7.7340 C   0  0  0  0  0  0  0  0  0  0  0  0
    8.6210    1.7160    7.5620 N   0  0  0  0  0  0  0  0  0  0  0  0
    8.7280    2.3550    8.7710 C   0  0  0  0  0  0  0  0  0  0  0  0
    8.3370    3.6560    9.1260 C   0  0  0  0  0  3  0  0  0  0  0  0
    8.5210    4.1070   10.4480 C   0  0  0  0  0  0  0  0  0  0  0  0
    9.0990    3.2360   11.3840 C   0  0  0  0  0  3  0  0  0  0  0  0
    9.4970    1.9340   11.0490 C   0  0  0  0  0  3  0  0  0  0  0  0
    9.3000    1.5180    9.7250 C   0  0  0  0  0  0  0  0  0  0  0  0
    9.5460    0.3410    9.0470 N   0  0  0  0  0  0  0  0  0  0  0  0
   10.0650   -0.9010    9.6140 C   0  0  0  0  0  3  0  0  0  0  0  0
   11.4820   -0.7560   10.1900 C   0  0  0  0  0  2  0  0  0  0  0  0
   12.0000   -2.0880   10.7310 C   0  0  0  0  0  2  0  0  0  0  0  0
   11.0320   -2.7060   11.7360 C   0  0  0  0  0  2  0  0  0  0  0  0
    9.6330   -2.8670   11.1480 C   0  0  0  0  0  2  0  0  0  0  0  0
    9.0910   -1.5420   10.6160 C   0  0  0  0  0  2  0  0  0  0  0  0
    8.0970    5.5050   10.8540 C   0  0  0  0  0  0  0  0  0  0  0  0
    7.7520    5.6810   12.0650 O   0  0  0  0  0  1  0  0  0  0  0  0
    8.1210    6.4000    9.9510 O   0  0  0  0  0  0  0  0  0  0  0  0
    9.4900   -3.4220    3.7350 O   0  0  0  0  0  0  0  0  0  0  0  0
    9.5600   -2.8950    2.4030 C   0  0  0  0  0  2  0  0  0  0  0  0
    7.1170   -5.4490    0.9380 C   0  0  0  0  0  0  0  0  0  0  0  0
    7.4940   -5.4480   -0.4060 C   0  0  0  0  0  3  0  0  0  0  0  0
    8.5250   -4.6200   -0.8620 C   0  0  0  0  0  3  0  0  0  0  0  0
    9.2160   -3.7600    0.0090 C   0  0  0  0  0  0  0  0  0  0  0  0
    8.8450   -3.7480    1.3710 C   0  0  0  0  0  0  0  0  0  0  0  0
    7.7910   -4.5820    1.8090 C   0  0  0  0  0  3  0  0  0  0  0  0
   10.2880   -2.9160   -0.5410 C   0  0  0  0  0  0  0  0  0  0  0  0
   10.0590   -1.5660   -0.8510 C   0  0  0  0  0  3  0  0  0  0  0  0
   11.0820   -0.7700   -1.3750 C   0  0  0  0  0  3  0  0  0  0  0  0
   12.3410   -1.3200   -1.6010 C   0  0  0  0  0  0  0  0  0  0  0  0
   13.6000   -0.3390   -2.2440 Cl  0  0  0  0  0  0  0  0  0  0  0  0
   12.5860   -2.6600   -1.3150 C   0  0  0  0  0  3  0  0  0  0  0  0
   11.5610   -3.4540   -0.7940 C   0  0  0  0  0  3  0  0  0  0  0  0
    6.0330   -6.2570    1.3980 N   0  0  0  0  0  0  0  0  0  0  0  0
    6.1130   -7.6250    1.6730 C   0  0  0  0  0  0  0  0  0  0  0  0
    7.4650   -8.2110    2.0170 C   0  0  0  0  0  1  0  0  0  0  0  0
    5.1150   -8.3490    1.7130 O   0  0  0  0  0  0  0  0  0  0  0  0
    4.4120   -5.0960    2.8810 C   0  0  0  0  0  1  0  0  0  0  0  0
    4.7030   -5.6450    1.4910 C   0  0  0  0  0  2  0  0  0  0  0  0
  1  2  2  0  0  0  0
  1  7  1  0  0  0  0
  2  3  1  0  0  0  0
  3  4  2  0  0  0  0
  4  8  1  0  0  0  0
  5  4  1  0  0  0  0
  5  6  1  0  0  0  0
  7  5  2  0  0  0  0
  8 16  1  0  0  0  0
  9  8  2  0  0  0  0
  9 10  1  0  0  0  0
 10 11  2  0  0  0  0
 10 15  1  0  0  0  0
 11 12  1  0  0  0  0
 12 23  1  0  0  0  0
 12 13  2  0  0  0  0
 14 13  1  0  0  0  0
 15 14  2  0  0  0  0
 16 17  1  0  0  0  0
 16 15  1  0  0  0  0
 17 18  1  0  0  0  0
 17 22  1  0  0  0  0
 18 19  1  0  0  0  0
 19 20  1  0  0  0  0
 21 20  1  0  0  0  0
 22 21  1  0  0  0  0
 23 24  1  0  0  0  0
 25 23  2  0  0  0  0
 26  1  1  0  0  0  0
 27 26  1  0  0  0  0
 28 41  1  0  0  0  0
 28 33  1  0  0  0  0
 29 28  2  0  0  0  0
 30 29  1  0  0  0  0
 30 31  2  0  0  0  0
 31 32  1  0  0  0  0
 32 33  2  0  0  0  0
 32 27  1  0  0  0  0
 34 31  1  0  0  0  0
 35 34  2  0  0  0  0
 36 35  1  0  0  0  0
 37 36  2  0  0  0  0
 37 39  1  0  0  0  0
 38 37  1  0  0  0  0
 39 40  2  0  0  0  0
 40 34  1  0  0  0  0
 41 46  1  0  0  0  0
 41 42  1  0  0  0  0
 42 44  2  0  0  0  0
 42 43  1  0  0  0  0
 46 45  1  0  0  0  0
M  END
>  <minimizedAffinity>
-8.35071087

$$$$

 OpenBabel09122221053D

 46 51  0  0  0  0  0  0  0  0999 V2000
    3.3110   -1.2170    7.6520 C   0  0  0  0  0  0  0  0  0  0  0  0
    2.2530   -1.6690    6.8640 C   0  0  0  0  0  3  0  0  0  0  0  0
    2.4790   -2.5940    5.8440 C   0  0  0  0  0  3  0  0  0  0  0  0
    3.7770   -3.0390    5.5740 C   0  0  0  0  0  0  0  0  0  0  0  0
    4.8340   -2.5410    6.3410 C   0  0  0  0  0  0  0  0  0  0  0  0
    6.0960   -2.9120    6.0820 F   0  0  0  0  0  0  0  0  0  0  0  0
    4.6110   -1.6320    7.3760 C   0  0  0  0  0  3  0  0  0  0  0  0
    3.9930   -4.0200    4.5190 C   0  0  0  0  0  0  0  0  0  0  0  0
    4.5210   -3.7280    3.3490 N   0  0  0  0  0  0  0  0  0  0  0  0
    4.6020   -4.9110    2.6590 C   0  0  0  0  0  0  0  0  0  0  0  0
    5.0850   -5.1520    1.3630 C   0  0  0  0  0  3  0  0  0  0  0  0
    5.0970   -6.4660    0.8520 C   0  0  0  0  0  0  0  0  0  0  0  0
    4.6190   -7.5090    1.6620 C   0  0  0  0  0  3  0  0  0  0  0  0
    4.1330   -7.2870    2.9570 C   0  0  0  0  0  3  0  0  0  0  0  0
    4.1340   -5.9690    3.4330 C   0  0  0  0  0  0  0  0  0  0  0  0
    3.7570   -5.3830    4.6250 N   0  0  0  0  0  0  0  0  0  0  0  0
    3.2750   -6.0680    5.8210 C   0  0  0  0  0  3  0  0  0  0  0  0
    3.9900   -5.6170    7.1040 C   0  0  0  0  0  2  0  0  0  0  0  0
    3.4850   -6.3910    8.3210 C   0  0  0  0  0  2  0  0  0  0  0  0
    1.9660   -6.3130    8.4520 C   0  0  0  0  0  2  0  0  0  0  0  0
    1.2650   -6.7850    7.1820 C   0  0  0  0  0  2  0  0  0  0  0  0
    1.7450   -6.0110    5.9550 C   0  0  0  0  0  2  0  0  0  0  0  0
    5.6230   -6.7490   -0.5410 C   0  0  0  0  0  0  0  0  0  0  0  0
    5.3100   -7.8630   -1.0670 O   0  0  0  0  0  1  0  0  0  0  0  0
    6.3360   -5.8470   -1.0830 O   0  0  0  0  0  0  0  0  0  0  0  0
    2.9850   -0.3310    8.6420 O   0  0  0  0  0  0  0  0  0  0  0  0
    4.0230   -0.0640    9.5960 C   0  0  0  0  0  2  0  0  0  0  0  0
    2.7100   -2.1420   12.5280 C   0  0  0  0  0  0  0  0  0  0  0  0
    3.8930   -2.6940   13.0220 C   0  0  0  0  0  3  0  0  0  0  0  0
    5.1220   -2.4200   12.4140 C   0  0  0  0  0  3  0  0  0  0  0  0
    5.2150   -1.5840   11.2880 C   0  0  0  0  0  0  0  0  0  0  0  0
    4.0280   -1.0190   10.7760 C   0  0  0  0  0  0  0  0  0  0  0  0
    2.7930   -1.3210   11.3950 C   0  0  0  0  0  3  0  0  0  0  0  0
    6.5410   -1.3410   10.7000 C   0  0  0  0  0  0  0  0  0  0  0  0
    7.2650   -0.1770   11.0010 C   0  0  0  0  0  3  0  0  0  0  0  0
    8.5240    0.0490   10.4380 C   0  0  0  0  0  3  0  0  0  0  0  0
    9.0670   -0.8860    9.5600 C   0  0  0  0  0  0  0  0  0  0  0  0
   10.6180   -0.6080    8.8680 Cl  0  0  0  0  0  0  0  0  0  0  0  0
    8.3600   -2.0400    9.2350 C   0  0  0  0  0  3  0  0  0  0  0  0
    7.1010   -2.2620    9.7980 C   0  0  0  0  0  3  0  0  0  0  0  0
    1.4470   -2.4580   13.1150 N   0  0  0  0  0  0  0  0  0  0  0  0
    0.7860   -1.6730   14.0640 C   0  0  0  0  0  0  0  0  0  0  0  0
    1.1010   -0.1950   14.1200 C   0  0  0  0  0  1  0  0  0  0  0  0
   -0.0920   -2.1300   14.8020 O   0  0  0  0  0  0  0  0  0  0  0  0
    0.6140   -3.9330   11.2970 C   0  0  0  0  0  1  0  0  0  0  0  0
    0.8360   -3.7520   12.7920 C   0  0  0  0  0  2  0  0  0  0  0  0
  1 26  1  0  0  0  0
  2  1  2  0  0  0  0
  3  2  1  0  0  0  0
  4  3  2  0  0  0  0
  4  5  1  0  0  0  0
  5  7  2  0  0  0  0
  6  5  1  0  0  0  0
  7  1  1  0  0  0  0
  8 16  1  0  0  0  0
  8  4  1  0  0  0  0
  9  8  2  0  0  0  0
 10  9  1  0  0  0  0
 10 15  1  0  0  0  0
 11 10  2  0  0  0  0
 12 11  1  0  0  0  0
 12 13  2  0  0  0  0
 13 14  1  0  0  0  0
 14 15  2  0  0  0  0
 15 16  1  0  0  0  0
 16 17  1  0  0  0  0
 17 22  1  0  0  0  0
 17 18  1  0  0  0  0
 18 19  1  0  0  0  0
 19 20  1  0  0  0  0
 21 20  1  0  0  0  0
 22 21  1  0  0  0  0
 23 12  1  0  0  0  0
 24 23  1  0  0  0  0
 25 23  2  0  0  0  0
 26 27  1  0  0  0  0
 27 32  1  0  0  0  0
 28 29  1  0  0  0  0
 28 41  1  0  0  0  0
 30 29  2  0  0  0  0
 31 30  1  0  0  0  0
 32 31  2  0  0  0  0
 32 33  1  0  0  0  0
 33 28  2  0  0  0  0
 34 35  1  0  0  0  0
 34 31  1  0  0  0  0
 36 35  2  0  0  0  0
 37 36  1  0  0  0  0
 38 37  1  0  0  0  0
 39 37  2  0  0  0  0
 39 40  1  0  0  0  0
 40 34  2  0  0  0  0
 41 42  1  0  0  0  0
 42 43  1  0  0  0  0
 42 44  2  0  0  0  0
 45 46  1  0  0  0  0
 46 41  1  0  0  0  0
M  END
>  <minimizedAffinity>
-8.29558372

$$$$

 OpenBabel09122221053D

 46 51  0  0  0  0  0  0  0  0999 V2000
    9.4750   -2.2830    4.8190 C   0  0  0  0  0  0  0  0  0  0  0  0
    8.4400   -2.9420    5.4830 C   0  0  0  0  0  3  0  0  0  0  0  0
    7.8460   -2.3680    6.6070 C   0  0  0  0  0  3  0  0  0  0  0  0
    8.3170   -1.1500    7.1060 C   0  0  0  0  0  0  0  0  0  0  0  0
    9.3860   -0.5240    6.4590 C   0  0  0  0  0  0  0  0  0  0  0  0
    9.8920    0.6230    6.9350 F   0  0  0  0  0  0  0  0  0  0  0  0
    9.9700   -1.0830    5.3220 C   0  0  0  0  0  3  0  0  0  0  0  0
    7.6720   -0.5540    8.2690 C   0  0  0  0  0  0  0  0  0  0  0  0
    8.2570    0.3250    9.0560 N   0  0  0  0  0  0  0  0  0  0  0  0
    7.3230    0.6790    9.9960 C   0  0  0  0  0  0  0  0  0  0  0  0
    7.4380    1.5780   11.0680 C   0  0  0  0  0  3  0  0  0  0  0  0
    6.3310    1.8120   11.9080 C   0  0  0  0  0  0  0  0  0  0  0  0
    5.1310    1.1310   11.6490 C   0  0  0  0  0  3  0  0  0  0  0  0
    4.9970    0.2300   10.5840 C   0  0  0  0  0  3  0  0  0  0  0  0
    6.1180    0.0200    9.7700 C   0  0  0  0  0  0  0  0  0  0  0  0
    6.3560   -0.7590    8.6540 N   0  0  0  0  0  0  0  0  0  0  0  0
    5.3850   -1.5870    7.9440 C   0  0  0  0  0  3  0  0  0  0  0  0
    5.0060   -2.8640    8.7120 C   0  0  0  0  0  2  0  0  0  0  0  0
    4.0240   -3.7200    7.9130 C   0  0  0  0  0  2  0  0  0  0  0  0
    2.7960   -2.9210    7.4840 C   0  0  0  0  0  2  0  0  0  0  0  0
    3.1810   -1.6680    6.7030 C   0  0  0  0  0  2  0  0  0  0  0  0
    4.1500   -0.7910    7.4930 C   0  0  0  0  0  2  0  0  0  0  0  0
    6.4310    2.7860   13.0660 C   0  0  0  0  0  0  0  0  0  0  0  0
    6.0930    3.9910   12.8450 O   0  0  0  0  0  0  0  0  0  0  0  0
    6.8440    2.3220   14.1750 O   0  0  0  0  0  1  0  0  0  0  0  0
    9.9760   -2.9130    3.7140 O   0  0  0  0  0  0  0  0  0  0  0  0
    9.5420   -2.3840    2.4530 C   0  0  0  0  0  2  0  0  0  0  0  0
    7.1030   -5.1160    1.3440 C   0  0  0  0  0  0  0  0  0  0  0  0
    7.5750   -5.3980    0.0620 C   0  0  0  0  0  3  0  0  0  0  0  0
    8.6700   -4.7100   -0.4690 C   0  0  0  0  0  3  0  0  0  0  0  0
    9.3330   -3.7090    0.2620 C   0  0  0  0  0  0  0  0  0  0  0  0
    8.8670   -3.4100    1.5600 C   0  0  0  0  0  0  0  0  0  0  0  0
    7.7490   -4.1080    2.0730 C   0  0  0  0  0  3  0  0  0  0  0  0
   10.4760   -3.0250   -0.3600 C   0  0  0  0  0  0  0  0  0  0  0  0
   10.3190   -1.7820   -0.9930 C   0  0  0  0  0  3  0  0  0  0  0  0
   11.4100   -1.1370   -1.5850 C   0  0  0  0  0  3  0  0  0  0  0  0
   12.6670   -1.7350   -1.5550 C   0  0  0  0  0  0  0  0  0  0  0  0
   14.0090   -0.9400   -2.2810 Cl  0  0  0  0  0  0  0  0  0  0  0  0
   12.8430   -2.9750   -0.9460 C   0  0  0  0  0  3  0  0  0  0  0  0
   11.7500   -3.6180   -0.3580 C   0  0  0  0  0  3  0  0  0  0  0  0
    5.9550   -5.7830    1.8710 N   0  0  0  0  0  0  0  0  0  0  0  0
    5.7930   -7.1700    1.9330 C   0  0  0  0  0  0  0  0  0  0  0  0
    7.0300   -8.0390    1.9470 C   0  0  0  0  0  1  0  0  0  0  0  0
    4.6830   -7.6990    2.0470 O   0  0  0  0  0  0  0  0  0  0  0  0
    4.7400   -4.7780    3.7920 C   0  0  0  0  0  1  0  0  0  0  0  0
    4.8070   -4.9680    2.2830 C   0  0  0  0  0  2  0  0  0  0  0  0
  1  7  2  0  0  0  0
  1  2  1  0  0  0  0
  2  3  2  0  0  0  0
  3  4  1  0  0  0  0
  4  8  1  0  0  0  0
  5  6  1  0  0  0  0
  5  4  2  0  0  0  0
  7  5  1  0  0  0  0
  8 16  1  0  0  0  0
  8  9  2  0  0  0  0
  9 10  1  0  0  0  0
 10 11  1  0  0  0  0
 11 12  2  0  0  0  0
 12 23  1  0  0  0  0
 13 12  1  0  0  0  0
 14 13  2  0  0  0  0
 15 10  2  0  0  0  0
 15 14  1  0  0  0  0
 16 15  1  0  0  0  0
 17 16  1  0  0  0  0
 17 18  1  0  0  0  0
 19 18  1  0  0  0  0
 20 19  1  0  0  0  0
 21 20  1  0  0  0  0
 21 22  1  0  0  0  0
 22 17  1  0  0  0  0
 23 25  1  0  0  0  0
 24 23  2  0  0  0  0
 26  1  1  0  0  0  0
 27 26  1  0  0  0  0
 28 41  1  0  0  0  0
 28 33  1  0  0  0  0
 29 28  2  0  0  0  0
 30 29  1  0  0  0  0
 30 31  2  0  0  0  0
 31 32  1  0  0  0  0
 32 33  2  0  0  0  0
 32 27  1  0  0  0  0
 34 40  1  0  0  0  0
 34 31  1  0  0  0  0
 35 34  2  0  0  0  0
 36 37  2  0  0  0  0
 36 35  1  0  0  0  0
 37 39  1  0  0  0  0
 38 37  1  0  0  0  0
 39 40  2  0  0  0  0
 41 42  1  0  0  0  0
 41 46  1  0  0  0  0
 42 43  1  0  0  0  0
 42 44  2  0  0  0  0
 46 45  1  0  0  0  0
M  END
>  <minimizedAffinity>
-8.28418827

$$$$

 OpenBabel09122221053D

 46 51  0  0  0  0  0  0  0  0999 V2000
    4.0260   -2.6560    5.5140 C   0  0  0  0  0  0  0  0  0  0  0  0
    3.1640   -1.9220    6.3280 C   0  0  0  0  0  3  0  0  0  0  0  0
    3.5170   -1.6300    7.6460 C   0  0  0  0  0  3  0  0  0  0  0  0
    4.7180   -2.1140    8.1760 C   0  0  0  0  0  0  0  0  0  0  0  0
    5.5490   -2.8890    7.3620 C   0  0  0  0  0  0  0  0  0  0  0  0
    6.6870   -3.4060    7.8490 F   0  0  0  0  0  0  0  0  0  0  0  0
    5.2110   -3.1660    6.0380 C   0  0  0  0  0  3  0  0  0  0  0  0
    5.0810   -1.7830    9.5470 C   0  0  0  0  0  0  0  0  0  0  0  0
    5.9360   -0.8320    9.8640 N   0  0  0  0  0  0  0  0  0  0  0  0
    5.9760   -0.7960   11.2350 C   0  0  0  0  0  0  0  0  0  0  0  0
    6.7320    0.0320   12.0800 C   0  0  0  0  0  3  0  0  0  0  0  0
    6.6000   -0.0850   13.4780 C   0  0  0  0  0  0  0  0  0  0  0  0
    5.7090   -1.0400   13.9940 C   0  0  0  0  0  3  0  0  0  0  0  0
    4.9470   -1.8760   13.1670 C   0  0  0  0  0  3  0  0  0  0  0  0
    5.1030   -1.7330   11.7820 C   0  0  0  0  0  0  0  0  0  0  0  0
    4.5320   -2.3500   10.6870 N   0  0  0  0  0  0  0  0  0  0  0  0
    3.4750   -3.3580   10.7060 C   0  0  0  0  0  3  0  0  0  0  0  0
    3.8280   -4.5860   11.5590 C   0  0  0  0  0  2  0  0  0  0  0  0
    2.7140   -5.6310   11.5140 C   0  0  0  0  0  2  0  0  0  0  0  0
    1.3620   -5.0350   11.8960 C   0  0  0  0  0  2  0  0  0  0  0  0
    1.0100   -3.8300   11.0280 C   0  0  0  0  0  2  0  0  0  0  0  0
    2.1050   -2.7670   11.0740 C   0  0  0  0  0  2  0  0  0  0  0  0
    7.4000    0.8060   14.4080 C   0  0  0  0  0  0  0  0  0  0  0  0
    8.4380    0.3060   14.9450 O   0  0  0  0  0  1  0  0  0  0  0  0
    6.9730    1.9910   14.5790 O   0  0  0  0  0  0  0  0  0  0  0  0
    3.6030   -2.8690    4.2310 O   0  0  0  0  0  0  0  0  0  0  0  0
    2.7930   -4.0360    4.0340 C   0  0  0  0  0  2  0  0  0  0  0  0
    5.2180   -6.4070    2.2640 C   0  0  0  0  0  0  0  0  0  0  0  0
    5.0710   -7.5670    3.0260 C   0  0  0  0  0  3  0  0  0  0  0  0
    4.2050   -7.6010    4.1230 C   0  0  0  0  0  3  0  0  0  0  0  0
    3.4550   -6.4740    4.5020 C   0  0  0  0  0  0  0  0  0  0  0  0
    3.5940   -5.2930    3.7420 C   0  0  0  0  0  0  0  0  0  0  0  0
    4.4860   -5.2750    2.6450 C   0  0  0  0  0  3  0  0  0  0  0  0
    2.5650   -6.5810    5.6680 C   0  0  0  0  0  0  0  0  0  0  0  0
    1.3370   -7.2550    5.5830 C   0  0  0  0  0  3  0  0  0  0  0  0
    0.4950   -7.3520    6.6940 C   0  0  0  0  0  3  0  0  0  0  0  0
    0.8710   -6.7660    7.9010 C   0  0  0  0  0  0  0  0  0  0  0  0
   -0.1640   -6.8870    9.2700 Cl  0  0  0  0  0  0  0  0  0  0  0  0
    2.0780   -6.0790    8.0040 C   0  0  0  0  0  3  0  0  0  0  0  0
    2.9160   -5.9830    6.8900 C   0  0  0  0  0  3  0  0  0  0  0  0
    6.1380   -6.3540    1.1720 N   0  0  0  0  0  0  0  0  0  0  0  0
    7.0940   -5.3530    0.9780 C   0  0  0  0  0  0  0  0  0  0  0  0
    7.5720   -4.5720    2.1820 C   0  0  0  0  0  1  0  0  0  0  0  0
    7.6080   -5.1370   -0.1230 O   0  0  0  0  0  0  0  0  0  0  0  0
    4.6990   -7.2340   -0.6530 C   0  0  0  0  0  1  0  0  0  0  0  0
    6.0120   -7.3570    0.1090 C   0  0  0  0  0  2  0  0  0  0  0  0
  1  7  2  0  0  0  0
  1  2  1  0  0  0  0
  2  3  2  0  0  0  0
  3  4  1  0  0  0  0
  4  8  1  0  0  0  0
  5  6  1  0  0  0  0
  5  4  2  0  0  0  0
  7  5  1  0  0  0  0
  8  9  2  0  0  0  0
  8 16  1  0  0  0  0
  9 10  1  0  0  0  0
 10 15  2  0  0  0  0
 10 11  1  0  0  0  0
 11 12  2  0  0  0  0
 12 13  1  0  0  0  0
 12 23  1  0  0  0  0
 14 13  2  0  0  0  0
 15 14  1  0  0  0  0
 16 17  1  0  0  0  0
 16 15  1  0  0  0  0
 17 22  1  0  0  0  0
 17 18  1  0  0  0  0
 19 18  1  0  0  0  0
 19 20  1  0  0  0  0
 21 22  1  0  0  0  0
 21 20  1  0  0  0  0
 23 25  2  0  0  0  0
 23 24  1  0  0  0  0
 26  1  1  0  0  0  0
 27 26  1  0  0  0  0
 28 33  2  0  0  0  0
 28 29  1  0  0  0  0
 29 30  2  0  0  0  0
 30 31  1  0  0  0  0
 31 34  1  0  0  0  0
 32 27  1  0  0  0  0
 32 31  2  0  0  0  0
 33 32  1  0  0  0  0
 34 40  1  0  0  0  0
 35 34  2  0  0  0  0
 35 36  1  0  0  0  0
 36 37  2  0  0  0  0
 37 39  1  0  0  0  0
 37 38  1  0  0  0  0
 40 39  2  0  0  0  0
 41 28  1  0  0  0  0
 42 41  1  0  0  0  0
 42 43  1  0  0  0  0
 44 42  2  0  0  0  0
 45 46  1  0  0  0  0
 46 41  1  0  0  0  0
M  END
>  <minimizedAffinity>
-8.01677704

$$$$

 OpenBabel09122221053D

 46 51  0  0  0  0  0  0  0  0999 V2000
    3.2440   -1.2310    7.4500 C   0  0  0  0  0  0  0  0  0  0  0  0
    4.4710   -1.8880    7.3510 C   0  0  0  0  0  3  0  0  0  0  0  0
    4.6880   -2.8270    6.3430 C   0  0  0  0  0  3  0  0  0  0  0  0
    3.6600   -3.1540    5.4530 C   0  0  0  0  0  0  0  0  0  0  0  0
    2.4210   -2.5230    5.5940 C   0  0  0  0  0  0  0  0  0  0  0  0
    1.3990   -2.8420    4.7860 F   0  0  0  0  0  0  0  0  0  0  0  0
    2.2040   -1.5670    6.5870 C   0  0  0  0  0  3  0  0  0  0  0  0
    3.9090   -4.1220    4.3930 C   0  0  0  0  0  0  0  0  0  0  0  0
    4.4870   -3.8160    3.2490 N   0  0  0  0  0  0  0  0  0  0  0  0
    4.5850   -4.9890    2.5450 C   0  0  0  0  0  0  0  0  0  0  0  0
    5.1170   -5.2150    1.2660 C   0  0  0  0  0  3  0  0  0  0  0  0
    5.1390   -6.5210    0.7360 C   0  0  0  0  0  0  0  0  0  0  0  0
    4.6190   -7.5720    1.5090 C   0  0  0  0  0  3  0  0  0  0  0  0
    4.0830   -7.3650    2.7870 C   0  0  0  0  0  3  0  0  0  0  0  0
    4.0770   -6.0550    3.2830 C   0  0  0  0  0  0  0  0  0  0  0  0
    3.6570   -5.4830    4.4670 N   0  0  0  0  0  0  0  0  0  0  0  0
    3.1210   -6.1820    5.6330 C   0  0  0  0  0  3  0  0  0  0  0  0
    3.7950   -5.7650    6.9490 C   0  0  0  0  0  2  0  0  0  0  0  0
    3.2350   -6.5520    8.1330 C   0  0  0  0  0  2  0  0  0  0  0  0
    1.7130   -6.4530    8.2100 C   0  0  0  0  0  2  0  0  0  0  0  0
    1.0520   -6.8900    6.9060 C   0  0  0  0  0  2  0  0  0  0  0  0
    1.5880   -6.1020    5.7130 C   0  0  0  0  0  2  0  0  0  0  0  0
    5.7170   -6.7880   -0.6390 C   0  0  0  0  0  0  0  0  0  0  0  0
    6.4440   -5.8800   -1.1530 O   0  0  0  0  0  1  0  0  0  0  0  0
    5.4350   -7.9050   -1.1770 O   0  0  0  0  0  0  0  0  0  0  0  0
    3.1360   -0.3100    8.4550 O   0  0  0  0  0  0  0  0  0  0  0  0
    4.3410   -0.0550    9.1900 C   0  0  0  0  0  2  0  0  0  0  0  0
    2.8940   -1.3660   12.4800 C   0  0  0  0  0  0  0  0  0  0  0  0
    3.8220   -0.8760   13.4000 C   0  0  0  0  0  3  0  0  0  0  0  0
    4.9280   -0.1320   12.9780 C   0  0  0  0  0  3  0  0  0  0  0  0
    5.1500    0.1480   11.6190 C   0  0  0  0  0  0  0  0  0  0  0  0
    4.2220   -0.3430   10.6760 C   0  0  0  0  0  0  0  0  0  0  0  0
    3.1180   -1.1050   11.1210 C   0  0  0  0  0  3  0  0  0  0  0  0
    6.3360    0.9340   11.2480 C   0  0  0  0  0  0  0  0  0  0  0  0
    7.5620    0.3090   10.9690 C   0  0  0  0  0  3  0  0  0  0  0  0
    8.6860    1.0620   10.6190 C   0  0  0  0  0  3  0  0  0  0  0  0
    8.5960    2.4500   10.5530 C   0  0  0  0  0  0  0  0  0  0  0  0
    9.9800    3.3770   10.1190 Cl  0  0  0  0  0  0  0  0  0  0  0  0
    7.3950    3.0920   10.8400 C   0  0  0  0  0  3  0  0  0  0  0  0
    6.2730    2.3360   11.1920 C   0  0  0  0  0  3  0  0  0  0  0  0
    1.7890   -2.1670   12.9020 N   0  0  0  0  0  0  0  0  0  0  0  0
    1.6080   -3.5150   12.5790 C   0  0  0  0  0  0  0  0  0  0  0  0
    2.8250   -4.3400   12.2250 C   0  0  0  0  0  1  0  0  0  0  0  0
    0.5040   -4.0650   12.6430 O   0  0  0  0  0  0  0  0  0  0  0  0
    0.7600   -1.7980   15.1330 C   0  0  0  0  0  1  0  0  0  0  0  0
    0.7010   -1.5150   13.6380 C   0  0  0  0  0  2  0  0  0  0  0  0
  1 26  1  0  0  0  0
  2  1  1  0  0  0  0
  3  2  2  0  0  0  0
  4  5  2  0  0  0  0
  4  3  1  0  0  0  0
  5  7  1  0  0  0  0
  6  5  1  0  0  0  0
  7  1  2  0  0  0  0
  8 16  1  0  0  0  0
  8  4  1  0  0  0  0
  9  8  2  0  0  0  0
 10  9  1  0  0  0  0
 10 15  1  0  0  0  0
 11 10  2  0  0  0  0
 12 11  1  0  0  0  0
 12 13  2  0  0  0  0
 13 14  1  0  0  0  0
 14 15  2  0  0  0  0
 15 16  1  0  0  0  0
 16 17  1  0  0  0  0
 17 22  1  0  0  0  0
 17 18  1  0  0  0  0
 18 19  1  0  0  0  0
 19 20  1  0  0  0  0
 21 20  1  0  0  0  0
 22 21  1  0  0  0  0
 23 12  1  0  0  0  0
 24 23  1  0  0  0  0
 25 23  2  0  0  0  0
 26 27  1  0  0  0  0
 27 32  1  0  0  0  0
 28 41  1  0  0  0  0
 28 29  1  0  0  0  0
 30 29  2  0  0  0  0
 31 30  1  0  0  0  0
 32 33  1  0  0  0  0
 32 31  2  0  0  0  0
 33 28  2  0  0  0  0
 34 31  1  0  0  0  0
 35 34  2  0  0  0  0
 36 35  1  0  0  0  0
 37 36  2  0  0  0  0
 37 39  1  0  0  0  0
 38 37  1  0  0  0  0
 39 40  2  0  0  0  0
 40 34  1  0  0  0  0
 41 46  1  0  0  0  0
 42 44  2  0  0  0  0
 42 41  1  0  0  0  0
 43 42  1  0  0  0  0
 46 45  1  0  0  0  0
M  END
>  <minimizedAffinity>
-7.95815611

$$$$

 OpenBabel09122221053D

 46 51  0  0  0  0  0  0  0  0999 V2000
    9.1450   -1.9250    4.5810 C   0  0  0  0  0  0  0  0  0  0  0  0
    8.2470   -2.6350    5.3770 C   0  0  0  0  0  3  0  0  0  0  0  0
    8.4740   -2.7700    6.7470 C   0  0  0  0  0  3  0  0  0  0  0  0
    9.6310   -2.2360    7.3240 C   0  0  0  0  0  0  0  0  0  0  0  0
   10.5450   -1.5680    6.5050 C   0  0  0  0  0  0  0  0  0  0  0  0
   11.6860   -1.0800    7.0160 F   0  0  0  0  0  0  0  0  0  0  0  0
   10.3130   -1.4110    5.1380 C   0  0  0  0  0  3  0  0  0  0  0  0
    9.8420   -2.3670    8.7590 C   0  0  0  0  0  0  0  0  0  0  0  0
   10.4910   -3.3720    9.3100 N   0  0  0  0  0  0  0  0  0  0  0  0
   10.5190   -3.1160   10.6580 C   0  0  0  0  0  0  0  0  0  0  0  0
   11.0840   -3.8760   11.6950 C   0  0  0  0  0  3  0  0  0  0  0  0
   11.0170   -3.4090   13.0220 C   0  0  0  0  0  0  0  0  0  0  0  0
   10.3790   -2.1840   13.2760 C   0  0  0  0  0  3  0  0  0  0  0  0
    9.8090   -1.4130   12.2550 C   0  0  0  0  0  3  0  0  0  0  0  0
    9.8920   -1.9070   10.9460 C   0  0  0  0  0  0  0  0  0  0  0  0
    9.4720   -1.4360    9.7180 N   0  0  0  0  0  0  0  0  0  0  0  0
    8.8310   -0.1520    9.4480 C   0  0  0  0  0  3  0  0  0  0  0  0
    7.5720    0.0840   10.2980 C   0  0  0  0  0  2  0  0  0  0  0  0
    6.9110    1.4170    9.9510 C   0  0  0  0  0  2  0  0  0  0  0  0
    7.8950    2.5790   10.0470 C   0  0  0  0  0  2  0  0  0  0  0  0
    9.1310    2.3460    9.1820 C   0  0  0  0  0  2  0  0  0  0  0  0
    9.8160    1.0250    9.5260 C   0  0  0  0  0  2  0  0  0  0  0  0
   11.6290   -4.2090   14.1550 C   0  0  0  0  0  0  0  0  0  0  0  0
   12.6850   -4.8700   13.8990 O   0  0  0  0  0  0  0  0  0  0  0  0
   11.0410   -4.1580   15.2810 O   0  0  0  0  0  1  0  0  0  0  0  0
    8.8230   -1.8260    3.2550 O   0  0  0  0  0  0  0  0  0  0  0  0
    9.7290   -2.4740    2.3510 C   0  0  0  0  0  2  0  0  0  0  0  0
    7.3630   -5.1970    1.0740 C   0  0  0  0  0  0  0  0  0  0  0  0
    7.7610   -5.3010   -0.2590 C   0  0  0  0  0  3  0  0  0  0  0  0
    8.7810   -4.4920   -0.7690 C   0  0  0  0  0  3  0  0  0  0  0  0
    9.4400   -3.5460    0.0340 C   0  0  0  0  0  0  0  0  0  0  0  0
    9.0480   -3.4280    1.3850 C   0  0  0  0  0  0  0  0  0  0  0  0
    8.0050   -4.2440    1.8780 C   0  0  0  0  0  3  0  0  0  0  0  0
   10.5020   -2.7280   -0.5700 C   0  0  0  0  0  0  0  0  0  0  0  0
   11.8070   -3.2250   -0.7140 C   0  0  0  0  0  3  0  0  0  0  0  0
   12.8120   -2.4420   -1.2880 C   0  0  0  0  0  3  0  0  0  0  0  0
   12.5230   -1.1490   -1.7150 C   0  0  0  0  0  0  0  0  0  0  0  0
   13.7600   -0.1850   -2.4240 Cl  0  0  0  0  0  0  0  0  0  0  0  0
   11.2400   -0.6290   -1.5690 C   0  0  0  0  0  3  0  0  0  0  0  0
   10.2370   -1.4140   -0.9930 C   0  0  0  0  0  3  0  0  0  0  0  0
    6.2890   -5.9870    1.5870 N   0  0  0  0  0  0  0  0  0  0  0  0
    6.3060   -7.3790    1.7100 C   0  0  0  0  0  0  0  0  0  0  0  0
    7.6450   -8.0750    1.8160 C   0  0  0  0  0  1  0  0  0  0  0  0
    5.2710   -8.0450    1.8050 O   0  0  0  0  0  0  0  0  0  0  0  0
    4.8750   -5.0530    3.4040 C   0  0  0  0  0  1  0  0  0  0  0  0
    5.0260   -5.3140    1.9120 C   0  0  0  0  0  2  0  0  0  0  0  0
  1  7  2  0  0  0  0
  1  2  1  0  0  0  0
  2  3  2  0  0  0  0
  3  4  1  0  0  0  0
  4  8  1  0  0  0  0
  5  6  1  0  0  0  0
  5  4  2  0  0  0  0
  7  5  1  0  0  0  0
  8  9  2  0  0  0  0
  8 16  1  0  0  0  0
  9 10  1  0  0  0  0
 10 15  2  0  0  0  0
 10 11  1  0  0  0  0
 11 12  2  0  0  0  0
 12 13  1  0  0  0  0
 12 23  1  0  0  0  0
 14 13  2  0  0  0  0
 15 14  1  0  0  0  0
 16 15  1  0  0  0  0
 17 22  1  0  0  0  0
 17 16  1  0  0  0  0
 17 18  1  0  0  0  0
 19 20  1  0  0  0  0
 19 18  1  0  0  0  0
 21 22  1  0  0  0  0
 21 20  1  0  0  0  0
 23 25  1  0  0  0  0
 24 23  2  0  0  0  0
 26  1  1  0  0  0  0
 27 26  1  0  0  0  0
 28 41  1  0  0  0  0
 28 33  1  0  0  0  0
 29 28  2  0  0  0  0
 30 29  1  0  0  0  0
 30 31  2  0  0  0  0
 31 32  1  0  0  0  0
 32 33  2  0  0  0  0
 32 27  1  0  0  0  0
 34 31  1  0  0  0  0
 35 34  1  0  0  0  0
 36 35  2  0  0  0  0
 37 39  2  0  0  0  0
 37 36  1  0  0  0  0
 38 37  1  0  0  0  0
 39 40  1  0  0  0  0
 40 34  2  0  0  0  0
 41 42  1  0  0  0  0
 41 46  1  0  0  0  0
 42 44  2  0  0  0  0
 42 43  1  0  0  0  0
 46 45  1  0  0  0  0
M  END
>  <minimizedAffinity>
-7.95654535

$$$$
