
 OpenBabel09122222393D

 46 51  0  0  0  0  0  0  0  0999 V2000
    3.2440   -1.2310    7.4500 C   0  0  0  0  0  0  0  0  0  0  0  0
    4.4710   -1.8880    7.3510 C   0  0  0  0  0  3  0  0  0  0  0  0
    4.6880   -2.8270    6.3430 C   0  0  0  0  0  3  0  0  0  0  0  0
    3.6600   -3.1540    5.4530 C   0  0  0  0  0  0  0  0  0  0  0  0
    2.4210   -2.5230    5.5940 C   0  0  0  0  0  0  0  0  0  0  0  0
    1.3990   -2.8420    4.7860 F   0  0  0  0  0  0  0  0  0  0  0  0
    2.2040   -1.5670    6.5870 C   0  0  0  0  0  3  0  0  0  0  0  0
    3.9090   -4.1220    4.3930 C   0  0  0  0  0  0  0  0  0  0  0  0
    4.4870   -3.8160    3.2490 N   0  0  0  0  0  0  0  0  0  0  0  0
    4.5850   -4.9890    2.5450 C   0  0  0  0  0  0  0  0  0  0  0  0
    5.1170   -5.2150    1.2660 C   0  0  0  0  0  3  0  0  0  0  0  0
    5.1390   -6.5210    0.7360 C   0  0  0  0  0  0  0  0  0  0  0  0
    4.6190   -7.5720    1.5090 C   0  0  0  0  0  3  0  0  0  0  0  0
    4.0830   -7.3650    2.7870 C   0  0  0  0  0  3  0  0  0  0  0  0
    4.0770   -6.0550    3.2830 C   0  0  0  0  0  0  0  0  0  0  0  0
    3.6570   -5.4830    4.4670 N   0  0  0  0  0  0  0  0  0  0  0  0
    3.1210   -6.1820    5.6330 C   0  0  0  0  0  3  0  0  0  0  0  0
    3.7950   -5.7650    6.9490 C   0  0  0  0  0  2  0  0  0  0  0  0
    3.2350   -6.5520    8.1330 C   0  0  0  0  0  2  0  0  0  0  0  0
    1.7130   -6.4530    8.2100 C   0  0  0  0  0  2  0  0  0  0  0  0
    1.0520   -6.8900    6.9060 C   0  0  0  0  0  2  0  0  0  0  0  0
    1.5880   -6.1020    5.7130 C   0  0  0  0  0  2  0  0  0  0  0  0
    5.7170   -6.7880   -0.6390 C   0  0  0  0  0  0  0  0  0  0  0  0
    6.4440   -5.8800   -1.1530 O   0  0  0  0  0  1  0  0  0  0  0  0
    5.4350   -7.9050   -1.1770 O   0  0  0  0  0  0  0  0  0  0  0  0
    3.1360   -0.3100    8.4550 O   0  0  0  0  0  0  0  0  0  0  0  0
    4.3410   -0.0550    9.1900 C   0  0  0  0  0  2  0  0  0  0  0  0
    2.8940   -1.3660   12.4800 C   0  0  0  0  0  0  0  0  0  0  0  0
    3.8220   -0.8760   13.4000 C   0  0  0  0  0  3  0  0  0  0  0  0
    4.9280   -0.1320   12.9780 C   0  0  0  0  0  3  0  0  0  0  0  0
    5.1500    0.1480   11.6190 C   0  0  0  0  0  0  0  0  0  0  0  0
    4.2220   -0.3430   10.6760 C   0  0  0  0  0  0  0  0  0  0  0  0
    3.1180   -1.1050   11.1210 C   0  0  0  0  0  3  0  0  0  0  0  0
    6.3360    0.9340   11.2480 C   0  0  0  0  0  0  0  0  0  0  0  0
    7.5620    0.3090   10.9690 C   0  0  0  0  0  3  0  0  0  0  0  0
    8.6860    1.0620   10.6190 C   0  0  0  0  0  3  0  0  0  0  0  0
    8.5960    2.4500   10.5530 C   0  0  0  0  0  0  0  0  0  0  0  0
    9.9800    3.3770   10.1190 Cl  0  0  0  0  0  0  0  0  0  0  0  0
    7.3950    3.0920   10.8400 C   0  0  0  0  0  3  0  0  0  0  0  0
    6.2730    2.3360   11.1920 C   0  0  0  0  0  3  0  0  0  0  0  0
    1.7890   -2.1670   12.9020 N   0  0  0  0  0  0  0  0  0  0  0  0
    1.6080   -3.5150   12.5790 C   0  0  0  0  0  0  0  0  0  0  0  0
    2.8250   -4.3400   12.2250 C   0  0  0  0  0  1  0  0  0  0  0  0
    0.5040   -4.0650   12.6430 O   0  0  0  0  0  0  0  0  0  0  0  0
    0.7600   -1.7980   15.1330 C   0  0  0  0  0  1  0  0  0  0  0  0
    0.7010   -1.5150   13.6380 C   0  0  0  0  0  2  0  0  0  0  0  0
  1 26  1  0  0  0  0
  2  1  1  0  0  0  0
  3  2  2  0  0  0  0
  4  5  2  0  0  0  0
  4  3  1  0  0  0  0
  5  7  1  0  0  0  0
  6  5  1  0  0  0  0
  7  1  2  0  0  0  0
  8 16  1  0  0  0  0
  8  4  1  0  0  0  0
  9  8  2  0  0  0  0
 10  9  1  0  0  0  0
 10 15  1  0  0  0  0
 11 10  2  0  0  0  0
 12 11  1  0  0  0  0
 12 13  2  0  0  0  0
 13 14  1  0  0  0  0
 14 15  2  0  0  0  0
 15 16  1  0  0  0  0
 16 17  1  0  0  0  0
 17 22  1  0  0  0  0
 17 18  1  0  0  0  0
 18 19  1  0  0  0  0
 19 20  1  0  0  0  0
 21 20  1  0  0  0  0
 22 21  1  0  0  0  0
 23 12  1  0  0  0  0
 24 23  1  0  0  0  0
 25 23  2  0  0  0  0
 26 27  1  0  0  0  0
 27 32  1  0  0  0  0
 28 41  1  0  0  0  0
 28 29  1  0  0  0  0
 30 29  2  0  0  0  0
 31 30  1  0  0  0  0
 32 33  1  0  0  0  0
 32 31  2  0  0  0  0
 33 28  2  0  0  0  0
 34 31  1  0  0  0  0
 35 34  2  0  0  0  0
 36 35  1  0  0  0  0
 37 36  2  0  0  0  0
 37 39  1  0  0  0  0
 38 37  1  0  0  0  0
 39 40  2  0  0  0  0
 40 34  1  0  0  0  0
 41 46  1  0  0  0  0
 42 44  2  0  0  0  0
 42 41  1  0  0  0  0
 43 42  1  0  0  0  0
 46 45  1  0  0  0  0
M  END
>  <minimizedAffinity>
-7.95815611

$$$$
