
 OpenBabel09122222393D

 46 51  0  0  0  0  0  0  0  0999 V2000
    3.2650   -1.1600    7.4090 C   0  0  0  0  0  0  0  0  0  0  0  0
    4.4900   -1.8170    7.2910 C   0  0  0  0  0  3  0  0  0  0  0  0
    4.6870   -2.7660    6.2870 C   0  0  0  0  0  3  0  0  0  0  0  0
    3.6400   -3.1010    5.4220 C   0  0  0  0  0  0  0  0  0  0  0  0
    2.4040   -2.4700    5.5820 C   0  0  0  0  0  0  0  0  0  0  0  0
    1.3660   -2.7970    4.7990 F   0  0  0  0  0  0  0  0  0  0  0  0
    2.2080   -1.5040    6.5700 C   0  0  0  0  0  3  0  0  0  0  0  0
    3.8690   -4.0790    4.3670 C   0  0  0  0  0  0  0  0  0  0  0  0
    4.5250   -3.8130    3.2560 N   0  0  0  0  0  0  0  0  0  0  0  0
    4.5690   -4.9860    2.5470 C   0  0  0  0  0  0  0  0  0  0  0  0
    5.1470   -5.2450    1.2930 C   0  0  0  0  0  3  0  0  0  0  0  0
    5.0950   -6.5450    0.7530 C   0  0  0  0  0  0  0  0  0  0  0  0
    4.4580   -7.5570    1.4890 C   0  0  0  0  0  3  0  0  0  0  0  0
    3.8750   -7.3180    2.7400 C   0  0  0  0  0  3  0  0  0  0  0  0
    3.9440   -6.0130    3.2480 C   0  0  0  0  0  0  0  0  0  0  0  0
    3.5090   -5.4180    4.4150 N   0  0  0  0  0  0  0  0  0  0  0  0
    2.8620   -6.0800    5.5450 C   0  0  0  0  0  3  0  0  0  0  0  0
    1.3690   -6.3540    5.3090 C   0  0  0  0  0  2  0  0  0  0  0  0
    0.7250   -7.0070    6.5320 C   0  0  0  0  0  2  0  0  0  0  0  0
    1.4780   -8.2610    6.9670 C   0  0  0  0  0  2  0  0  0  0  0  0
    2.9550   -7.9750    7.2200 C   0  0  0  0  0  2  0  0  0  0  0  0
    3.6200   -7.3370    6.0020 C   0  0  0  0  0  2  0  0  0  0  0  0
    5.7200   -6.8480   -0.5940 C   0  0  0  0  0  0  0  0  0  0  0  0
    6.5260   -5.9880   -1.0700 O   0  0  0  0  0  1  0  0  0  0  0  0
    5.3950   -7.9450   -1.1480 O   0  0  0  0  0  0  0  0  0  0  0  0
    3.1770   -0.2290    8.4070 O   0  0  0  0  0  0  0  0  0  0  0  0
    2.7440   -0.7280    9.6790 C   0  0  0  0  0  2  0  0  0  0  0  0
    5.9980   -0.5020   11.6800 C   0  0  0  0  0  0  0  0  0  0  0  0
    6.0980   -1.7990   12.1860 C   0  0  0  0  0  3  0  0  0  0  0  0
    5.1190   -2.7570   11.9040 C   0  0  0  0  0  3  0  0  0  0  0  0
    4.0010   -2.4530   11.1090 C   0  0  0  0  0  0  0  0  0  0  0  0
    3.8850   -1.1460   10.5910 C   0  0  0  0  0  0  0  0  0  0  0  0
    4.8770   -0.1880   10.8990 C   0  0  0  0  0  3  0  0  0  0  0  0
    3.0100   -3.5100   10.8560 C   0  0  0  0  0  0  0  0  0  0  0  0
    2.0540   -3.8540   11.8250 C   0  0  0  0  0  3  0  0  0  0  0  0
    1.1160   -4.8610   11.5790 C   0  0  0  0  0  3  0  0  0  0  0  0
    1.1320   -5.5400   10.3630 C   0  0  0  0  0  0  0  0  0  0  0  0
   -0.0240   -6.7780   10.0600 Cl  0  0  0  0  0  0  0  0  0  0  0  0
    2.0810   -5.2270    9.3940 C   0  0  0  0  0  3  0  0  0  0  0  0
    3.0190   -4.2210    9.6430 C   0  0  0  0  0  3  0  0  0  0  0  0
    6.9700    0.4930   12.0050 N   0  0  0  0  0  0  0  0  0  0  0  0
    8.2320    0.6020   11.4160 C   0  0  0  0  0  0  0  0  0  0  0  0
    8.4340    0.0180   10.0350 C   0  0  0  0  0  1  0  0  0  0  0  0
    9.1590    1.2170   11.9520 O   0  0  0  0  0  0  0  0  0  0  0  0
    6.1440    2.7510   12.6330 C   0  0  0  0  0  1  0  0  0  0  0  0
    6.6810    1.4100   13.1140 C   0  0  0  0  0  2  0  0  0  0  0  0
  1 26  1  0  0  0  0
  2  1  1  0  0  0  0
  3  2  2  0  0  0  0
  4  5  2  0  0  0  0
  4  3  1  0  0  0  0
  5  7  1  0  0  0  0
  6  5  1  0  0  0  0
  7  1  2  0  0  0  0
  8 16  1  0  0  0  0
  8  4  1  0  0  0  0
  9  8  2  0  0  0  0
 10 15  1  0  0  0  0
 10  9  1  0  0  0  0
 11 10  2  0  0  0  0
 12 11  1  0  0  0  0
 12 13  2  0  0  0  0
 13 14  1  0  0  0  0
 14 15  2  0  0  0  0
 15 16  1  0  0  0  0
 16 17  1  0  0  0  0
 17 22  1  0  0  0  0
 18 17  1  0  0  0  0
 18 19  1  0  0  0  0
 19 20  1  0  0  0  0
 20 21  1  0  0  0  0
 22 21  1  0  0  0  0
 23 12  1  0  0  0  0
 24 23  1  0  0  0  0
 25 23  2  0  0  0  0
 26 27  1  0  0  0  0
 27 32  1  0  0  0  0
 28 41  1  0  0  0  0
 28 29  1  0  0  0  0
 30 29  2  0  0  0  0
 31 30  1  0  0  0  0
 32 33  1  0  0  0  0
 32 31  2  0  0  0  0
 33 28  2  0  0  0  0
 34 31  1  0  0  0  0
 34 35  1  0  0  0  0
 36 35  2  0  0  0  0
 37 36  1  0  0  0  0
 38 37  1  0  0  0  0
 39 40  1  0  0  0  0
 39 37  2  0  0  0  0
 40 34  2  0  0  0  0
 41 46  1  0  0  0  0
 42 44  2  0  0  0  0
 42 41  1  0  0  0  0
 43 42  1  0  0  0  0
 45 46  1  0  0  0  0
M  END
>  <minimizedAffinity>
-8.48768806

$$$$
