
 OpenBabel09122222393D

 46 51  0  0  0  0  0  0  0  0999 V2000
    5.8330   -1.8050    9.6230 C   0  0  0  0  0  0  0  0  0  0  0  0
    5.6010   -0.9240    8.5670 C   0  0  0  0  0  3  0  0  0  0  0  0
    6.2250   -1.1220    7.3340 C   0  0  0  0  0  3  0  0  0  0  0  0
    7.1250   -2.1790    7.1640 C   0  0  0  0  0  0  0  0  0  0  0  0
    7.3840   -3.0250    8.2460 C   0  0  0  0  0  0  0  0  0  0  0  0
    8.2740   -4.0230    8.1320 F   0  0  0  0  0  0  0  0  0  0  0  0
    6.7470   -2.8450    9.4740 C   0  0  0  0  0  3  0  0  0  0  0  0
    7.7520   -2.3840    5.8650 C   0  0  0  0  0  0  0  0  0  0  0  0
    7.2490   -3.1620    4.9290 N   0  0  0  0  0  0  0  0  0  0  0  0
    8.0910   -3.0580    3.8510 C   0  0  0  0  0  0  0  0  0  0  0  0
    8.0140   -3.6870    2.5990 C   0  0  0  0  0  3  0  0  0  0  0  0
    8.9870   -3.4160    1.6160 C   0  0  0  0  0  0  0  0  0  0  0  0
   10.0200   -2.5150    1.9200 C   0  0  0  0  0  3  0  0  0  0  0  0
   10.1150   -1.8780    3.1650 C   0  0  0  0  0  3  0  0  0  0  0  0
    9.1310   -2.1720    4.1190 C   0  0  0  0  0  0  0  0  0  0  0  0
    8.8940   -1.7430    5.4090 N   0  0  0  0  0  0  0  0  0  0  0  0
    9.6480   -0.7320    6.1460 C   0  0  0  0  0  3  0  0  0  0  0  0
   10.6430   -1.3340    7.1510 C   0  0  0  0  0  2  0  0  0  0  0  0
   11.3760   -0.2420    7.9280 C   0  0  0  0  0  2  0  0  0  0  0  0
   12.0400    0.7680    6.9960 C   0  0  0  0  0  2  0  0  0  0  0  0
   11.0400    1.3780    6.0180 C   0  0  0  0  0  2  0  0  0  0  0  0
   10.3090    0.3010    5.2190 C   0  0  0  0  0  2  0  0  0  0  0  0
    8.9160   -4.0770    0.2540 C   0  0  0  0  0  0  0  0  0  0  0  0
    8.0890   -5.0320    0.1110 O   0  0  0  0  0  1  0  0  0  0  0  0
    9.6890   -3.6240   -0.6480 O   0  0  0  0  0  0  0  0  0  0  0  0
    5.1570   -1.5420   10.7830 O   0  0  0  0  0  0  0  0  0  0  0  0
    3.8710   -0.9290   10.6210 C   0  0  0  0  0  2  0  0  0  0  0  0
    1.2350   -2.6750   12.7750 C   0  0  0  0  0  0  0  0  0  0  0  0
    0.6400   -3.5260   11.8420 C   0  0  0  0  0  3  0  0  0  0  0  0
    1.0660   -3.5410   10.5100 C   0  0  0  0  0  3  0  0  0  0  0  0
    2.1010   -2.7040   10.0600 C   0  0  0  0  0  0  0  0  0  0  0  0
    2.7110   -1.8370   10.9910 C   0  0  0  0  0  0  0  0  0  0  0  0
    2.2560   -1.8260   12.3300 C   0  0  0  0  0  3  0  0  0  0  0  0
    2.4950   -2.7720    8.6450 C   0  0  0  0  0  0  0  0  0  0  0  0
    3.2870   -3.8270    8.1640 C   0  0  0  0  0  3  0  0  0  0  0  0
    3.6600   -3.8850    6.8180 C   0  0  0  0  0  3  0  0  0  0  0  0
    3.2510   -2.8830    5.9420 C   0  0  0  0  0  0  0  0  0  0  0  0
    3.7080   -2.9560    4.2850 Cl  0  0  0  0  0  0  0  0  0  0  0  0
    2.4780   -1.8190    6.4010 C   0  0  0  0  0  3  0  0  0  0  0  0
    2.1090   -1.7630    7.7480 C   0  0  0  0  0  3  0  0  0  0  0  0
    0.7700   -2.6210   14.1250 N   0  0  0  0  0  0  0  0  0  0  0  0
    0.7400   -3.7060   15.0060 C   0  0  0  0  0  0  0  0  0  0  0  0
    1.6900   -4.8580   14.7610 C   0  0  0  0  0  1  0  0  0  0  0  0
    0.0200   -3.7210   16.0080 O   0  0  0  0  0  0  0  0  0  0  0  0
    1.1370   -0.5650   15.4710 C   0  0  0  0  0  1  0  0  0  0  0  0
    0.1760   -1.3680   14.6050 C   0  0  0  0  0  2  0  0  0  0  0  0
  1 26  1  0  0  0  0
  2  1  2  0  0  0  0
  3  2  1  0  0  0  0
  4  3  2  0  0  0  0
  4  5  1  0  0  0  0
  5  7  2  0  0  0  0
  6  5  1  0  0  0  0
  7  1  1  0  0  0  0
  8  4  1  0  0  0  0
  9  8  2  0  0  0  0
 10 15  1  0  0  0  0
 10  9  1  0  0  0  0
 11 10  2  0  0  0  0
 12 13  2  0  0  0  0
 12 11  1  0  0  0  0
 13 14  1  0  0  0  0
 14 15  2  0  0  0  0
 15 16  1  0  0  0  0
 16  8  1  0  0  0  0
 16 17  1  0  0  0  0
 17 18  1  0  0  0  0
 18 19  1  0  0  0  0
 20 19  1  0  0  0  0
 21 20  1  0  0  0  0
 22 21  1  0  0  0  0
 22 17  1  0  0  0  0
 23 12  1  0  0  0  0
 24 23  1  0  0  0  0
 25 23  2  0  0  0  0
 27 26  1  0  0  0  0
 27 32  1  0  0  0  0
 28 41  1  0  0  0  0
 29 28  2  0  0  0  0
 30 29  1  0  0  0  0
 31 30  2  0  0  0  0
 31 32  1  0  0  0  0
 32 33  2  0  0  0  0
 33 28  1  0  0  0  0
 34 31  1  0  0  0  0
 35 34  1  0  0  0  0
 36 35  2  0  0  0  0
 37 39  2  0  0  0  0
 37 36  1  0  0  0  0
 38 37  1  0  0  0  0
 39 40  1  0  0  0  0
 40 34  2  0  0  0  0
 41 46  1  0  0  0  0
 41 42  1  0  0  0  0
 42 44  2  0  0  0  0
 43 42  1  0  0  0  0
 46 45  1  0  0  0  0
M  END
>  <minimizedAffinity>
-8.6104517

$$$$
