
 OpenBabel09122222393D

 46 51  0  0  0  0  0  0  0  0999 V2000
    3.5860   -1.3020    7.3790 C   0  0  0  0  0  0  0  0  0  0  0  0
    4.7630   -2.0430    7.2740 C   0  0  0  0  0  3  0  0  0  0  0  0
    4.9040   -3.0000    6.2680 C   0  0  0  0  0  3  0  0  0  0  0  0
    3.8480   -3.2570    5.3880 C   0  0  0  0  0  0  0  0  0  0  0  0
    2.6570   -2.5390    5.5360 C   0  0  0  0  0  0  0  0  0  0  0  0
    1.6090   -2.7890    4.7390 F   0  0  0  0  0  0  0  0  0  0  0  0
    2.5180   -1.5660    6.5260 C   0  0  0  0  0  3  0  0  0  0  0  0
    4.0190   -4.2440    4.3300 C   0  0  0  0  0  0  0  0  0  0  0  0
    4.6250   -3.9900    3.1890 N   0  0  0  0  0  0  0  0  0  0  0  0
    4.6270   -5.1690    2.4870 C   0  0  0  0  0  0  0  0  0  0  0  0
    5.1440   -5.4410    1.2100 C   0  0  0  0  0  3  0  0  0  0  0  0
    5.0570   -6.7450    0.6820 C   0  0  0  0  0  0  0  0  0  0  0  0
    4.4480   -7.7470    1.4550 C   0  0  0  0  0  3  0  0  0  0  0  0
    3.9260   -7.4940    2.7300 C   0  0  0  0  0  3  0  0  0  0  0  0
    4.0280   -6.1860    3.2240 C   0  0  0  0  0  0  0  0  0  0  0  0
    3.6520   -5.5790    4.4060 N   0  0  0  0  0  0  0  0  0  0  0  0
    3.0550   -6.2280    5.5700 C   0  0  0  0  0  3  0  0  0  0  0  0
    1.5180   -6.2140    5.5450 C   0  0  0  0  0  2  0  0  0  0  0  0
    0.9380   -6.8630    6.8010 C   0  0  0  0  0  2  0  0  0  0  0  0
    1.4960   -8.2670    7.0230 C   0  0  0  0  0  2  0  0  0  0  0  0
    3.0220   -8.2670    7.0680 C   0  0  0  0  0  2  0  0  0  0  0  0
    3.6210   -7.6360    5.8130 C   0  0  0  0  0  2  0  0  0  0  0  0
    5.6170   -7.0620   -0.6900 C   0  0  0  0  0  0  0  0  0  0  0  0
    5.3740   -8.2150   -1.1670 O   0  0  0  0  0  1  0  0  0  0  0  0
    6.2880   -6.1480   -1.2650 O   0  0  0  0  0  0  0  0  0  0  0  0
    3.5520   -0.3710    8.3810 O   0  0  0  0  0  0  0  0  0  0  0  0
    2.5130   -0.5490    9.3540 C   0  0  0  0  0  2  0  0  0  0  0  0
    2.3160   -3.6940   11.5240 C   0  0  0  0  0  0  0  0  0  0  0  0
    3.3290   -3.4490   12.4520 C   0  0  0  0  0  3  0  0  0  0  0  0
    4.0960   -2.2810   12.3870 C   0  0  0  0  0  3  0  0  0  0  0  0
    3.8810   -1.3160   11.3880 C   0  0  0  0  0  0  0  0  0  0  0  0
    2.8610   -1.5500   10.4410 C   0  0  0  0  0  0  0  0  0  0  0  0
    2.1070   -2.7430   10.5160 C   0  0  0  0  0  3  0  0  0  0  0  0
    4.7270   -0.1140   11.3790 C   0  0  0  0  0  0  0  0  0  0  0  0
    6.0310   -0.1490   10.8600 C   0  0  0  0  0  3  0  0  0  0  0  0
    6.8310    0.9970   10.8560 C   0  0  0  0  0  3  0  0  0  0  0  0
    6.3360    2.1880   11.3810 C   0  0  0  0  0  0  0  0  0  0  0  0
    7.3210    3.6000   11.3740 Cl  0  0  0  0  0  0  0  0  0  0  0  0
    5.0520    2.2430   11.9150 C   0  0  0  0  0  3  0  0  0  0  0  0
    4.2560    1.0950   11.9190 C   0  0  0  0  0  3  0  0  0  0  0  0
    1.5630   -4.9070   11.5580 N   0  0  0  0  0  0  0  0  0  0  0  0
    1.7500   -5.9910   10.6950 C   0  0  0  0  0  0  0  0  0  0  0  0
    3.1010   -6.1610   10.0380 C   0  0  0  0  0  1  0  0  0  0  0  0
    0.8770   -6.8440   10.5110 O   0  0  0  0  0  0  0  0  0  0  0  0
    0.8110   -5.6790   13.7970 C   0  0  0  0  0  1  0  0  0  0  0  0
    0.4330   -4.9960   12.4900 C   0  0  0  0  0  2  0  0  0  0  0  0
  1 26  1  0  0  0  0
  2  1  1  0  0  0  0
  3  2  2  0  0  0  0
  4  5  2  0  0  0  0
  4  3  1  0  0  0  0
  5  7  1  0  0  0  0
  6  5  1  0  0  0  0
  7  1  2  0  0  0  0
  8 16  1  0  0  0  0
  8  4  1  0  0  0  0
  9  8  2  0  0  0  0
 10  9  1  0  0  0  0
 10 15  1  0  0  0  0
 11 10  2  0  0  0  0
 12 11  1  0  0  0  0
 12 13  2  0  0  0  0
 13 14  1  0  0  0  0
 14 15  2  0  0  0  0
 15 16  1  0  0  0  0
 16 17  1  0  0  0  0
 17 22  1  0  0  0  0
 18 17  1  0  0  0  0
 18 19  1  0  0  0  0
 19 20  1  0  0  0  0
 20 21  1  0  0  0  0
 22 21  1  0  0  0  0
 23 12  1  0  0  0  0
 24 23  1  0  0  0  0
 25 23  2  0  0  0  0
 26 27  1  0  0  0  0
 27 32  1  0  0  0  0
 28 41  1  0  0  0  0
 28 29  1  0  0  0  0
 30 29  2  0  0  0  0
 31 30  1  0  0  0  0
 32 33  1  0  0  0  0
 32 31  2  0  0  0  0
 33 28  2  0  0  0  0
 34 31  1  0  0  0  0
 34 40  1  0  0  0  0
 35 34  2  0  0  0  0
 36 35  1  0  0  0  0
 36 37  2  0  0  0  0
 37 39  1  0  0  0  0
 38 37  1  0  0  0  0
 39 40  2  0  0  0  0
 41 46  1  0  0  0  0
 42 41  1  0  0  0  0
 43 42  1  0  0  0  0
 44 42  2  0  0  0  0
 46 45  1  0  0  0  0
M  END
>  <minimizedAffinity>
-8.56646919

$$$$
