REMARK  10 active torsions:
REMARK  status: ('A' for Active; 'I' for Inactive)
REMARK    1  A    between atoms: N1_2  and  C2_5 
REMARK    2  A    between atoms: S1_4  and  C21_27 
REMARK    3  A    between atoms: S1_4  and  C6_12 
REMARK    4  A    between atoms: C3_7  and  C22_28 
REMARK    5  A    between atoms: C3_7  and  C7_13 
REMARK    6  A    between atoms: O3_8  and  C5_11 
REMARK    7  A    between atoms: O4_10  and  C23_29 
REMARK    8  A    between atoms: C7_13  and  C8_14 
REMARK    9  A    between atoms: C8_14  and  C29_35 
REMARK   10  A    between atoms: C18_24  and  C26_32 
ROOT
HETATM    1  C1  NH1 A 901      41.836  12.963  52.250  1.00 28.56     0.303 C 
HETATM    2  O1  NH1 A 901      41.665  11.929  51.595  1.00 24.13    -0.259 OA
HETATM    3  O2  NH1 A 901      40.814  13.705  52.765  1.00 26.87    -0.305 OA
HETATM    4  C3  NH1 A 901      41.091  14.611  53.891  1.00 17.18     0.081 C 
HETATM    5  C4  NH1 A 901      42.282  15.539  53.490  1.00 18.32     0.105 C 
HETATM    6  C5  NH1 A 901      43.434  14.610  53.160  1.00 18.99     0.069 C 
HETATM    7  C6  NH1 A 901      43.236  13.435  52.524  1.00 23.00     0.110 C 
ENDROOT
BRANCH   4   8
HETATM    8  C22 NH1 A 901      39.838  15.510  54.121  1.00 18.37     0.021 C 
HETATM    9  C13 NH1 A 901      38.588  14.794  54.673  1.00 11.89     0.007 C 
HETATM   10  C28 NH1 A 901      37.383  15.610  54.161  1.00 11.44     0.000 C 
HETATM   11  C16 NH1 A 901      37.897  16.573  53.053  1.00  9.43     0.000 C 
HETATM   12  C19 NH1 A 901      39.383  16.261  52.848  1.00 10.51     0.007 C 
ENDBRANCH   4   8
BRANCH   4  13
HETATM   13  C7  NH1 A 901      41.387  13.691  55.111  1.00 11.33     0.044 C 
BRANCH  13  14
HETATM   14  C8  NH1 A 901      41.675  14.466  56.412  1.00 11.67     0.041 C 
BRANCH  14  15
HETATM   15  C29 NH1 A 901      41.677  13.605  57.614  1.00 19.62    -0.058 A 
HETATM   16  C14 NH1 A 901      40.470  13.240  58.227  1.00 24.74     0.010 A 
HETATM   17  C25 NH1 A 901      40.470  12.423  59.360  1.00 25.99     0.037 A 
HETATM   18  C23 NH1 A 901      41.683  11.968  59.880  1.00 25.67     0.065 A 
HETATM   19  C20 NH1 A 901      42.890  12.325  59.275  1.00 23.82     0.037 A 
HETATM   20  C17 NH1 A 901      42.887  13.143  58.140  1.00 24.20     0.010 A 
BRANCH  18  21
HETATM   21  O4  NH1 A 901      41.692  11.198  61.021  1.00 31.80    -0.361 OA
HETATM   22  H37 NH1 A 901      40.794  11.124  61.356  1.00 20.00     0.217 HD
ENDBRANCH  18  21
ENDBRANCH  14  15
ENDBRANCH  13  14
ENDBRANCH   4  13
BRANCH   6  23
HETATM   23  O3  NH1 A 901      44.679  15.072  53.310  1.00 27.15    -0.363 OA
HETATM   24  H3  NH1 A 901      45.293  14.376  53.044  1.00 20.00     0.217 HD
ENDBRANCH   6  23
BRANCH   7  25
HETATM   25  S1  NH1 A 901      44.628  12.469  52.019  1.00 17.47    -0.081 SA
BRANCH  25  26
HETATM   26  C21 NH1 A 901      45.190  13.212  50.517  1.00 21.94     0.013 A 
HETATM   27  C18 NH1 A 901      46.559  13.299  50.137  1.00 21.86    -0.031 A 
HETATM   28  C15 NH1 A 901      46.866  13.881  48.901  1.00 17.55     0.038 A 
HETATM   29  C2  NH1 A 901      45.865  14.404  48.083  1.00 22.21     0.032 A 
HETATM   30  C12 NH1 A 901      44.525  14.318  48.478  1.00 22.50    -0.035 A 
HETATM   31  C11 NH1 A 901      43.468  14.926  47.668  1.00 17.60     0.050 C 
HETATM   32  C24 NH1 A 901      44.196  13.739  49.693  1.00 18.71     0.028 A 
BRANCH  27  33
HETATM   33  C26 NH1 A 901      47.676  12.814  51.001  1.00 14.54    -0.023 C 
HETATM   34  C9  NH1 A 901      47.543  11.317  51.309  1.00  8.91     0.019 C 
HETATM   35  C10 NH1 A 901      47.692  13.593  52.330  1.00 13.79     0.019 C 
HETATM   36  C27 NH1 A 901      49.039  13.036  50.313  1.00 18.83     0.019 C 
ENDBRANCH  27  33
BRANCH  29  37
HETATM   37  N1  NH1 A 901      46.187  14.938  46.907  1.00 22.35    -0.399 N 
HETATM   38  H13 NH1 A 901      47.129  15.000  46.624  1.00 20.00     0.156 HD
HETATM   39  H14 NH1 A 901      45.491  15.142  46.250  1.00 20.00     0.156 HD
ENDBRANCH  29  37
ENDBRANCH  25  26
ENDBRANCH   7  25
TORSDOF 10
