REMARK  Name = 
REMARK  5 active torsions:
REMARK  status: ('A' for Active; 'I' for Inactive)
REMARK    1  A    between atoms: C_3  and  C_4
REMARK    2  A    between atoms: C_13  and  O_14
REMARK    3  A    between atoms: C_17  and  O_18
REMARK    4  A    between atoms: N_25  and  C_26
REMARK    5  A    between atoms: C_26  and  C_27
REMARK                            x       y       z     vdW  Elec       q    Type
REMARK                         _______ _______ _______ _____ _____    ______ ____
ROOT
ATOM      1  O   UNL     1       1.464  -0.681  -1.973  0.00  0.00    -0.267 OA
ATOM      2  C   UNL     1       2.594  -0.640  -1.501  0.00  0.00    +0.272 A 
ATOM      3  C   UNL     1       3.108  -1.822  -0.715  0.00  0.00    +0.170 A 
ATOM      4  C   UNL     1       4.454  -1.944  -0.775  0.00  0.00    +0.148 A 
ATOM      5  C   UNL     1       5.246  -0.851  -1.398  0.00  0.00    +0.060 A 
ATOM      6  C   UNL     1       6.582  -0.976  -1.765  0.00  0.00    +0.016 A 
ATOM      7  C   UNL     1       7.271   0.158  -2.189  0.00  0.00    +0.021 A 
ATOM      8  C   UNL     1       6.604   1.378  -2.211  0.00  0.00    +0.113 A 
ATOM      9  N   UNL     1       5.311   1.543  -1.852  0.00  0.00    -0.237 NA
ATOM     10  C   UNL     1       4.660   0.434  -1.456  0.00  0.00    +0.147 A 
ATOM     11  N   UNL     1       3.291   0.487  -1.056  0.00  0.00    -0.288 N 
ENDROOT
BRANCH   3  12
ATOM     12  C   UNL     1       2.329  -1.679   0.589  0.00  0.00    +0.308 C 
ATOM     13  N   UNL     1       1.005  -1.671   0.452  0.00  0.00    -0.131 N 
ATOM     14  S   UNL     1       0.054  -0.459   0.996  0.00  0.00    +0.141 S 
ATOM     15  O   UNL     1      -1.051  -0.279   0.079  0.00  0.00    -0.129 OA
ATOM     16  O   UNL     1      -0.191  -0.576   2.416  0.00  0.00    -0.129 OA
ATOM     17  C   UNL     1       1.107   0.936   0.756  0.00  0.00    +0.178 A 
ATOM     18  C   UNL     1       0.663   2.573   0.045  0.00  0.00    +0.035 A 
ATOM     19  C   UNL     1       1.973   3.818  -0.167  0.00  0.00    +0.006 A 
ATOM     20  C   UNL     1       3.714   3.403   0.229  0.00  0.00    +0.050 A 
ATOM     21  C   UNL     1       4.103   1.759   0.953  0.00  0.00    +0.164 A 
ATOM     22  C   UNL     1       2.785   0.567   1.286  0.00  0.00    +0.189 A 
ATOM     23  N   UNL     1       3.008  -0.825   1.530  0.00  0.00    -0.197 N 
ATOM     24  H   UNL     1       0.611  -2.103  -0.373  0.00  0.00    +0.339 HD
ATOM     25  H   UNL     1       3.987  -1.043   1.711  0.00  0.00    +0.299 HD
BRANCH  21  26
ATOM     26  O   UNL     1       5.396   1.479   1.291  0.00  0.00    -0.503 OA
ATOM     27  H   UNL     1       5.371   0.803   1.987  0.00  0.00    +0.292 HD
ENDBRANCH  21  26
ENDBRANCH   3  12
BRANCH   4  28
ATOM     28  O   UNL     1       5.172  -2.776   0.059  0.00  0.00    -0.505 OA
ATOM     29  H   UNL     1       4.655  -3.583   0.236  0.00  0.00    +0.292 HD
ENDBRANCH   4  28
BRANCH  11  30
ATOM     30  C   UNL     1       2.564   1.839  -0.431  0.00  0.00    +0.162 C 
BRANCH  30  31
ATOM     31  C   UNL     1       2.222   2.592   1.563  0.00  0.00    -0.028 A 
ATOM     32  C   UNL     1       0.930   2.643   2.417  0.00  0.00    +0.005 A 
ATOM     33  C   UNL     1       0.726   3.117   3.746  0.00  0.00    +0.000 A 
ATOM     34  C   UNL     1       1.753   3.657   4.479  0.00  0.00    +0.000 A 
ATOM     35  C   UNL     1       2.986   3.744   3.884  0.00  0.00    +0.000 A 
ATOM     36  C   UNL     1       3.202   3.270   2.559  0.00  0.00    +0.005 A 
ENDBRANCH  30  31
ENDBRANCH  11  30
TORSDOF 5
