
 OpenBabel09092210413D

 27 29  0  0  1  0  0  0  0  0999 V2000
    3.2520   -4.8150   -0.0060 N   0  0  0  0  0  0  0  0  0  0  0  0
    4.3920   -5.5900    0.0230 C   0  0  2  0  0  3  0  0  0  0  0  0
    4.6030   -6.5390    0.9380 N   0  0  0  0  0  0  0  0  0  0  0  0
    5.2410   -5.1970   -0.8910 N   0  0  0  0  0  2  0  0  0  0  0  0
    4.5300   -4.3860   -1.7320 C   0  0  0  0  0  0  0  0  0  0  0  0
    4.8970   -3.7920   -2.9580 C   0  0  0  0  0  3  0  0  0  0  0  0
    3.9640   -3.0450   -3.7000 C   0  0  0  0  0  3  0  0  0  0  0  0
    2.6870   -2.9440   -3.1650 C   0  0  0  0  0  0  0  0  0  0  0  0
    2.3140   -3.4690   -1.9210 C   0  0  0  0  0  0  0  0  0  0  0  0
    3.2520   -4.1740   -1.2230 C   0  0  0  0  0  0  0  0  0  0  0  0
    0.8860   -3.2370   -1.6700 C   0  0  0  0  0  2  0  0  0  0  0  0
    0.4510   -2.8360   -3.1060 C   0  0  2  0  0  3  0  0  0  0  0  0
    1.6310   -2.3400   -3.8240 O   0  0  0  0  0  0  0  0  0  0  0  0
    3.8650   -7.0340    1.4300 H   0  0  0  0  0  0  0  0  0  0  0  0
    5.4600   -7.0880    0.8520 H   0  0  0  0  0  0  0  0  0  0  0  0
    2.3840   -4.5400    1.1170 C   0  0  0  0  0  2  0  0  0  0  0  0
    2.9520   -3.6910    2.2730 C   0  0  0  0  0  2  0  0  0  0  0  0
    3.5620   -2.3080    2.0010 C   0  0  0  0  0  2  0  0  0  0  0  0
    5.7520   -1.9920    0.7970 C   0  0  0  0  0  1  0  0  0  0  0  0
    5.0650   -2.2460    2.1040 N   0  0  0  0  0  4  0  0  0  0  0  0
    5.4770   -1.2180    3.1400 C   0  0  0  0  0  1  0  0  0  0  0  0
    5.4070   -3.1300    2.5000 H   0  0  0  0  0  0  0  0  0  0  0  0
   -0.6250   -1.7460   -3.1530 C   0  0  0  0  0  2  0  0  0  0  0  0
   -0.0310   -0.3940   -2.7700 N   0  0  0  0  0  4  0  0  0  0  0  0
   -0.1110    0.6400   -3.8610 C   0  0  0  0  0  1  0  0  0  0  0  0
   -0.5990    0.1350   -1.4810 C   0  0  0  0  0  1  0  0  0  0  0  0
    0.9740   -0.5670   -2.6000 H   0  0  0  0  0  0  0  0  0  0  0  0
  1  2  1  0  0  0  0
  1 16  1  0  0  0  0
  2  3  1  1  0  0  0
  3 14  1  0  0  0  0
  4  2  1  0  0  0  0
  5 10  1  0  0  0  0
  5  4  1  0  0  0  0
  6  5  2  0  0  0  0
  7  8  2  0  0  0  0
  7  6  1  0  0  0  0
  8  9  1  0  0  0  0
  9 11  1  0  0  0  0
  9 10  2  0  0  0  0
 10  1  1  0  0  0  0
 12 23  1  1  0  0  0
 12 11  1  0  0  0  0
 13  8  1  0  0  0  0
 13 12  1  0  0  0  0
 15  3  1  0  0  0  0
 16 17  1  0  0  0  0
 18 20  1  0  0  0  0
 18 17  1  0  0  0  0
 19 20  1  0  0  0  0
 20 22  1  0  0  0  0
 20 21  1  0  0  0  0
 23 24  1  0  0  0  0
 24 27  1  0  0  0  0
 24 26  1  0  0  0  0
 25 24  1  0  0  0  0
M  END
>  <minimizedAffinity>
-2.15546799

$$$$
