
 OpenBabel09092210413D

 27 29  0  0  1  0  0  0  0  0999 V2000
    1.3150   -2.6260   -1.8820 N   0  0  0  0  0  0  0  0  0  0  0  0
    0.9390   -1.8630   -2.9670 C   0  0  2  0  0  3  0  0  0  0  0  0
   -0.1250   -1.0560   -2.9560 N   0  0  0  0  0  0  0  0  0  0  0  0
    1.7020   -2.1190   -3.9990 N   0  0  0  0  0  2  0  0  0  0  0  0
    2.7790   -2.8000   -3.5010 C   0  0  0  0  0  0  0  0  0  0  0  0
    3.9730   -3.2110   -4.1320 C   0  0  0  0  0  3  0  0  0  0  0  0
    4.9920   -3.8430   -3.3950 C   0  0  0  0  0  3  0  0  0  0  0  0
    4.7540   -4.0200   -2.0380 C   0  0  0  0  0  0  0  0  0  0  0  0
    3.5540   -3.6800   -1.4010 C   0  0  0  0  0  0  0  0  0  0  0  0
    2.5830   -3.0830   -2.1530 C   0  0  0  0  0  0  0  0  0  0  0  0
    3.6420   -3.9460    0.0410 C   0  0  0  0  0  2  0  0  0  0  0  0
    5.1790   -4.1350    0.1570 C   0  0  2  0  0  3  0  0  0  0  0  0
    5.6980   -4.5220   -1.1600 O   0  0  0  0  0  0  0  0  0  0  0  0
   -0.5170   -0.6380   -2.1180 H   0  0  0  0  0  0  0  0  0  0  0  0
   -0.2980   -0.5010   -3.7960 H   0  0  0  0  0  0  0  0  0  0  0  0
    0.4490   -3.0590   -0.8100 C   0  0  0  0  0  2  0  0  0  0  0  0
    0.2980   -2.1310    0.4130 C   0  0  0  0  0  2  0  0  0  0  0  0
    1.3700   -1.0790    0.7330 C   0  0  0  0  0  2  0  0  0  0  0  0
   -0.4920    0.5640    0.3020 C   0  0  0  0  0  1  0  0  0  0  0  0
    0.9870    0.3410    0.3950 N   0  0  0  0  0  4  0  0  0  0  0  0
    1.6180    1.3020    1.3830 C   0  0  0  0  0  1  0  0  0  0  0  0
    1.4250    0.5980   -0.4970 H   0  0  0  0  0  0  0  0  0  0  0  0
    5.6040   -5.2060    1.1670 C   0  0  0  0  0  2  0  0  0  0  0  0
    4.5180   -5.4050    2.2200 N   0  0  0  0  0  4  0  0  0  0  0  0
    4.1150   -6.8420    2.4200 C   0  0  0  0  0  1  0  0  0  0  0  0
    4.8670   -4.7540    3.5310 C   0  0  0  0  0  1  0  0  0  0  0  0
    3.6830   -4.9120    1.8600 H   0  0  0  0  0  0  0  0  0  0  0  0
  1 16  1  0  0  0  0
  2  3  1  6  0  0  0
  2  1  1  0  0  0  0
  3 14  1  0  0  0  0
  4  5  1  0  0  0  0
  4  2  1  0  0  0  0
  5 10  1  0  0  0  0
  6  5  2  0  0  0  0
  6  7  1  0  0  0  0
  7  8  2  0  0  0  0
  8  9  1  0  0  0  0
  8 13  1  0  0  0  0
  9 11  1  0  0  0  0
 10  1  1  0  0  0  0
 10  9  2  0  0  0  0
 11 12  1  0  0  0  0
 12 23  1  1  0  0  0
 13 12  1  0  0  0  0
 15  3  1  0  0  0  0
 16 17  1  0  0  0  0
 17 18  1  0  0  0  0
 19 20  1  0  0  0  0
 20 18  1  0  0  0  0
 20 21  1  0  0  0  0
 22 20  1  0  0  0  0
 23 24  1  0  0  0  0
 24 25  1  0  0  0  0
 24 26  1  0  0  0  0
 27 24  1  0  0  0  0
M  END
>  <minimizedAffinity>
-2.18895864

$$$$
