
 OpenBabel09092210413D

 27 29  0  0  1  0  0  0  0  0999 V2000
    3.7970   -2.2450    1.3730 N   0  0  0  0  0  0  0  0  0  0  0  0
    5.1560   -2.0260    1.4420 C   0  0  2  0  0  3  0  0  0  0  0  0
    5.7530   -1.4860    2.5080 N   0  0  0  0  0  0  0  0  0  0  0  0
    5.7310   -2.3270    0.3070 N   0  0  0  0  0  2  0  0  0  0  0  0
    4.8060   -3.0510   -0.3940 C   0  0  0  0  0  0  0  0  0  0  0  0
    4.9230   -3.7440   -1.6180 C   0  0  0  0  0  3  0  0  0  0  0  0
    3.8450   -4.4960   -2.1220 C   0  0  0  0  0  3  0  0  0  0  0  0
    2.6920   -4.5190   -1.3470 C   0  0  0  0  0  0  0  0  0  0  0  0
    2.5290   -3.7910   -0.1620 C   0  0  0  0  0  0  0  0  0  0  0  0
    3.5920   -3.0610    0.2860 C   0  0  0  0  0  0  0  0  0  0  0  0
    1.2190   -4.0730    0.4400 C   0  0  0  0  0  2  0  0  0  0  0  0
    0.8400   -5.3310   -0.3870 C   0  0  2  0  0  3  0  0  0  0  0  0
    1.5900   -5.2980   -1.6480 O   0  0  0  0  0  0  0  0  0  0  0  0
    5.3860   -1.5330    3.4540 H   0  0  0  0  0  0  0  0  0  0  0  0
    6.7700   -1.4020    2.4800 H   0  0  0  0  0  0  0  0  0  0  0  0
    2.7860   -1.5460    2.1340 C   0  0  0  0  0  2  0  0  0  0  0  0
    2.1350   -0.3020    1.4930 C   0  0  0  0  0  2  0  0  0  0  0  0
    2.7510    1.0910    1.6880 C   0  0  0  0  0  2  0  0  0  0  0  0
    0.8000    2.4160    0.8020 C   0  0  0  0  0  1  0  0  0  0  0  0
    2.2700    2.1400    0.7170 N   0  0  0  0  0  4  0  0  0  0  0  0
    3.0710    3.4160    0.8840 C   0  0  0  0  0  1  0  0  0  0  0  0
    2.5030    1.8390   -0.2380 H   0  0  0  0  0  0  0  0  0  0  0  0
   -0.6510   -5.4330   -0.7240 C   0  0  0  0  0  2  0  0  0  0  0  0
   -0.8710   -5.2610   -2.2250 N   0  0  0  0  0  4  0  0  0  0  0  0
   -1.6180   -6.3990   -2.8670 C   0  0  0  0  0  1  0  0  0  0  0  0
   -1.5050   -3.9390   -2.5620 C   0  0  0  0  0  1  0  0  0  0  0  0
    0.0730   -5.2510   -2.6470 H   0  0  0  0  0  0  0  0  0  0  0  0
  1  2  1  0  0  0  0
  1 16  1  0  0  0  0
  2  3  1  6  0  0  0
  3 14  1  0  0  0  0
  4  2  1  0  0  0  0
  5 10  1  0  0  0  0
  5  4  1  0  0  0  0
  6  5  2  0  0  0  0
  7  6  1  0  0  0  0
  7  8  2  0  0  0  0
  8  9  1  0  0  0  0
  9 10  2  0  0  0  0
  9 11  1  0  0  0  0
 10  1  1  0  0  0  0
 12 23  1  6  0  0  0
 12 11  1  0  0  0  0
 13  8  1  0  0  0  0
 13 12  1  0  0  0  0
 15  3  1  0  0  0  0
 17 18  1  0  0  0  0
 17 16  1  0  0  0  0
 20 19  1  0  0  0  0
 20 21  1  0  0  0  0
 20 18  1  0  0  0  0
 22 20  1  0  0  0  0
 24 23  1  0  0  0  0
 25 24  1  0  0  0  0
 26 24  1  0  0  0  0
 27 24  1  0  0  0  0
M  END
>  <minimizedAffinity>
-2.04376674

$$$$
