REMARK  Name = 
REMARK  10 active torsions:
REMARK  status: ('A' for Active; 'I' for Inactive)
REMARK    1  A    between atoms: C_1  and  N_2
REMARK    2  A    between atoms: N_2  and  C_3
REMARK    3  A    between atoms: N_2  and  C_4
REMARK    4  A    between atoms: C_4  and  C_5
REMARK    5  A    between atoms: C_5  and  C_6
REMARK    6  A    between atoms: C_6  and  N_7
REMARK    7  A    between atoms: C_18  and  C_19
REMARK    8  A    between atoms: C_19  and  N_20
REMARK    9  A    between atoms: N_20  and  C_21
REMARK   10  A    between atoms: N_20  and  C_22
REMARK                            x       y       z     vdW  Elec       q    Type
REMARK                         _______ _______ _______ _____ _____    ______ ____
ROOT
ATOM      1  N   UNL     1      -2.134  -2.577   1.976  0.00  0.00    -0.312 N 
ATOM      2  C   UNL     1      -2.561  -1.773   3.011  0.00  0.00    +0.194 A 
ATOM      3  N   UNL     1      -3.337  -0.701   2.828  0.00  0.00    -0.329 N 
ATOM      4  N   UNL     1      -2.027  -2.154   4.143  0.00  0.00    -0.215 NA
ATOM      5  C   UNL     1      -1.515  -3.400   3.908  0.00  0.00    +0.091 A 
ATOM      6  C   UNL     1      -0.946  -4.338   4.796  0.00  0.00    +0.033 A 
ATOM      7  C   UNL     1      -0.548  -5.608   4.339  0.00  0.00    +0.048 A 
ATOM      8  C   UNL     1      -0.758  -5.874   2.992  0.00  0.00    +0.127 A 
ATOM      9  C   UNL     1      -1.261  -4.940   2.077  0.00  0.00    +0.024 A 
ATOM     10  C   UNL     1      -1.621  -3.713   2.556  0.00  0.00    +0.077 A 
ATOM     11  C   UNL     1      -1.410  -5.548   0.749  0.00  0.00    +0.091 C 
ATOM     12  C   UNL     1      -1.264  -7.041   1.150  0.00  0.00    +0.223 C 
ATOM     13  O   UNL     1      -0.524  -7.109   2.415  0.00  0.00    -0.483 OA
ATOM     14  H   UNL     1      -3.973  -0.583   2.045  0.00  0.00    +0.145 HD
ATOM     15  H   UNL     1      -3.634  -0.193   3.662  0.00  0.00    +0.145 HD
ENDROOT
BRANCH   1  16
ATOM     16  C   UNL     1      -2.017  -2.184   0.590  0.00  0.00    +0.130 C 
BRANCH  16  17
ATOM     17  C   UNL     1      -1.504  -0.761   0.287  0.00  0.00    +0.072 C 
BRANCH  17  18
ATOM     18  C   UNL     1      -0.534  -0.058   1.248  0.00  0.00    +0.132 C 
BRANCH  18  20
ATOM     19  C   UNL     1       1.606  -1.231   0.621  0.00  0.00    +0.190 C 
ATOM     20  N   UNL     1       0.628  -0.902   1.708  0.00  0.00    +0.231 N 
ATOM     21  C   UNL     1       1.325  -0.240   2.880  0.00  0.00    +0.190 C 
ATOM     22  H   UNL     1       0.265  -1.774   2.111  0.00  0.00    +0.203 HD
ENDBRANCH  18  20
ENDBRANCH  17  18
ENDBRANCH  16  17
ENDBRANCH   1  16
BRANCH  12  23
ATOM     23  C   UNL     1      -0.520  -7.896   0.119  0.00  0.00    +0.176 C 
BRANCH  23  24
ATOM     24  N   UNL     1      -0.247  -9.289   0.679  0.00  0.00    +0.234 N 
ATOM     25  C   UNL     1      -1.461 -10.178   0.726  0.00  0.00    +0.190 C 
ATOM     26  C   UNL     1       0.897  -9.972  -0.020  0.00  0.00    +0.190 C 
ATOM     27  H   UNL     1       0.051  -9.144   1.659  0.00  0.00    +0.203 HD
ENDBRANCH  23  24
ENDBRANCH  12  23
TORSDOF 6
