@<TRIPOS>MOLECULE
*****
 23 25 0 0 0
SMALL
GASTEIGER

@<TRIPOS>ATOM
      1 C           0.0000    0.0000    0.0000 C.3     1  UNL11       0.0897
      2 N           0.0000    0.0000    0.0000 N.3     1  UNL11      -0.2703
      3 C           0.0000    0.0000    0.0000 C.3     1  UNL11       0.0897
      4 C           0.0000    0.0000    0.0000 C.3     1  UNL11       0.0742
      5 C           0.0000    0.0000    0.0000 C.3     1  UNL11       0.0419
      6 C           0.0000    0.0000    0.0000 C.3     1  UNL11       0.1102
      7 N           0.0000    0.0000    0.0000 N.ar    1  UNL11      -0.2973
      8 C           0.0000    0.0000    0.0000 C.ar    1  UNL11       0.2379
      9 N           0.0000    0.0000    0.0000 N.pl3   1  UNL11      -0.0878
     10 N           0.0000    0.0000    0.0000 N.ar    1  UNL11      -0.2111
     11 C           0.0000    0.0000    0.0000 C.ar    1  UNL11       0.0999
     12 C           0.0000    0.0000    0.0000 C.ar    1  UNL11       0.0238
     13 C           0.0000    0.0000    0.0000 C.ar    1  UNL11       0.0382
     14 C           0.0000    0.0000    0.0000 C.ar    1  UNL11       0.1360
     15 C           0.0000    0.0000    0.0000 C.ar    1  UNL11       0.0327
     16 C           0.0000    0.0000    0.0000 C.ar    1  UNL11       0.0789
     17 C           0.0000    0.0000    0.0000 C.3     1  UNL11       0.0759
     18 C           0.0000    0.0000    0.0000 C.3     1  UNL11       0.1862
     19 C           0.0000    0.0000    0.0000 C.3     1  UNL11       0.1166
     20 N           0.0000    0.0000    0.0000 N.3     1  UNL11      -0.2673
     21 C           0.0000    0.0000    0.0000 C.3     1  UNL11       0.0898
     22 C           0.0000    0.0000    0.0000 C.3     1  UNL11       0.0898
     23 O           0.0000    0.0000    0.0000 O.3     1  UNL11      -0.4777
@<TRIPOS>BOND
     1     1     2    1
     2     2     3    1
     3     2     4    1
     4     4     5    1
     5     5     6    1
     6     6     7    1
     7     7     8   ar
     8     8     9    1
     9     8    10   ar
    10    10    11   ar
    11    11    12   ar
    12    12    13   ar
    13    13    14   ar
    14    14    15   ar
    15    15    16   ar
    16    11    16   ar
    17     7    16   ar
    18    15    17    1
    19    17    18    1
    20    18    19    1
    21    19    20    1
    22    20    21    1
    23    20    22    1
    24    18    23    1
    25    14    23    1
