
 OpenBabel09092210413D

 27 29  0  0  1  0  0  0  0  0999 V2000
    2.2160   -3.7240   -0.4360 N   0  0  0  0  0  0  0  0  0  0  0  0
    2.7990   -4.5820   -1.3450 C   0  0  2  0  0  3  0  0  0  0  0  0
    2.1060   -5.2240   -2.2890 N   0  0  0  0  0  0  0  0  0  0  0  0
    4.0720   -4.7360   -1.0840 N   0  0  0  0  0  2  0  0  0  0  0  0
    4.3940   -3.7310   -0.2140 C   0  0  0  0  0  0  0  0  0  0  0  0
    5.6470   -3.3300    0.2980 C   0  0  0  0  0  3  0  0  0  0  0  0
    5.7530   -2.2040    1.1340 C   0  0  0  0  0  3  0  0  0  0  0  0
    4.5730   -1.5230    1.4060 C   0  0  0  0  0  0  0  0  0  0  0  0
    3.3090   -1.9350    0.9640 C   0  0  0  0  0  0  0  0  0  0  0  0
    3.2460   -3.0420    0.1670 C   0  0  0  0  0  0  0  0  0  0  0  0
    2.2790   -0.9740    1.3770 C   0  0  0  0  0  2  0  0  0  0  0  0
    3.2020    0.2050    1.7900 C   0  0  2  0  0  3  0  0  0  0  0  0
    4.5250   -0.3380    2.1180 O   0  0  0  0  0  0  0  0  0  0  0  0
    1.2260   -4.8940   -2.6750 H   0  0  0  0  0  0  0  0  0  0  0  0
    2.6340   -5.8050   -2.9400 H   0  0  0  0  0  0  0  0  0  0  0  0
    0.8300   -3.7370   -0.0280 C   0  0  0  0  0  2  0  0  0  0  0  0
   -0.1690   -2.8920   -0.8460 C   0  0  0  0  0  2  0  0  0  0  0  0
    0.3170   -1.6960   -1.6790 C   0  0  0  0  0  2  0  0  0  0  0  0
    1.5950   -1.9750   -3.8320 C   0  0  0  0  0  1  0  0  0  0  0  0
    0.2520   -1.8950   -3.1720 N   0  0  0  0  0  4  0  0  0  0  0  0
   -0.5860   -3.1130   -3.5030 C   0  0  0  0  0  1  0  0  0  0  0  0
   -0.2820   -1.1210   -3.5860 H   0  0  0  0  0  0  0  0  0  0  0  0
    2.7010    0.9970    3.0020 C   0  0  0  0  0  2  0  0  0  0  0  0
    2.7080    2.4930    2.7010 N   0  0  0  0  0  4  0  0  0  0  0  0
    3.7880    3.2560    3.4210 C   0  0  0  0  0  1  0  0  0  0  0  0
    2.7360    2.7790    1.2240 C   0  0  0  0  0  1  0  0  0  0  0  0
    1.8050    2.8540    3.0550 H   0  0  0  0  0  0  0  0  0  0  0  0
  1 16  1  0  0  0  0
  1 10  1  0  0  0  0
  2  3  1  1  0  0  0
  2  4  1  0  0  0  0
  2  1  1  0  0  0  0
  4  5  1  0  0  0  0
  5 10  2  0  0  0  0
  5  6  1  0  0  0  0
  6  7  2  0  0  0  0
  7  8  1  0  0  0  0
  8 13  1  0  0  0  0
  9 11  1  0  0  0  0
  9  8  2  0  0  0  0
 10  9  1  0  0  0  0
 11 12  1  0  0  0  0
 12 13  1  0  0  0  0
 12 23  1  1  0  0  0
 14  3  1  0  0  0  0
 15  3  1  0  0  0  0
 17 16  1  0  0  0  0
 18 17  1  0  0  0  0
 19 20  1  0  0  0  0
 20 18  1  0  0  0  0
 21 20  1  0  0  0  0
 22 20  1  0  0  0  0
 24 23  1  0  0  0  0
 24 27  1  0  0  0  0
 24 25  1  0  0  0  0
 26 24  1  0  0  0  0
M  END
>  <minimizedAffinity>
-2.18585062

$$$$
