
 OpenBabel09092210413D

 27 29  0  0  1  0  0  0  0  0999 V2000
    3.3000   -0.6860    2.6520 N   0  0  0  0  0  0  0  0  0  0  0  0
    4.4340   -0.4990    3.4130 C   0  0  2  0  0  3  0  0  0  0  0  0
    4.4140    0.0620    4.6250 N   0  0  0  0  0  0  0  0  0  0  0  0
    5.5020   -0.8540    2.7450 N   0  0  0  0  0  2  0  0  0  0  0  0
    5.0460   -1.5780    1.6780 C   0  0  0  0  0  0  0  0  0  0  0  0
    5.7530   -2.3140    0.7030 C   0  0  0  0  0  3  0  0  0  0  0  0
    5.0630   -3.0560   -0.2740 C   0  0  0  0  0  3  0  0  0  0  0  0
    3.6760   -3.0240   -0.2100 C   0  0  0  0  0  0  0  0  0  0  0  0
    2.9510   -2.2510    0.7070 C   0  0  0  0  0  0  0  0  0  0  0  0
    3.6560   -1.5330    1.6290 C   0  0  0  0  0  0  0  0  0  0  0  0
    1.5100   -2.4790    0.5460 C   0  0  0  0  0  2  0  0  0  0  0  0
    1.5650   -3.7560   -0.3370 C   0  0  2  0  0  3  0  0  0  0  0  0
    2.8590   -3.7840   -1.0260 O   0  0  0  0  0  0  0  0  0  0  0  0
    3.6080    0.0560    5.2440 H   0  0  0  0  0  0  0  0  0  0  0  0
    5.3010    0.1190    5.1270 H   0  0  0  0  0  0  0  0  0  0  0  0
    2.0700    0.0640    2.7660 C   0  0  0  0  0  2  0  0  0  0  0  0
    2.0690    1.5240    2.2690 C   0  0  0  0  0  2  0  0  0  0  0  0
    1.2000    1.9420    1.0730 C   0  0  0  0  0  2  0  0  0  0  0  0
    0.9780    3.9810   -0.3910 C   0  0  0  0  0  1  0  0  0  0  0  0
    1.8690    2.8800    0.0990 N   0  0  0  0  0  4  0  0  0  0  0  0
    3.1410    3.4420    0.7020 C   0  0  0  0  0  1  0  0  0  0  0  0
    2.2080    2.3370   -0.7040 H   0  0  0  0  0  0  0  0  0  0  0  0
    0.4610   -3.8310   -1.3970 C   0  0  0  0  0  2  0  0  0  0  0  0
    0.0320   -2.4290   -1.8210 N   0  0  0  0  0  4  0  0  0  0  0  0
    0.6710   -1.9540   -3.0980 C   0  0  0  0  0  1  0  0  0  0  0  0
   -1.4640   -2.2820   -1.8760 C   0  0  0  0  0  1  0  0  0  0  0  0
    0.3630   -1.7960   -1.0720 H   0  0  0  0  0  0  0  0  0  0  0  0
  1 16  1  0  0  0  0
  1  2  1  0  0  0  0
  2  3  1  6  0  0  0
  3 15  1  0  0  0  0
  3 14  1  0  0  0  0
  4  2  1  0  0  0  0
  5  4  1  0  0  0  0
  6  5  2  0  0  0  0
  7  8  2  0  0  0  0
  7  6  1  0  0  0  0
  8  9  1  0  0  0  0
  9 10  2  0  0  0  0
 10  5  1  0  0  0  0
 10  1  1  0  0  0  0
 11  9  1  0  0  0  0
 12 23  1  6  0  0  0
 12 11  1  0  0  0  0
 13 12  1  0  0  0  0
 13  8  1  0  0  0  0
 17 16  1  0  0  0  0
 18 17  1  0  0  0  0
 19 20  1  0  0  0  0
 20 21  1  0  0  0  0
 20 18  1  0  0  0  0
 22 20  1  0  0  0  0
 24 23  1  0  0  0  0
 24 27  1  0  0  0  0
 25 24  1  0  0  0  0
 26 24  1  0  0  0  0
M  END
>  <minimizedAffinity>
-2.1793592

$$$$
