REMARK  Name = 
REMARK  10 active torsions:
REMARK  status: ('A' for Active; 'I' for Inactive)
REMARK    1  A    between atoms: C_1  and  O_2
REMARK    2  A    between atoms: O_2  and  C_3
REMARK    3  A    between atoms: C_6  and  C_7
REMARK    4  A    between atoms: C_7  and  C_8
REMARK    5  A    between atoms: C_7  and  N_9
REMARK    6  A    between atoms: C_10  and  C_12
REMARK    7  A    between atoms: C_19  and  C_20
REMARK    8  A    between atoms: N_26  and  C_27
REMARK    9  A    between atoms: C_34  and  O_35
REMARK   10  A    between atoms: O_35  and  C_36
REMARK                            x       y       z     vdW  Elec       q    Type
REMARK                         _______ _______ _______ _____ _____    ______ ____
ROOT
ATOM      1  C   UNL     1       3.048   1.759   7.771  0.00  0.00    +0.039 A 
ATOM      2  C   UNL     1       4.153   0.906   7.712  0.00  0.00    +0.015 A 
ATOM      3  C   UNL     1       5.455   1.415   7.784  0.00  0.00    +0.029 A 
ATOM      4  C   UNL     1       5.598   2.805   7.920  0.00  0.00    +0.069 A 
ATOM      5  C   UNL     1       4.503   3.655   8.011  0.00  0.00    +0.090 A 
ATOM      6  C   UNL     1       3.203   3.137   7.957  0.00  0.00    +0.043 A 
ATOM      7  N   UNL     1       4.904   4.951   8.142  0.00  0.00    -0.226 NA
ATOM      8  C   UNL     1       6.230   4.941   8.189  0.00  0.00    +0.160 A 
ATOM      9  N   UNL     1       6.701   3.648   7.995  0.00  0.00    -0.319 N 
ENDROOT
BRANCH   8  10
ATOM     10  C   UNL     1       7.017   6.165   8.393  0.00  0.00    +0.106 A 
ATOM     11  C   UNL     1       6.548   7.388   7.920  0.00  0.00    +0.031 A 
ATOM     12  C   UNL     1       7.295   8.537   8.163  0.00  0.00    +0.004 A 
ATOM     13  C   UNL     1       8.479   8.436   8.881  0.00  0.00    +0.020 A 
ATOM     14  C   UNL     1       8.866   7.185   9.328  0.00  0.00    +0.111 A 
ATOM     15  N   UNL     1       8.165   6.051   9.100  0.00  0.00    -0.252 NA
ENDBRANCH   8  10
BRANCH   9  16
ATOM     16  C   UNL     1       8.073   3.172   7.812  0.00  0.00    +0.089 C 
ATOM     17  C   UNL     1       8.906   3.945   6.773  0.00  0.00    +0.025 C 
ATOM     18  C   UNL     1      10.283   3.310   6.584  0.00  0.00    +0.002 C 
ATOM     19  C   UNL     1      11.014   3.149   7.914  0.00  0.00    +0.000 C 
ATOM     20  C   UNL     1      10.197   2.330   8.908  0.00  0.00    +0.002 C 
ATOM     21  C   UNL     1       8.810   2.930   9.138  0.00  0.00    +0.025 C 
ENDBRANCH   9  16
BRANCH   1  23
ATOM     22  N   UNL     1       0.860   1.539   6.662  0.00  0.00    -0.305 N 
ATOM     23  C   UNL     1       1.699   1.171   7.680  0.00  0.00    +0.245 C 
ATOM     24  O   UNL     1       1.352   0.328   8.501  0.00  0.00    -0.270 OA
ATOM     25  H   UNL     1      -0.057   1.118   6.739  0.00  0.00    +0.150 HD
BRANCH  22  26
ATOM     26  C   UNL     1       1.121   2.391   5.506  0.00  0.00    +0.101 C 
ATOM     27  C   UNL     1       0.620   1.710   4.231  0.00  0.00    +0.033 C 
BRANCH  26  31
ATOM     28  C   UNL     1      -0.660   6.322   5.999  0.00  0.00    +0.162 A 
ATOM     29  C   UNL     1      -1.444   5.174   6.125  0.00  0.00    +0.050 A 
ATOM     30  C   UNL     1      -0.880   3.904   5.967  0.00  0.00    +0.009 A 
ATOM     31  C   UNL     1       0.486   3.757   5.682  0.00  0.00    -0.024 A 
ATOM     32  C   UNL     1       1.271   4.915   5.569  0.00  0.00    +0.054 A 
ATOM     33  C   UNL     1       0.710   6.182   5.764  0.00  0.00    +0.162 A 
BRANCH  28  35
ATOM     34  C   UNL     1      -0.942   8.550   5.301  0.00  0.00    +0.277 C 
ATOM     35  O   UNL     1      -1.329   7.502   6.185  0.00  0.00    -0.491 OA
ENDBRANCH  28  35
BRANCH  33  36
ATOM     36  O   UNL     1       1.553   7.262   5.705  0.00  0.00    -0.491 OA
ATOM     37  C   UNL     1       2.102   7.508   7.003  0.00  0.00    +0.277 C 
ENDBRANCH  33  36
ENDBRANCH  26  31
ENDBRANCH  22  26
ENDBRANCH   1  23
TORSDOF 7
