
 OpenBabel09122222393D

 37 41  0  0  1  0  0  0  0  0999 V2000
    9.1610   -2.2350    8.9800 C   0  0  0  0  0  0  0  0  0  0  0  0
    8.4370   -2.1010    7.7920 C   0  0  0  0  0  3  0  0  0  0  0  0
    7.0390   -2.0390    7.8090 C   0  0  0  0  0  3  0  0  0  0  0  0
    6.4040   -2.1140    9.0600 C   0  0  0  0  0  0  0  0  0  0  0  0
    7.1200   -2.2150   10.2460 C   0  0  0  0  0  0  0  0  0  0  0  0
    8.5200   -2.2570   10.2230 C   0  0  0  0  0  3  0  0  0  0  0  0
    6.2790   -2.2660   11.3170 N   0  0  0  0  0  0  0  0  0  0  0  0
    5.0450   -2.1470   10.8440 C   0  0  0  0  0  0  0  0  0  0  0  0
    5.0720   -2.1120    9.4550 N   0  0  0  0  0  0  0  0  0  0  0  0
    3.8690   -2.0940   11.7240 C   0  0  0  0  0  0  0  0  0  0  0  0
    3.2740   -0.8720   12.0280 C   0  0  0  0  0  3  0  0  0  0  0  0
    2.1380   -0.8560   12.8310 C   0  0  0  0  0  3  0  0  0  0  0  0
    1.6200   -2.0570   13.2960 C   0  0  0  0  0  3  0  0  0  0  0  0
    2.2630   -3.2280   12.9360 C   0  0  0  0  0  3  0  0  0  0  0  0
    3.3730   -3.2730   12.1640 N   0  0  0  0  0  0  0  0  0  0  0  0
    3.9640   -2.1440    8.4990 C   0  0  0  0  0  3  0  0  0  0  0  0
    3.6320   -0.7990    7.8280 C   0  0  0  0  0  2  0  0  0  0  0  0
    2.4030   -0.9170    6.9280 C   0  0  0  0  0  2  0  0  0  0  0  0
    2.5530   -2.0510    5.9180 C   0  0  0  0  0  2  0  0  0  0  0  0
    2.8220   -3.3850    6.6080 C   0  0  0  0  0  2  0  0  0  0  0  0
    4.0500   -3.3210    7.5150 C   0  0  0  0  0  2  0  0  0  0  0  0
   11.3760   -1.1580    8.9770 N   0  0  0  0  0  0  0  0  0  0  0  0
   10.6320   -2.3050    8.9030 C   0  0  0  0  0  0  0  0  0  0  0  0
   11.1790   -3.3990    8.8090 O   0  0  0  0  0  0  0  0  0  0  0  0
   12.3660   -1.3250    8.8510 H   0  0  0  0  0  0  0  0  0  0  0  0
   10.9470    0.2110    9.2440 C   0  0  1  0  0  3  0  0  0  0  0  0
   11.9790    0.9200   10.1240 C   0  0  0  0  0  1  0  0  0  0  0  0
   10.2520    2.4090    5.5630 C   0  0  0  0  0  0  0  0  0  0  0  0
   11.3540    1.5600    5.6780 C   0  0  0  0  0  3  0  0  0  0  0  0
   11.5870    0.8490    6.8590 C   0  0  0  0  0  3  0  0  0  0  0  0
   10.7160    0.9710    7.9530 C   0  0  0  0  0  0  0  0  0  0  0  0
    9.6030    1.8170    7.8260 C   0  0  0  0  0  3  0  0  0  0  0  0
    9.3540    2.4980    6.6290 C   0  0  0  0  0  0  0  0  0  0  0  0
   10.2830    2.1880    3.2220 C   0  0  0  0  0  1  0  0  0  0  0  0
   10.1310    3.0400    4.3540 O   0  0  0  0  0  0  0  0  0  0  0  0
    8.2100    3.2520    6.5580 O   0  0  0  0  0  0  0  0  0  0  0  0
    7.9860    3.8950    7.8160 C   0  0  0  0  0  1  0  0  0  0  0  0
  1  6  1  0  0  0  0
  2  3  1  0  0  0  0
  2  1  2  0  0  0  0
  3  4  2  0  0  0  0
  4  9  1  0  0  0  0
  4  5  1  0  0  0  0
  5  7  1  0  0  0  0
  6  5  2  0  0  0  0
  8  7  2  0  0  0  0
  8 10  1  0  0  0  0
  9  8  1  0  0  0  0
 10 11  2  0  0  0  0
 10 15  1  0  0  0  0
 11 12  1  0  0  0  0
 12 13  2  0  0  0  0
 14 13  1  0  0  0  0
 15 14  2  0  0  0  0
 16  9  1  0  0  0  0
 17 16  1  0  0  0  0
 18 17  1  0  0  0  0
 19 20  1  0  0  0  0
 19 18  1  0  0  0  0
 20 21  1  0  0  0  0
 21 16  1  0  0  0  0
 22 26  1  0  0  0  0
 23 22  1  0  0  0  0
 23  1  1  0  0  0  0
 24 23  2  0  0  0  0
 25 22  1  0  0  0  0
 26 27  1  1  0  0  0
 28 29  2  0  0  0  0
 28 33  1  0  0  0  0
 29 30  1  0  0  0  0
 30 31  2  0  0  0  0
 31 26  1  0  0  0  0
 32 31  1  0  0  0  0
 33 32  2  0  0  0  0
 34 35  1  0  0  0  0
 35 28  1  0  0  0  0
 36 33  1  0  0  0  0
 36 37  1  0  0  0  0
M  END
>  <minimizedAffinity>
-6.51741886

$$$$
