
 OpenBabel09122222393D

 37 41  0  0  1  0  0  0  0  0999 V2000
    8.9870   -0.3150    8.6370 C   0  0  0  0  0  0  0  0  0  0  0  0
    8.2210   -0.5280    7.4880 C   0  0  0  0  0  3  0  0  0  0  0  0
    6.8630   -0.8570    7.5840 C   0  0  0  0  0  3  0  0  0  0  0  0
    6.3130   -0.9590    8.8710 C   0  0  0  0  0  0  0  0  0  0  0  0
    7.0610   -0.7170   10.0160 C   0  0  0  0  0  0  0  0  0  0  0  0
    8.4140   -0.3700    9.9130 C   0  0  0  0  0  3  0  0  0  0  0  0
    6.3010   -0.8750   11.1360 N   0  0  0  0  0  0  0  0  0  0  0  0
    5.0710   -1.1610   10.7290 C   0  0  0  0  0  0  0  0  0  0  0  0
    5.0460   -1.2820    9.3450 N   0  0  0  0  0  0  0  0  0  0  0  0
    3.9540   -1.3350   11.6680 C   0  0  0  0  0  0  0  0  0  0  0  0
    3.3880   -0.2300   12.2990 C   0  0  0  0  0  3  0  0  0  0  0  0
    2.3050   -0.4210   13.1520 C   0  0  0  0  0  3  0  0  0  0  0  0
    1.8100   -1.7040   13.3420 C   0  0  0  0  0  3  0  0  0  0  0  0
    2.4210   -2.7460   12.6650 C   0  0  0  0  0  3  0  0  0  0  0  0
    3.4790   -2.5910   11.8370 N   0  0  0  0  0  0  0  0  0  0  0  0
    3.9660   -1.7340    8.4660 C   0  0  0  0  0  3  0  0  0  0  0  0
    3.3620   -0.6510    7.5530 C   0  0  0  0  0  2  0  0  0  0  0  0
    2.1810   -1.1980    6.7530 C   0  0  0  0  0  2  0  0  0  0  0  0
    2.5590   -2.4620    5.9860 C   0  0  0  0  0  2  0  0  0  0  0  0
    3.0990   -3.5430    6.9170 C   0  0  0  0  0  2  0  0  0  0  0  0
    4.2900   -3.0470    7.7370 C   0  0  0  0  0  2  0  0  0  0  0  0
   10.7790    1.2260    7.9450 N   0  0  0  0  0  0  0  0  0  0  0  0
   10.4140    0.0190    8.4800 C   0  0  0  0  0  0  0  0  0  0  0  0
   11.2650   -0.7780    8.8630 O   0  0  0  0  0  0  0  0  0  0  0  0
   11.7800    1.3160    7.8300 H   0  0  0  0  0  0  0  0  0  0  0  0
    9.9480    2.3670    7.5760 C   0  0  1  0  0  3  0  0  0  0  0  0
   10.2230    3.5410    8.5170 C   0  0  0  0  0  1  0  0  0  0  0  0
   10.5990    3.5370    3.4440 C   0  0  0  0  0  0  0  0  0  0  0  0
   10.6060    2.1880    3.8020 C   0  0  0  0  0  3  0  0  0  0  0  0
   10.3990    1.8010    5.1300 C   0  0  0  0  0  3  0  0  0  0  0  0
   10.1750    2.7610    6.1290 C   0  0  0  0  0  0  0  0  0  0  0  0
   10.1560    4.1150    5.7600 C   0  0  0  0  0  3  0  0  0  0  0  0
   10.3280    4.4950    4.4240 C   0  0  0  0  0  0  0  0  0  0  0  0
   10.2180    2.8270    1.2350 C   0  0  0  0  0  1  0  0  0  0  0  0
   10.8050    3.7830    2.1130 O   0  0  0  0  0  0  0  0  0  0  0  0
   10.2290    5.8310    4.1300 O   0  0  0  0  0  0  0  0  0  0  0  0
   11.4040    6.5070    4.5880 C   0  0  0  0  0  1  0  0  0  0  0  0
  1  6  1  0  0  0  0
  2  3  1  0  0  0  0
  2  1  2  0  0  0  0
  3  4  2  0  0  0  0
  4  9  1  0  0  0  0
  4  5  1  0  0  0  0
  5  7  1  0  0  0  0
  6  5  2  0  0  0  0
  8  7  2  0  0  0  0
  8 10  1  0  0  0  0
  9  8  1  0  0  0  0
 10 15  2  0  0  0  0
 10 11  1  0  0  0  0
 11 12  2  0  0  0  0
 12 13  1  0  0  0  0
 14 13  2  0  0  0  0
 15 14  1  0  0  0  0
 16  9  1  0  0  0  0
 17 16  1  0  0  0  0
 18 17  1  0  0  0  0
 19 18  1  0  0  0  0
 19 20  1  0  0  0  0
 20 21  1  0  0  0  0
 21 16  1  0  0  0  0
 22 23  1  0  0  0  0
 23  1  1  0  0  0  0
 23 24  2  0  0  0  0
 25 22  1  0  0  0  0
 26 22  1  0  0  0  0
 26 27  1  1  0  0  0
 28 29  2  0  0  0  0
 28 33  1  0  0  0  0
 29 30  1  0  0  0  0
 30 31  2  0  0  0  0
 31 26  1  0  0  0  0
 32 31  1  0  0  0  0
 33 32  2  0  0  0  0
 34 35  1  0  0  0  0
 35 28  1  0  0  0  0
 36 33  1  0  0  0  0
 36 37  1  0  0  0  0
M  END
>  <minimizedAffinity>
-6.26381254

$$$$
