REMARK  7 active torsions:
REMARK  status: ('A' for Active; 'I' for Inactive)
REMARK    1  A    between atoms: C6_6  and  O36_36 
REMARK    2  A    between atoms: N7_7  and  C16_17 
REMARK    3  A    between atoms: C8_8  and  C18_19 
REMARK    4  A    between atoms: C16_17  and  C17_18 
REMARK    5  A    between atoms: C21_22  and  O24_25 
REMARK    6  A    between atoms: O24_25  and  C25_26 
REMARK    7  A    between atoms: C25_26  and  C26_27 
ROOT
HETATM    1  C1  XNC A 579      32.318   6.404  36.551  1.00 15.81     0.039 A 
HETATM    2  C2  XNC A 579      32.089   7.319  37.548  1.00 15.90     0.005 A 
HETATM    3  C3  XNC A 579      30.828   7.374  38.126  1.00 16.92     0.032 A 
HETATM    4  C4  XNC A 579      29.796   6.532  37.685  1.00 16.49     0.068 A 
HETATM    5  C5  XNC A 579      30.043   5.616  36.656  1.00 14.31     0.093 A 
HETATM    6  C6  XNC A 579      31.311   5.555  36.107  1.00 15.09     0.094 A 
HETATM    7  N7  XNC A 579      28.499   6.620  38.261  1.00 15.65    -0.296 N 
HETATM    8  C8  XNC A 579      27.378   6.922  37.346  1.00 15.54     0.176 C 
HETATM    9  C9  XNC A 579      26.906   5.641  36.709  1.00 13.43     0.087 C 
HETATM   10  C10 XNC A 579      27.702   4.677  36.187  1.00 15.75     0.030 C 
HETATM   11  N11 XNC A 579      29.090   4.711  36.160  1.00 15.13    -0.354 N 
HETATM   12  H11 XNC A 579      29.504   3.912  35.680  1.00  0.00     0.166 HD
HETATM   13  S12 XNC A 579      25.201   5.508  36.712  1.00 15.35     0.176 S 
HETATM   14  C13 XNC A 579      24.763   3.964  35.888  1.00 14.79     0.154 C 
HETATM   15  C14 XNC A 579      25.762   3.566  34.806  1.00 15.29    -0.029 C 
HETATM   16  C15 XNC A 579      27.125   3.433  35.527  1.00 14.98     0.068 C 
HETATM   17  O32 XNC A 579      24.659   6.679  36.027  1.00 13.62    -0.223 OA
HETATM   18  O33 XNC A 579      24.674   5.504  38.056  1.00 16.88    -0.223 OA
HETATM   19  C37 XNC A 579      25.344   2.190  34.231  1.00 13.26     0.016 C 
HETATM   20  C38 XNC A 579      25.835   4.618  33.666  1.00 13.13     0.016 C 
ENDROOT
BRANCH   8  21
HETATM   21  C18 XNC A 579      27.867   8.041  36.396  1.00 13.58     0.009 A 
HETATM   22  C19 XNC A 579      28.042   7.826  35.030  1.00 14.44     0.015 A 
HETATM   23  C20 XNC A 579      28.479   8.856  34.205  1.00 15.93     0.037 A 
HETATM   24  C21 XNC A 579      28.735  10.129  34.733  1.00 15.17     0.072 A 
HETATM   25  C22 XNC A 579      28.555  10.346  36.100  1.00 15.78     0.079 A 
HETATM   26  C23 XNC A 579      28.125   9.301  36.920  1.00 15.46     0.127 A 
HETATM   27  F34 XNC A 579      27.937   9.496  38.223  1.00 17.25    -0.205 F 
BRANCH  24  28
HETATM   28  O24 XNC A 579      29.179  11.170  33.958  1.00 15.99    -0.347 OA
BRANCH  28  29
HETATM   29  C25 XNC A 579      29.440  11.041  32.543  1.00 16.11     0.214 C 
BRANCH  29  30
HETATM   30  C26 XNC A 579      28.132  10.929  31.772  1.00 15.04    -0.034 A 
HETATM   31  C27 XNC A 579      27.030  11.707  32.137  1.00 14.47     0.009 A 
HETATM   32  C28 XNC A 579      25.835  11.580  31.440  1.00 16.72     0.001 A 
HETATM   33  C29 XNC A 579      25.729  10.663  30.382  1.00 17.30     0.000 A 
HETATM   34  C30 XNC A 579      26.826   9.888  30.034  1.00 14.44     0.001 A 
HETATM   35  C31 XNC A 579      28.023  10.031  30.726  1.00 14.06     0.009 A 
ENDBRANCH  29  30
ENDBRANCH  28  29
ENDBRANCH  24  28
ENDBRANCH   8  21
BRANCH   7  36
HETATM   36  C16 XNC A 579      28.235   6.429  39.628  1.00 18.77     0.276 C 
HETATM   37  O35 XNC A 579      27.209   6.840  40.146  1.00 22.66    -0.265 OA
BRANCH  36  38
HETATM   38  C17 XNC A 579      29.210   5.728  40.502  1.00 17.69     0.101 A 
HETATM   39  N39 XNC A 579      29.720   6.416  41.604  1.00 19.82    -0.356 N 
HETATM   40  C40 XNC A 579      30.644   5.834  42.448  1.00 18.29     0.005 A 
HETATM   41  H39 XNC A 579      29.404   7.368  41.789  1.00  0.00     0.166 HD
HETATM   42  C44 XNC A 579      31.151   6.608  43.635  1.00 18.34     0.068 C 
HETATM   43  C41 XNC A 579      31.046   4.534  42.185  1.00 18.81     0.024 A 
HETATM   44  C42 XNC A 579      30.543   3.833  41.074  1.00 18.27     0.004 A 
HETATM   45  C43 XNC A 579      29.629   4.439  40.216  1.00 16.67     0.035 A 
ENDBRANCH  36  38
ENDBRANCH   7  36
BRANCH   6  46
HETATM   46  O36 XNC A 579      31.604   4.678  35.105  1.00 16.35    -0.358 OA
HETATM   47  H36 XNC A 579      30.916   4.098  34.802  1.00  0.00     0.217 HD
ENDBRANCH   6  46
TORSDOF 6
