REMARK  Name = 
REMARK  18 active torsions:
REMARK  status: ('A' for Active; 'I' for Inactive)
REMARK    1  A    between atoms: C_1  and  O_2
REMARK    2  A    between atoms: O_2  and  P_3
REMARK    3  A    between atoms: P_3  and  O_5
REMARK    4  A    between atoms: P_3  and  O_7
REMARK    5  A    between atoms: O_5  and  C_6
REMARK    6  A    between atoms: O_7  and  P_8
REMARK    7  A    between atoms: P_8  and  O_10
REMARK    8  A    between atoms: P_8  and  O_12
REMARK    9  A    between atoms: O_10  and  C_11
REMARK   10  A    between atoms: O_12  and  P_13
REMARK   11  A    between atoms: P_13  and  O_15
REMARK   12  A    between atoms: P_13  and  O_17
REMARK   13  A    between atoms: O_15  and  C_16
REMARK   14  A    between atoms: O_17  and  C_18
REMARK   15  A    between atoms: C_18  and  C_19
REMARK   16  A    between atoms: C_21  and  N_22
REMARK   17  A    between atoms: C_33  and  C_34
REMARK   18  A    between atoms: C_36  and  O_37
REMARK                            x       y       z     vdW  Elec       q    Type
REMARK                         _______ _______ _______ _____ _____    ______ ____
ROOT
ATOM      1  C   UNL     1      -0.811  -9.174   1.576  0.00  0.00    +0.179 C 
ATOM      2  O   UNL     1      -1.693  -8.110   1.147  0.00  0.00    -0.345 OA
ATOM      3  C   UNL     1      -2.401  -7.618   2.312  0.00  0.00    +0.260 C 
ATOM      4  C   UNL     1      -2.464  -8.787   3.296  0.00  0.00    +0.181 C 
ATOM      5  C   UNL     1      -3.613  -9.763   3.079  0.00  0.00    +0.055 C 
ATOM      6  F   UNL     1      -2.513  -8.358   4.590  0.00  0.00    -0.235 F 
ATOM      7  C   UNL     1      -1.097  -9.420   3.062  0.00  0.00    +0.187 C 
ENDROOT
BRANCH   3   8
ATOM      8  N   UNL     1      -3.682  -7.059   1.910  0.00  0.00    -0.303 N 
ATOM      9  C   UNL     1      -4.345  -7.272   0.724  0.00  0.00    +0.091 A 
ATOM     10  C   UNL     1      -5.519  -6.548   0.757  0.00  0.00    +0.033 A 
ATOM     11  C   UNL     1      -5.573  -5.871   2.005  0.00  0.00    +0.059 A 
ATOM     12  C   UNL     1      -6.455  -5.002   2.658  0.00  0.00    +0.131 A 
ATOM     13  N   UNL     1      -7.638  -4.565   2.110  0.00  0.00    -0.342 N 
ATOM     14  N   UNL     1      -6.139  -4.564   3.893  0.00  0.00    -0.199 NA
ATOM     15  C   UNL     1      -4.990  -4.966   4.459  0.00  0.00    +0.216 A 
ATOM     16  N   UNL     1      -4.732  -4.498   5.716  0.00  0.00    -0.327 N 
ATOM     17  N   UNL     1      -4.079  -5.785   3.921  0.00  0.00    -0.196 NA
ATOM     18  C   UNL     1      -4.420  -6.207   2.696  0.00  0.00    +0.150 A 
ATOM     19  H   UNL     1      -7.927  -4.841   1.187  0.00  0.00    +0.144 HD
ATOM     20  H   UNL     1      -8.189  -3.931   2.669  0.00  0.00    +0.144 HD
ATOM     21  H   UNL     1      -3.918  -4.850   6.188  0.00  0.00    +0.145 HD
ATOM     22  H   UNL     1      -5.441  -3.939   6.156  0.00  0.00    +0.145 HD
ENDBRANCH   3   8
BRANCH   7  23
ATOM     23  O   UNL     1      -0.113  -8.703   3.836  0.00  0.00    -0.386 OA
ATOM     24  H   UNL     1      -0.501  -8.580   4.726  0.00  0.00    +0.210 HD
ENDBRANCH   7  23
BRANCH   1  25
ATOM     25  C   UNL     1      -1.001 -10.376   0.646  0.00  0.00    +0.206 C 
BRANCH  25  26
ATOM     26  O   UNL     1      -0.050 -11.398   0.903  0.00  0.00    -0.284 OA
BRANCH  26  27
ATOM     27  P   UNL     1      -0.512 -12.687   1.761  0.00  0.00    +0.486 P 
ATOM     28  O   UNL     1      -1.909 -12.579   2.286  0.00  0.00    -0.227 OA
BRANCH  27  29
ATOM     29  O   UNL     1       0.602 -12.719   2.929  0.00  0.00    -0.290 OA
ATOM     30  C   UNL     1       1.964 -12.592   2.577  0.00  0.00    +0.207 C 
ENDBRANCH  27  29
BRANCH  27  31
ATOM     31  O   UNL     1      -0.115 -13.918   0.825  0.00  0.00    -0.186 OA
BRANCH  31  32
ATOM     32  P   UNL     1      -0.942 -15.438   0.828  0.00  0.00    +0.494 P 
ATOM     33  O   UNL     1      -2.170 -14.771   0.205  0.00  0.00    -0.226 OA
BRANCH  32  34
ATOM     34  O   UNL     1      -1.018 -15.411   2.471  0.00  0.00    -0.289 OA
ATOM     35  C   UNL     1      -2.286 -15.452   3.111  0.00  0.00    +0.207 C 
ENDBRANCH  32  34
BRANCH  32  36
ATOM     36  O   UNL     1      -1.768 -16.958   0.831  0.00  0.00    -0.186 OA
BRANCH  36  37
ATOM     37  P   UNL     1      -0.817 -18.207   0.514  0.00  0.00    +0.485 P 
ATOM     38  O   UNL     1      -1.480 -19.547   0.492  0.00  0.00    -0.227 OA
BRANCH  37  40
ATOM     39  C   UNL     1       0.695 -18.764  -1.490  0.00  0.00    +0.207 C 
ATOM     40  O   UNL     1      -0.095 -17.773  -0.859  0.00  0.00    -0.290 OA
ENDBRANCH  37  40
BRANCH  37  41
ATOM     41  O   UNL     1       0.375 -18.060   1.587  0.00  0.00    -0.290 OA
ATOM     42  C   UNL     1       0.145 -18.612   2.869  0.00  0.00    +0.207 C 
ENDBRANCH  37  41
ENDBRANCH  36  37
ENDBRANCH  32  36
ENDBRANCH  31  32
ENDBRANCH  27  31
ENDBRANCH  26  27
ENDBRANCH  25  26
ENDBRANCH   1  25
TORSDOF 13
