
 OpenBabel09132204463D

 42 44  0  0  1  0  0  0  0  0999 V2000
    5.5560   -7.3520    1.3440 C   0  0  1  0  0  3  0  0  0  0  0  0
    6.0230   -8.2820    2.3490 O   0  0  0  0  0  0  0  0  0  0  0  0
    5.3860   -9.5610    2.1070 C   0  0  2  0  0  3  0  0  0  0  0  0
    4.0610   -9.2500    1.4080 C   0  0  2  0  0  0  0  0  0  0  0  0
    2.8990   -8.9090    2.3310 C   0  0  0  0  0  1  0  0  0  0  0  0
    3.6670  -10.2700    0.5920 F   0  0  0  0  0  0  0  0  0  0  0  0
    4.4810   -8.0790    0.5270 C   0  0  2  0  0  3  0  0  0  0  0  0
    5.2850  -10.3050    3.3520 N   0  0  0  0  0  0  0  0  0  0  0  0
    5.3470   -9.7980    4.6290 C   0  0  0  0  0  3  0  0  0  0  0  0
    5.2120  -10.8490    5.5120 C   0  0  0  0  0  3  0  0  0  0  0  0
    5.0620  -12.0370    4.7470 C   0  0  0  0  0  0  0  0  0  0  0  0
    4.8880  -13.4020    5.0040 C   0  0  1  0  0  3  0  0  0  0  0  0
    4.8240  -13.9360    6.2690 N   0  0  0  0  0  0  0  0  0  0  0  0
    4.7750  -14.2500    3.9620 N   0  0  0  0  0  0  0  0  0  0  0  0
    4.8370  -13.7650    2.7110 C   0  0  0  0  0  0  0  0  0  0  0  0
    4.7030  -14.6720    1.6980 N   0  0  0  0  0  0  0  0  0  0  0  0
    5.0060  -12.4860    2.3580 N   0  0  0  0  0  2  0  0  0  0  0  0
    5.1130  -11.6670    3.4130 C   0  0  0  0  0  0  0  0  0  0  0  0
    4.9160  -13.3630    7.0910 H   0  0  0  0  0  0  0  0  0  0  0  0
    4.7070  -14.9360    6.3340 H   0  0  0  0  0  0  0  0  0  0  0  0
    4.6660  -14.3200    0.7580 H   0  0  0  0  0  0  0  0  0  0  0  0
    4.5060  -15.6230    1.9520 H   0  0  0  0  0  0  0  0  0  0  0  0
    5.0970   -8.5950   -0.6710 O   0  0  0  0  0  0  0  0  0  0  0  0
    4.5210   -9.3210   -0.9850 H   0  0  0  0  0  0  0  0  0  0  0  0
    5.1150   -6.0590    2.0360 C   0  0  0  0  0  2  0  0  0  0  0  0
    5.3830   -6.0880    3.4300 O   0  0  0  0  0  0  0  0  0  0  0  0
    4.2680   -5.5090    4.4450 P   0  0  2  0  0  0  0  0  0  0  0  0
    3.2550   -4.6340    3.7760 O   0  0  0  0  0  0  0  0  0  0  0  0
    5.1800   -4.7160    5.5150 O   0  0  0  0  0  0  0  0  0  0  0  0
    4.9410   -3.3400    5.7300 C   0  0  0  0  0  1  0  0  0  0  0  0
    3.7850   -6.8030    5.2450 O   0  0  0  0  0  0  0  0  0  0  0  0
    2.2030   -6.9850    5.9210 P   0  0  2  0  0  0  0  0  0  0  0  0
    2.4590   -5.7900    6.8420 O   0  0  0  0  0  0  0  0  0  0  0  0
    2.6540   -8.3960    6.6360 O   0  0  0  0  0  0  0  0  0  0  0  0
    3.4810   -8.3600    7.7910 C   0  0  0  0  0  1  0  0  0  0  0  0
    0.6210   -7.1670    6.5970 O   0  0  0  0  0  0  0  0  0  0  0  0
   -0.4120   -7.9110    5.6240 P   0  0  0  0  0  0  0  0  0  0  0  0
    0.1850   -8.6010    4.4390 O   0  0  0  0  0  0  0  0  0  0  0  0
   -0.5920   -9.1930    7.8460 C   0  0  0  0  0  1  0  0  0  0  0  0
   -1.2370   -8.8600    6.6310 O   0  0  0  0  0  0  0  0  0  0  0  0
   -1.4910   -6.7690    5.2700 O   0  0  0  0  0  0  0  0  0  0  0  0
   -2.6970   -6.7860    6.0090 C   0  0  0  0  0  1  0  0  0  0  0  0
  1 25  1  1  0  0  0
  1  2  1  0  0  0  0
  3  2  1  0  0  0  0
  3  8  1  1  0  0  0
  4  3  1  0  0  0  0
  4  5  1  1  0  0  0
  6  4  1  0  0  0  0
  7 23  1  6  0  0  0
  7  1  1  0  0  0  0
  7  4  1  0  0  0  0
  8 18  1  0  0  0  0
  8  9  1  0  0  0  0
  9 10  2  0  0  0  0
 11 12  1  0  0  0  0
 11 10  1  0  0  0  0
 12 13  1  1  0  0  0
 13 20  1  0  0  0  0
 13 19  1  0  0  0  0
 14 12  1  0  0  0  0
 15 14  2  0  0  0  0
 16 22  1  0  0  0  0
 16 15  1  0  0  0  0
 17 15  1  0  0  0  0
 17 18  1  0  0  0  0
 18 11  2  0  0  0  0
 21 16  1  0  0  0  0
 24 23  1  0  0  0  0
 25 26  1  0  0  0  0
 26 27  1  0  0  0  0
 27 28  2  6  0  0  0
 27 31  1  0  0  0  0
 27 29  1  0  0  0  0
 29 30  1  0  0  0  0
 31 32  1  0  0  0  0
 32 36  1  0  0  0  0
 32 34  1  0  0  0  0
 32 33  2  1  0  0  0
 34 35  1  0  0  0  0
 37 36  1  0  0  0  0
 37 40  1  0  0  0  0
 38 37  2  0  0  0  0
 40 39  1  0  0  0  0
 41 37  1  0  0  0  0
 41 42  1  0  0  0  0
M  END
>  <minimizedAffinity>
-6.38240385

$$$$
