
 OpenBabel09132204463D

 42 44  0  0  1  0  0  0  0  0999 V2000
    3.4140   -4.3880    3.5780 C   0  0  1  0  0  3  0  0  0  0  0  0
    3.0750   -5.2750    4.6700 O   0  0  0  0  0  0  0  0  0  0  0  0
    2.6710   -4.4610    5.7990 C   0  0  2  0  0  3  0  0  0  0  0  0
    3.3890   -3.1210    5.6350 C   0  0  2  0  0  0  0  0  0  0  0  0
    4.8110   -3.0710    6.1800 C   0  0  0  0  0  1  0  0  0  0  0  0
    2.6860   -2.0960    6.1980 F   0  0  0  0  0  0  0  0  0  0  0  0
    3.3290   -2.9570    4.1210 C   0  0  2  0  0  3  0  0  0  0  0  0
    2.9340   -5.1730    7.0390 N   0  0  0  0  0  0  0  0  0  0  0  0
    2.8200   -4.6820    8.3190 C   0  0  0  0  0  3  0  0  0  0  0  0
    3.1690   -5.6900    9.1940 C   0  0  0  0  0  3  0  0  0  0  0  0
    3.5070   -6.8330    8.4220 C   0  0  0  0  0  0  0  0  0  0  0  0
    3.9320   -8.1440    8.6700 C   0  0  1  0  0  3  0  0  0  0  0  0
    4.1410   -8.6500    9.9310 N   0  0  0  0  0  0  0  0  0  0  0  0
    4.1510   -8.9640    7.6230 N   0  0  0  0  0  0  0  0  0  0  0  0
    3.9620   -8.5040    6.3760 C   0  0  0  0  0  0  0  0  0  0  0  0
    4.1880   -9.3860    5.3580 N   0  0  0  0  0  0  0  0  0  0  0  0
    3.5650   -7.2730    6.0310 N   0  0  0  0  0  2  0  0  0  0  0  0
    3.3520   -6.4810    7.0910 C   0  0  0  0  0  0  0  0  0  0  0  0
    4.0110   -8.0880   10.7550 H   0  0  0  0  0  0  0  0  0  0  0  0
    4.4570   -9.6070    9.9880 H   0  0  0  0  0  0  0  0  0  0  0  0
    3.9750   -9.0860    4.4230 H   0  0  0  0  0  0  0  0  0  0  0  0
    4.4180  -10.3310    5.6080 H   0  0  0  0  0  0  0  0  0  0  0  0
    2.0420   -2.4140    3.7620 O   0  0  0  0  0  0  0  0  0  0  0  0
    1.8700   -1.6810    4.3870 H   0  0  0  0  0  0  0  0  0  0  0  0
    4.7700   -4.8110    3.0040 C   0  0  0  0  0  2  0  0  0  0  0  0
    4.6240   -5.6150    1.8430 O   0  0  0  0  0  0  0  0  0  0  0  0
    5.0170   -7.1800    1.9320 P   0  0  2  0  0  0  0  0  0  0  0  0
    5.6370   -7.5610    3.2400 O   0  0  0  0  0  0  0  0  0  0  0  0
    6.0300   -7.3340    0.6840 O   0  0  0  0  0  0  0  0  0  0  0  0
    5.6580   -6.7930   -0.5670 C   0  0  0  0  0  1  0  0  0  0  0  0
    3.6930   -7.9240    1.4400 O   0  0  0  0  0  0  0  0  0  0  0  0
    3.3390   -9.5840    1.7770 P   0  0  2  0  0  0  0  0  0  0  0  0
    2.4190   -9.6350    0.5550 O   0  0  0  0  0  0  0  0  0  0  0  0
    2.5100   -9.1500    3.1300 O   0  0  0  0  0  0  0  0  0  0  0  0
    1.2280   -9.7120    3.3720 C   0  0  0  0  0  1  0  0  0  0  0  0
    2.9850  -11.2440    2.1130 O   0  0  0  0  0  0  0  0  0  0  0  0
    4.2690  -12.1010    2.5390 P   0  0  0  0  0  0  0  0  0  0  0  0
    5.4220  -11.3260    3.0910 O   0  0  0  0  0  0  0  0  0  0  0  0
    2.9820  -12.7280    4.6750 C   0  0  0  0  0  1  0  0  0  0  0  0
    3.6510  -13.2140    3.5260 O   0  0  0  0  0  0  0  0  0  0  0  0
    4.6050  -12.9640    1.2210 O   0  0  0  0  0  0  0  0  0  0  0  0
    3.5640  -13.1030    0.2730 C   0  0  0  0  0  1  0  0  0  0  0  0
  1 25  1  1  0  0  0
  1  7  1  0  0  0  0
  1  2  1  0  0  0  0
  2  3  1  0  0  0  0
  3  8  1  1  0  0  0
  4  3  1  0  0  0  0
  4  5  1  1  0  0  0
  4  6  1  0  0  0  0
  7 23  1  1  0  0  0
  7  4  1  0  0  0  0
  8 18  1  0  0  0  0
  8  9  1  0  0  0  0
  9 10  2  0  0  0  0
 11 12  1  0  0  0  0
 11 10  1  0  0  0  0
 12 13  1  1  0  0  0
 13 20  1  0  0  0  0
 13 19  1  0  0  0  0
 14 12  1  0  0  0  0
 15 14  2  0  0  0  0
 16 22  1  0  0  0  0
 16 15  1  0  0  0  0
 17 15  1  0  0  0  0
 17 18  1  0  0  0  0
 18 11  2  0  0  0  0
 21 16  1  0  0  0  0
 23 24  1  0  0  0  0
 26 27  1  0  0  0  0
 26 25  1  0  0  0  0
 27 28  2  1  0  0  0
 29 27  1  0  0  0  0
 30 29  1  0  0  0  0
 31 32  1  0  0  0  0
 31 27  1  0  0  0  0
 32 33  2  6  0  0  0
 32 36  1  0  0  0  0
 32 34  1  0  0  0  0
 34 35  1  0  0  0  0
 36 37  1  0  0  0  0
 37 38  2  0  0  0  0
 37 40  1  0  0  0  0
 40 39  1  0  0  0  0
 41 37  1  0  0  0  0
 42 41  1  0  0  0  0
M  END
>  <minimizedAffinity>
-6.31621456

$$$$
