
 OpenBabel09132204463D

 42 44  0  0  1  0  0  0  0  0999 V2000
    3.6910   -5.3160    7.0760 C   0  0  1  0  0  3  0  0  0  0  0  0
    4.3780   -5.8900    5.9390 O   0  0  0  0  0  0  0  0  0  0  0  0
    4.5780   -4.8410    4.9590 C   0  0  2  0  0  3  0  0  0  0  0  0
    3.4540   -3.8290    5.1850 C   0  0  2  0  0  0  0  0  0  0  0  0
    2.1360   -4.1500    4.4910 C   0  0  0  0  0  1  0  0  0  0  0  0
    3.8260   -2.5680    4.8230 F   0  0  0  0  0  0  0  0  0  0  0  0
    3.3470   -3.8690    6.7060 C   0  0  2  0  0  3  0  0  0  0  0  0
    4.6520   -5.4190    3.6270 N   0  0  0  0  0  0  0  0  0  0  0  0
    4.8880   -4.7540    2.4460 C   0  0  0  0  0  3  0  0  0  0  0  0
    4.8690   -5.6820    1.4250 C   0  0  0  0  0  3  0  0  0  0  0  0
    4.6130   -6.9540    2.0030 C   0  0  0  0  0  0  0  0  0  0  0  0
    4.4700   -8.2710    1.5510 C   0  0  1  0  0  3  0  0  0  0  0  0
    4.5640   -8.6360    0.2280 N   0  0  0  0  0  0  0  0  0  0  0  0
    4.2280   -9.2440    2.4520 N   0  0  0  0  0  0  0  0  0  0  0  0
    4.1260   -8.9250    3.7520 C   0  0  0  0  0  0  0  0  0  0  0  0
    3.8920   -9.9560    4.6170 N   0  0  0  0  0  0  0  0  0  0  0  0
    4.2390   -7.7040    4.2850 N   0  0  0  0  0  2  0  0  0  0  0  0
    4.4820   -6.7580    3.3680 C   0  0  0  0  0  0  0  0  0  0  0  0
    4.7280   -7.9590   -0.4970 H   0  0  0  0  0  0  0  0  0  0  0  0
    4.4330   -9.6140    0.0180 H   0  0  0  0  0  0  0  0  0  0  0  0
    3.8920   -9.7510    5.6000 H   0  0  0  0  0  0  0  0  0  0  0  0
    3.8750  -10.8850    4.2350 H   0  0  0  0  0  0  0  0  0  0  0  0
    4.3590   -3.0070    7.2660 O   0  0  0  0  0  0  0  0  0  0  0  0
    4.3290   -2.1770    6.7490 H   0  0  0  0  0  0  0  0  0  0  0  0
    2.5080   -6.2170    7.4420 C   0  0  0  0  0  2  0  0  0  0  0  0
    2.3550   -7.2880    6.5230 O   0  0  0  0  0  0  0  0  0  0  0  0
    0.8670   -7.8380    6.2160 P   0  0  2  0  0  0  0  0  0  0  0  0
    0.0410   -6.8900    5.4050 O   0  0  0  0  0  0  0  0  0  0  0  0
    0.2890   -8.0670    7.7060 O   0  0  0  0  0  0  0  0  0  0  0  0
   -0.9960   -7.5720    8.0230 C   0  0  0  0  0  1  0  0  0  0  0  0
    1.1220   -9.3190    5.6770 O   0  0  0  0  0  0  0  0  0  0  0  0
   -0.0400  -10.2320    4.7760 P   0  0  2  0  0  0  0  0  0  0  0  0
    0.2070  -11.4400    5.6820 O   0  0  0  0  0  0  0  0  0  0  0  0
    0.9620  -10.2500    3.4720 O   0  0  0  0  0  0  0  0  0  0  0  0
    1.1060  -11.4470    2.7200 C   0  0  0  0  0  1  0  0  0  0  0  0
   -1.2020  -11.1430    3.8760 O   0  0  0  0  0  0  0  0  0  0  0  0
   -2.7070  -10.6280    4.0620 P   0  0  0  0  0  0  0  0  0  0  0  0
   -3.3690  -10.0810    2.8370 O   0  0  0  0  0  0  0  0  0  0  0  0
   -4.8490  -11.9490    4.5880 C   0  0  0  0  0  1  0  0  0  0  0  0
   -3.4420  -11.8920    4.7360 O   0  0  0  0  0  0  0  0  0  0  0  0
   -2.6070   -9.5950    5.2930 O   0  0  0  0  0  0  0  0  0  0  0  0
   -3.2170   -8.3320    5.1130 C   0  0  0  0  0  1  0  0  0  0  0  0
  1 25  1  6  0  0  0
  2  1  1  0  0  0  0
  3  8  1  6  0  0  0
  3  4  1  0  0  0  0
  3  2  1  0  0  0  0
  4  5  1  6  0  0  0
  4  7  1  0  0  0  0
  6  4  1  0  0  0  0
  7  1  1  0  0  0  0
  7 23  1  1  0  0  0
  9  8  1  0  0  0  0
 10 11  1  0  0  0  0
 10  9  2  0  0  0  0
 11 18  2  0  0  0  0
 12 13  1  1  0  0  0
 12 11  1  0  0  0  0
 12 14  1  0  0  0  0
 14 15  2  0  0  0  0
 15 17  1  0  0  0  0
 15 16  1  0  0  0  0
 16 21  1  0  0  0  0
 18  8  1  0  0  0  0
 18 17  1  0  0  0  0
 19 13  1  0  0  0  0
 20 13  1  0  0  0  0
 22 16  1  0  0  0  0
 24 23  1  0  0  0  0
 26 25  1  0  0  0  0
 27 28  2  6  0  0  0
 27 26  1  0  0  0  0
 27 29  1  0  0  0  0
 29 30  1  0  0  0  0
 31 27  1  0  0  0  0
 32 31  1  0  0  0  0
 32 33  2  1  0  0  0
 34 32  1  0  0  0  0
 35 34  1  0  0  0  0
 36 37  1  0  0  0  0
 36 32  1  0  0  0  0
 37 40  1  0  0  0  0
 37 41  1  0  0  0  0
 38 37  2  0  0  0  0
 39 40  1  0  0  0  0
 42 41  1  0  0  0  0
M  END
>  <minimizedAffinity>
-6.17096329

$$$$
