
 OpenBabel09122223253D

 42 44  0  0  1  0  0  0  0  0999 V2000
    4.1850   -4.4010    6.7230 C   0  0  1  0  0  3  0  0  0  0  0  0
    4.5470   -5.6140    6.0210 O   0  0  0  0  0  0  0  0  0  0  0  0
    4.2850   -5.4090    4.6100 C   0  0  2  0  0  3  0  0  0  0  0  0
    3.1670   -4.3690    4.5310 C   0  0  2  0  0  0  0  0  0  0  0  0
    1.7520   -4.9200    4.6570 C   0  0  0  0  0  1  0  0  0  0  0  0
    3.2350   -3.6370    3.3820 F   0  0  0  0  0  0  0  0  0  0  0  0
    3.5530   -3.4590    5.6920 C   0  0  2  0  0  3  0  0  0  0  0  0
    4.0090   -6.6850    3.9700 N   0  0  0  0  0  0  0  0  0  0  0  0
    3.5090   -7.8210    4.5640 C   0  0  0  0  0  3  0  0  0  0  0  0
    3.4070   -8.7980    3.5950 C   0  0  0  0  0  3  0  0  0  0  0  0
    3.8610   -8.2390    2.3700 C   0  0  0  0  0  0  0  0  0  0  0  0
    4.0160   -8.6700    1.0470 C   0  0  1  0  0  3  0  0  0  0  0  0
    3.7060   -9.9390    0.6180 N   0  0  0  0  0  0  0  0  0  0  0  0
    4.4930   -7.8010    0.1340 N   0  0  0  0  0  0  0  0  0  0  0  0
    4.8110   -6.5540    0.5160 C   0  0  0  0  0  0  0  0  0  0  0  0
    5.2770   -5.7170   -0.4570 N   0  0  0  0  0  0  0  0  0  0  0  0
    4.7070   -6.0470    1.7500 N   0  0  0  0  0  2  0  0  0  0  0  0
    4.2280   -6.9300    2.6360 C   0  0  0  0  0  0  0  0  0  0  0  0
    3.3600  -10.6410    1.2500 H   0  0  0  0  0  0  0  0  0  0  0  0
    3.8690  -10.1400   -0.3570 H   0  0  0  0  0  0  0  0  0  0  0  0
    5.4450   -4.7580   -0.2090 H   0  0  0  0  0  0  0  0  0  0  0  0
    5.2930   -6.0660   -1.3990 H   0  0  0  0  0  0  0  0  0  0  0  0
    4.5660   -2.5360    5.2430 O   0  0  0  0  0  0  0  0  0  0  0  0
    4.2640   -2.1980    4.3750 H   0  0  0  0  0  0  0  0  0  0  0  0
    3.3090   -4.7710    7.9240 C   0  0  0  0  0  2  0  0  0  0  0  0
    2.6770   -6.0300    7.7490 O   0  0  0  0  0  0  0  0  0  0  0  0
    1.7500   -6.6030    8.9420 P   0  0  2  0  0  0  0  0  0  0  0  0
    1.0010   -5.5350    9.6750 O   0  0  0  0  0  0  0  0  0  0  0  0
    2.8360   -7.3610    9.8650 O   0  0  0  0  0  0  0  0  0  0  0  0
    3.5100   -8.4860    9.3410 C   0  0  0  0  0  1  0  0  0  0  0  0
    0.9450   -7.7940    8.2470 O   0  0  0  0  0  0  0  0  0  0  0  0
   -0.7470   -7.7370    7.8930 P   0  0  2  0  0  0  0  0  0  0  0  0
   -1.0650   -7.9770    9.3700 O   0  0  0  0  0  0  0  0  0  0  0  0
   -0.6390   -9.1560    7.0690 O   0  0  0  0  0  0  0  0  0  0  0  0
    0.3670  -10.0950    7.4250 C   0  0  0  0  0  1  0  0  0  0  0  0
   -2.4400   -7.6790    7.5380 O   0  0  0  0  0  0  0  0  0  0  0  0
   -2.7690   -7.1530    6.0620 P   0  0  0  0  0  0  0  0  0  0  0  0
   -1.6430   -6.4880    5.3360 O   0  0  0  0  0  0  0  0  0  0  0  0
   -2.6920   -8.9140    4.1890 C   0  0  0  0  0  1  0  0  0  0  0  0
   -3.3790   -8.4570    5.3400 O   0  0  0  0  0  0  0  0  0  0  0  0
   -4.0760   -6.2350    6.2680 O   0  0  0  0  0  0  0  0  0  0  0  0
   -4.5820   -6.1390    7.5850 C   0  0  0  0  0  1  0  0  0  0  0  0
  1 25  1  1  0  0  0
  2  1  1  0  0  0  0
  3  8  1  1  0  0  0
  3  2  1  0  0  0  0
  4  3  1  0  0  0  0
  4  5  1  1  0  0  0
  4  7  1  0  0  0  0
  6  4  1  0  0  0  0
  7 23  1  6  0  0  0
  7  1  1  0  0  0  0
  8  9  1  0  0  0  0
 10  9  2  0  0  0  0
 11 18  2  0  0  0  0
 11 10  1  0  0  0  0
 12 13  1  6  0  0  0
 12 11  1  0  0  0  0
 13 19  1  0  0  0  0
 14 15  2  0  0  0  0
 14 12  1  0  0  0  0
 15 17  1  0  0  0  0
 16 21  1  0  0  0  0
 16 15  1  0  0  0  0
 17 18  1  0  0  0  0
 18  8  1  0  0  0  0
 20 13  1  0  0  0  0
 22 16  1  0  0  0  0
 24 23  1  0  0  0  0
 26 25  1  0  0  0  0
 26 27  1  0  0  0  0
 27 28  2  1  0  0  0
 27 29  1  0  0  0  0
 30 29  1  0  0  0  0
 31 27  1  0  0  0  0
 32 31  1  0  0  0  0
 32 33  2  1  0  0  0
 34 35  1  0  0  0  0
 34 32  1  0  0  0  0
 36 32  1  0  0  0  0
 37 41  1  0  0  0  0
 37 36  1  0  0  0  0
 38 37  2  0  0  0  0
 39 40  1  0  0  0  0
 40 37  1  0  0  0  0
 41 42  1  0  0  0  0
M  END
>  <minimizedAffinity>
-6.47796822

$$$$

 OpenBabel09122223253D

 42 44  0  0  1  0  0  0  0  0999 V2000
    5.5560   -7.3520    1.3440 C   0  0  1  0  0  3  0  0  0  0  0  0
    6.0230   -8.2820    2.3490 O   0  0  0  0  0  0  0  0  0  0  0  0
    5.3860   -9.5610    2.1070 C   0  0  2  0  0  3  0  0  0  0  0  0
    4.0610   -9.2500    1.4080 C   0  0  2  0  0  0  0  0  0  0  0  0
    2.8990   -8.9090    2.3310 C   0  0  0  0  0  1  0  0  0  0  0  0
    3.6670  -10.2700    0.5920 F   0  0  0  0  0  0  0  0  0  0  0  0
    4.4810   -8.0790    0.5270 C   0  0  2  0  0  3  0  0  0  0  0  0
    5.2850  -10.3050    3.3520 N   0  0  0  0  0  0  0  0  0  0  0  0
    5.3470   -9.7980    4.6290 C   0  0  0  0  0  3  0  0  0  0  0  0
    5.2120  -10.8490    5.5120 C   0  0  0  0  0  3  0  0  0  0  0  0
    5.0620  -12.0370    4.7470 C   0  0  0  0  0  0  0  0  0  0  0  0
    4.8880  -13.4020    5.0040 C   0  0  1  0  0  3  0  0  0  0  0  0
    4.8240  -13.9360    6.2690 N   0  0  0  0  0  0  0  0  0  0  0  0
    4.7750  -14.2500    3.9620 N   0  0  0  0  0  0  0  0  0  0  0  0
    4.8370  -13.7650    2.7110 C   0  0  0  0  0  0  0  0  0  0  0  0
    4.7030  -14.6720    1.6980 N   0  0  0  0  0  0  0  0  0  0  0  0
    5.0060  -12.4860    2.3580 N   0  0  0  0  0  2  0  0  0  0  0  0
    5.1130  -11.6670    3.4130 C   0  0  0  0  0  0  0  0  0  0  0  0
    4.9160  -13.3630    7.0910 H   0  0  0  0  0  0  0  0  0  0  0  0
    4.7070  -14.9360    6.3340 H   0  0  0  0  0  0  0  0  0  0  0  0
    4.6660  -14.3200    0.7580 H   0  0  0  0  0  0  0  0  0  0  0  0
    4.5060  -15.6230    1.9520 H   0  0  0  0  0  0  0  0  0  0  0  0
    5.0970   -8.5950   -0.6710 O   0  0  0  0  0  0  0  0  0  0  0  0
    4.5210   -9.3210   -0.9850 H   0  0  0  0  0  0  0  0  0  0  0  0
    5.1150   -6.0590    2.0360 C   0  0  0  0  0  2  0  0  0  0  0  0
    5.3830   -6.0880    3.4300 O   0  0  0  0  0  0  0  0  0  0  0  0
    4.2680   -5.5090    4.4450 P   0  0  2  0  0  0  0  0  0  0  0  0
    3.2550   -4.6340    3.7760 O   0  0  0  0  0  0  0  0  0  0  0  0
    5.1800   -4.7160    5.5150 O   0  0  0  0  0  0  0  0  0  0  0  0
    4.9410   -3.3400    5.7300 C   0  0  0  0  0  1  0  0  0  0  0  0
    3.7850   -6.8030    5.2450 O   0  0  0  0  0  0  0  0  0  0  0  0
    2.2030   -6.9850    5.9210 P   0  0  2  0  0  0  0  0  0  0  0  0
    2.4590   -5.7900    6.8420 O   0  0  0  0  0  0  0  0  0  0  0  0
    2.6540   -8.3960    6.6360 O   0  0  0  0  0  0  0  0  0  0  0  0
    3.4810   -8.3600    7.7910 C   0  0  0  0  0  1  0  0  0  0  0  0
    0.6210   -7.1670    6.5970 O   0  0  0  0  0  0  0  0  0  0  0  0
   -0.4120   -7.9110    5.6240 P   0  0  0  0  0  0  0  0  0  0  0  0
    0.1850   -8.6010    4.4390 O   0  0  0  0  0  0  0  0  0  0  0  0
   -0.5920   -9.1930    7.8460 C   0  0  0  0  0  1  0  0  0  0  0  0
   -1.2370   -8.8600    6.6310 O   0  0  0  0  0  0  0  0  0  0  0  0
   -1.4910   -6.7690    5.2700 O   0  0  0  0  0  0  0  0  0  0  0  0
   -2.6970   -6.7860    6.0090 C   0  0  0  0  0  1  0  0  0  0  0  0
  1 25  1  1  0  0  0
  1  2  1  0  0  0  0
  3  2  1  0  0  0  0
  3  8  1  1  0  0  0
  4  3  1  0  0  0  0
  4  5  1  1  0  0  0
  6  4  1  0  0  0  0
  7 23  1  6  0  0  0
  7  1  1  0  0  0  0
  7  4  1  0  0  0  0
  8 18  1  0  0  0  0
  8  9  1  0  0  0  0
  9 10  2  0  0  0  0
 11 12  1  0  0  0  0
 11 10  1  0  0  0  0
 12 13  1  1  0  0  0
 13 20  1  0  0  0  0
 13 19  1  0  0  0  0
 14 12  1  0  0  0  0
 15 14  2  0  0  0  0
 16 22  1  0  0  0  0
 16 15  1  0  0  0  0
 17 15  1  0  0  0  0
 17 18  1  0  0  0  0
 18 11  2  0  0  0  0
 21 16  1  0  0  0  0
 24 23  1  0  0  0  0
 25 26  1  0  0  0  0
 26 27  1  0  0  0  0
 27 28  2  6  0  0  0
 27 31  1  0  0  0  0
 27 29  1  0  0  0  0
 29 30  1  0  0  0  0
 31 32  1  0  0  0  0
 32 36  1  0  0  0  0
 32 34  1  0  0  0  0
 32 33  2  1  0  0  0
 34 35  1  0  0  0  0
 37 36  1  0  0  0  0
 37 40  1  0  0  0  0
 38 37  2  0  0  0  0
 40 39  1  0  0  0  0
 41 37  1  0  0  0  0
 41 42  1  0  0  0  0
M  END
>  <minimizedAffinity>
-6.38240385

$$$$

 OpenBabel09122223253D

 42 44  0  0  1  0  0  0  0  0999 V2000
    3.4140   -4.3880    3.5780 C   0  0  1  0  0  3  0  0  0  0  0  0
    3.0750   -5.2750    4.6700 O   0  0  0  0  0  0  0  0  0  0  0  0
    2.6710   -4.4610    5.7990 C   0  0  2  0  0  3  0  0  0  0  0  0
    3.3890   -3.1210    5.6350 C   0  0  2  0  0  0  0  0  0  0  0  0
    4.8110   -3.0710    6.1800 C   0  0  0  0  0  1  0  0  0  0  0  0
    2.6860   -2.0960    6.1980 F   0  0  0  0  0  0  0  0  0  0  0  0
    3.3290   -2.9570    4.1210 C   0  0  2  0  0  3  0  0  0  0  0  0
    2.9340   -5.1730    7.0390 N   0  0  0  0  0  0  0  0  0  0  0  0
    2.8200   -4.6820    8.3190 C   0  0  0  0  0  3  0  0  0  0  0  0
    3.1690   -5.6900    9.1940 C   0  0  0  0  0  3  0  0  0  0  0  0
    3.5070   -6.8330    8.4220 C   0  0  0  0  0  0  0  0  0  0  0  0
    3.9320   -8.1440    8.6700 C   0  0  1  0  0  3  0  0  0  0  0  0
    4.1410   -8.6500    9.9310 N   0  0  0  0  0  0  0  0  0  0  0  0
    4.1510   -8.9640    7.6230 N   0  0  0  0  0  0  0  0  0  0  0  0
    3.9620   -8.5040    6.3760 C   0  0  0  0  0  0  0  0  0  0  0  0
    4.1880   -9.3860    5.3580 N   0  0  0  0  0  0  0  0  0  0  0  0
    3.5650   -7.2730    6.0310 N   0  0  0  0  0  2  0  0  0  0  0  0
    3.3520   -6.4810    7.0910 C   0  0  0  0  0  0  0  0  0  0  0  0
    4.0110   -8.0880   10.7550 H   0  0  0  0  0  0  0  0  0  0  0  0
    4.4570   -9.6070    9.9880 H   0  0  0  0  0  0  0  0  0  0  0  0
    3.9750   -9.0860    4.4230 H   0  0  0  0  0  0  0  0  0  0  0  0
    4.4180  -10.3310    5.6080 H   0  0  0  0  0  0  0  0  0  0  0  0
    2.0420   -2.4140    3.7620 O   0  0  0  0  0  0  0  0  0  0  0  0
    1.8700   -1.6810    4.3870 H   0  0  0  0  0  0  0  0  0  0  0  0
    4.7700   -4.8110    3.0040 C   0  0  0  0  0  2  0  0  0  0  0  0
    4.6240   -5.6150    1.8430 O   0  0  0  0  0  0  0  0  0  0  0  0
    5.0170   -7.1800    1.9320 P   0  0  2  0  0  0  0  0  0  0  0  0
    5.6370   -7.5610    3.2400 O   0  0  0  0  0  0  0  0  0  0  0  0
    6.0300   -7.3340    0.6840 O   0  0  0  0  0  0  0  0  0  0  0  0
    5.6580   -6.7930   -0.5670 C   0  0  0  0  0  1  0  0  0  0  0  0
    3.6930   -7.9240    1.4400 O   0  0  0  0  0  0  0  0  0  0  0  0
    3.3390   -9.5840    1.7770 P   0  0  2  0  0  0  0  0  0  0  0  0
    2.4190   -9.6350    0.5550 O   0  0  0  0  0  0  0  0  0  0  0  0
    2.5100   -9.1500    3.1300 O   0  0  0  0  0  0  0  0  0  0  0  0
    1.2280   -9.7120    3.3720 C   0  0  0  0  0  1  0  0  0  0  0  0
    2.9850  -11.2440    2.1130 O   0  0  0  0  0  0  0  0  0  0  0  0
    4.2690  -12.1010    2.5390 P   0  0  0  0  0  0  0  0  0  0  0  0
    5.4220  -11.3260    3.0910 O   0  0  0  0  0  0  0  0  0  0  0  0
    2.9820  -12.7280    4.6750 C   0  0  0  0  0  1  0  0  0  0  0  0
    3.6510  -13.2140    3.5260 O   0  0  0  0  0  0  0  0  0  0  0  0
    4.6050  -12.9640    1.2210 O   0  0  0  0  0  0  0  0  0  0  0  0
    3.5640  -13.1030    0.2730 C   0  0  0  0  0  1  0  0  0  0  0  0
  1 25  1  1  0  0  0
  1  7  1  0  0  0  0
  1  2  1  0  0  0  0
  2  3  1  0  0  0  0
  3  8  1  1  0  0  0
  4  3  1  0  0  0  0
  4  5  1  1  0  0  0
  4  6  1  0  0  0  0
  7 23  1  1  0  0  0
  7  4  1  0  0  0  0
  8 18  1  0  0  0  0
  8  9  1  0  0  0  0
  9 10  2  0  0  0  0
 11 12  1  0  0  0  0
 11 10  1  0  0  0  0
 12 13  1  1  0  0  0
 13 20  1  0  0  0  0
 13 19  1  0  0  0  0
 14 12  1  0  0  0  0
 15 14  2  0  0  0  0
 16 22  1  0  0  0  0
 16 15  1  0  0  0  0
 17 15  1  0  0  0  0
 17 18  1  0  0  0  0
 18 11  2  0  0  0  0
 21 16  1  0  0  0  0
 23 24  1  0  0  0  0
 26 27  1  0  0  0  0
 26 25  1  0  0  0  0
 27 28  2  1  0  0  0
 29 27  1  0  0  0  0
 30 29  1  0  0  0  0
 31 32  1  0  0  0  0
 31 27  1  0  0  0  0
 32 33  2  6  0  0  0
 32 36  1  0  0  0  0
 32 34  1  0  0  0  0
 34 35  1  0  0  0  0
 36 37  1  0  0  0  0
 37 38  2  0  0  0  0
 37 40  1  0  0  0  0
 40 39  1  0  0  0  0
 41 37  1  0  0  0  0
 42 41  1  0  0  0  0
M  END
>  <minimizedAffinity>
-6.31621456

$$$$

 OpenBabel09122223253D

 42 44  0  0  1  0  0  0  0  0999 V2000
    3.5600   -9.1060    2.3230 C   0  0  1  0  0  3  0  0  0  0  0  0
    4.4590  -10.2370    2.2470 O   0  0  0  0  0  0  0  0  0  0  0  0
    3.7440  -11.3360    1.6290 C   0  0  2  0  0  3  0  0  0  0  0  0
    2.2650  -11.1100    1.9410 C   0  0  2  0  0  0  0  0  0  0  0  0
    1.7940  -11.6360    3.2910 C   0  0  0  0  0  1  0  0  0  0  0  0
    1.4570  -11.6380    0.9770 F   0  0  0  0  0  0  0  0  0  0  0  0
    2.1890   -9.5910    1.8380 C   0  0  2  0  0  3  0  0  0  0  0  0
    4.3010  -12.6010    2.0810 N   0  0  0  0  0  0  0  0  0  0  0  0
    4.9880  -12.8360    3.2490 C   0  0  0  0  0  3  0  0  0  0  0  0
    5.3380  -14.1700    3.2770 C   0  0  0  0  0  3  0  0  0  0  0  0
    4.8480  -14.7690    2.0850 C   0  0  0  0  0  0  0  0  0  0  0  0
    4.8560  -16.0420    1.5040 C   0  0  1  0  0  3  0  0  0  0  0  0
    5.4500  -17.1390    2.0830 N   0  0  0  0  0  0  0  0  0  0  0  0
    4.2510  -16.2150    0.3120 N   0  0  0  0  0  0  0  0  0  0  0  0
    3.6640  -15.1670   -0.2860 C   0  0  0  0  0  0  0  0  0  0  0  0
    3.0570  -15.4080   -1.4860 N   0  0  0  0  0  0  0  0  0  0  0  0
    3.6050  -13.9130    0.1780 N   0  0  0  0  0  2  0  0  0  0  0  0
    4.2110  -13.7710    1.3650 C   0  0  0  0  0  0  0  0  0  0  0  0
    5.9310  -17.0760    2.9630 H   0  0  0  0  0  0  0  0  0  0  0  0
    5.4020  -18.0050    1.5660 H   0  0  0  0  0  0  0  0  0  0  0  0
    2.5440  -14.6560   -1.9100 H   0  0  0  0  0  0  0  0  0  0  0  0
    3.0350  -16.3590   -1.8100 H   0  0  0  0  0  0  0  0  0  0  0  0
    2.0450   -9.2250    0.4500 O   0  0  0  0  0  0  0  0  0  0  0  0
    1.3640   -9.8210    0.0790 H   0  0  0  0  0  0  0  0  0  0  0  0
    3.6080   -8.5340    3.7430 C   0  0  0  0  0  2  0  0  0  0  0  0
    4.5540   -7.4810    3.8570 O   0  0  0  0  0  0  0  0  0  0  0  0
    4.0110   -5.9710    4.0480 P   0  0  2  0  0  0  0  0  0  0  0  0
    2.5600   -5.9040    4.4050 O   0  0  0  0  0  0  0  0  0  0  0  0
    4.3390   -5.3220    2.6060 O   0  0  0  0  0  0  0  0  0  0  0  0
    5.5110   -5.7220    1.9270 C   0  0  0  0  0  1  0  0  0  0  0  0
    5.0930   -5.3080    5.0170 O   0  0  0  0  0  0  0  0  0  0  0  0
    4.6930   -4.2580    6.3330 P   0  0  2  0  0  0  0  0  0  0  0  0
    6.0750   -3.6090    6.2350 O   0  0  0  0  0  0  0  0  0  0  0  0
    4.7060   -5.5330    7.3730 O   0  0  0  0  0  0  0  0  0  0  0  0
    5.3810   -5.4100    8.6180 C   0  0  0  0  0  1  0  0  0  0  0  0
    4.2930   -3.2090    7.6490 O   0  0  0  0  0  0  0  0  0  0  0  0
    3.2890   -2.0280    7.2470 P   0  0  0  0  0  0  0  0  0  0  0  0
    2.7630   -2.0620    5.8480 O   0  0  0  0  0  0  0  0  0  0  0  0
    2.2040   -3.2340    9.2430 C   0  0  0  0  0  1  0  0  0  0  0  0
    2.1710   -2.0930    8.4050 O   0  0  0  0  0  0  0  0  0  0  0  0
    4.1000   -0.6910    7.6320 O   0  0  0  0  0  0  0  0  0  0  0  0
    5.0620   -0.8080    8.6620 C   0  0  0  0  0  1  0  0  0  0  0  0
  1 25  1  1  0  0  0
  2  1  1  0  0  0  0
  3  4  1  0  0  0  0
  3  8  1  1  0  0  0
  3  2  1  0  0  0  0
  4  5  1  1  0  0  0
  6  4  1  0  0  0  0
  7 23  1  6  0  0  0
  7  4  1  0  0  0  0
  7  1  1  0  0  0  0
  8  9  1  0  0  0  0
  9 10  2  0  0  0  0
 11 10  1  0  0  0  0
 12 13  1  1  0  0  0
 12 11  1  0  0  0  0
 13 19  1  0  0  0  0
 14 12  1  0  0  0  0
 15 17  1  0  0  0  0
 15 14  2  0  0  0  0
 16 15  1  0  0  0  0
 17 18  1  0  0  0  0
 18  8  1  0  0  0  0
 18 11  2  0  0  0  0
 20 13  1  0  0  0  0
 21 16  1  0  0  0  0
 22 16  1  0  0  0  0
 24 23  1  0  0  0  0
 25 26  1  0  0  0  0
 26 27  1  0  0  0  0
 27 28  2  1  0  0  0
 27 31  1  0  0  0  0
 29 27  1  0  0  0  0
 30 29  1  0  0  0  0
 31 32  1  0  0  0  0
 32 33  2  1  0  0  0
 32 34  1  0  0  0  0
 32 36  1  0  0  0  0
 34 35  1  0  0  0  0
 37 41  1  0  0  0  0
 37 36  1  0  0  0  0
 37 40  1  0  0  0  0
 38 37  2  0  0  0  0
 40 39  1  0  0  0  0
 41 42  1  0  0  0  0
M  END
>  <minimizedAffinity>
-6.21458483

$$$$

 OpenBabel09122223253D

 42 44  0  0  1  0  0  0  0  0999 V2000
    3.6910   -5.3160    7.0760 C   0  0  1  0  0  3  0  0  0  0  0  0
    4.3780   -5.8900    5.9390 O   0  0  0  0  0  0  0  0  0  0  0  0
    4.5780   -4.8410    4.9590 C   0  0  2  0  0  3  0  0  0  0  0  0
    3.4540   -3.8290    5.1850 C   0  0  2  0  0  0  0  0  0  0  0  0
    2.1360   -4.1500    4.4910 C   0  0  0  0  0  1  0  0  0  0  0  0
    3.8260   -2.5680    4.8230 F   0  0  0  0  0  0  0  0  0  0  0  0
    3.3470   -3.8690    6.7060 C   0  0  2  0  0  3  0  0  0  0  0  0
    4.6520   -5.4190    3.6270 N   0  0  0  0  0  0  0  0  0  0  0  0
    4.8880   -4.7540    2.4460 C   0  0  0  0  0  3  0  0  0  0  0  0
    4.8690   -5.6820    1.4250 C   0  0  0  0  0  3  0  0  0  0  0  0
    4.6130   -6.9540    2.0030 C   0  0  0  0  0  0  0  0  0  0  0  0
    4.4700   -8.2710    1.5510 C   0  0  1  0  0  3  0  0  0  0  0  0
    4.5640   -8.6360    0.2280 N   0  0  0  0  0  0  0  0  0  0  0  0
    4.2280   -9.2440    2.4520 N   0  0  0  0  0  0  0  0  0  0  0  0
    4.1260   -8.9250    3.7520 C   0  0  0  0  0  0  0  0  0  0  0  0
    3.8920   -9.9560    4.6170 N   0  0  0  0  0  0  0  0  0  0  0  0
    4.2390   -7.7040    4.2850 N   0  0  0  0  0  2  0  0  0  0  0  0
    4.4820   -6.7580    3.3680 C   0  0  0  0  0  0  0  0  0  0  0  0
    4.7280   -7.9590   -0.4970 H   0  0  0  0  0  0  0  0  0  0  0  0
    4.4330   -9.6140    0.0180 H   0  0  0  0  0  0  0  0  0  0  0  0
    3.8920   -9.7510    5.6000 H   0  0  0  0  0  0  0  0  0  0  0  0
    3.8750  -10.8850    4.2350 H   0  0  0  0  0  0  0  0  0  0  0  0
    4.3590   -3.0070    7.2660 O   0  0  0  0  0  0  0  0  0  0  0  0
    4.3290   -2.1770    6.7490 H   0  0  0  0  0  0  0  0  0  0  0  0
    2.5080   -6.2170    7.4420 C   0  0  0  0  0  2  0  0  0  0  0  0
    2.3550   -7.2880    6.5230 O   0  0  0  0  0  0  0  0  0  0  0  0
    0.8670   -7.8380    6.2160 P   0  0  2  0  0  0  0  0  0  0  0  0
    0.0410   -6.8900    5.4050 O   0  0  0  0  0  0  0  0  0  0  0  0
    0.2890   -8.0670    7.7060 O   0  0  0  0  0  0  0  0  0  0  0  0
   -0.9960   -7.5720    8.0230 C   0  0  0  0  0  1  0  0  0  0  0  0
    1.1220   -9.3190    5.6770 O   0  0  0  0  0  0  0  0  0  0  0  0
   -0.0400  -10.2320    4.7760 P   0  0  2  0  0  0  0  0  0  0  0  0
    0.2070  -11.4400    5.6820 O   0  0  0  0  0  0  0  0  0  0  0  0
    0.9620  -10.2500    3.4720 O   0  0  0  0  0  0  0  0  0  0  0  0
    1.1060  -11.4470    2.7200 C   0  0  0  0  0  1  0  0  0  0  0  0
   -1.2020  -11.1430    3.8760 O   0  0  0  0  0  0  0  0  0  0  0  0
   -2.7070  -10.6280    4.0620 P   0  0  0  0  0  0  0  0  0  0  0  0
   -3.3690  -10.0810    2.8370 O   0  0  0  0  0  0  0  0  0  0  0  0
   -4.8490  -11.9490    4.5880 C   0  0  0  0  0  1  0  0  0  0  0  0
   -3.4420  -11.8920    4.7360 O   0  0  0  0  0  0  0  0  0  0  0  0
   -2.6070   -9.5950    5.2930 O   0  0  0  0  0  0  0  0  0  0  0  0
   -3.2170   -8.3320    5.1130 C   0  0  0  0  0  1  0  0  0  0  0  0
  1 25  1  6  0  0  0
  2  1  1  0  0  0  0
  3  8  1  6  0  0  0
  3  4  1  0  0  0  0
  3  2  1  0  0  0  0
  4  5  1  6  0  0  0
  4  7  1  0  0  0  0
  6  4  1  0  0  0  0
  7  1  1  0  0  0  0
  7 23  1  1  0  0  0
  9  8  1  0  0  0  0
 10 11  1  0  0  0  0
 10  9  2  0  0  0  0
 11 18  2  0  0  0  0
 12 13  1  1  0  0  0
 12 11  1  0  0  0  0
 12 14  1  0  0  0  0
 14 15  2  0  0  0  0
 15 17  1  0  0  0  0
 15 16  1  0  0  0  0
 16 21  1  0  0  0  0
 18  8  1  0  0  0  0
 18 17  1  0  0  0  0
 19 13  1  0  0  0  0
 20 13  1  0  0  0  0
 22 16  1  0  0  0  0
 24 23  1  0  0  0  0
 26 25  1  0  0  0  0
 27 28  2  6  0  0  0
 27 26  1  0  0  0  0
 27 29  1  0  0  0  0
 29 30  1  0  0  0  0
 31 27  1  0  0  0  0
 32 31  1  0  0  0  0
 32 33  2  1  0  0  0
 34 32  1  0  0  0  0
 35 34  1  0  0  0  0
 36 37  1  0  0  0  0
 36 32  1  0  0  0  0
 37 40  1  0  0  0  0
 37 41  1  0  0  0  0
 38 37  2  0  0  0  0
 39 40  1  0  0  0  0
 42 41  1  0  0  0  0
M  END
>  <minimizedAffinity>
-6.17096329

$$$$

 OpenBabel09122223253D

 42 44  0  0  1  0  0  0  0  0999 V2000
    3.4910   -9.1980    2.3230 C   0  0  1  0  0  3  0  0  0  0  0  0
    4.3980  -10.3220    2.2450 O   0  0  0  0  0  0  0  0  0  0  0  0
    3.6980  -11.4190    1.6060 C   0  0  2  0  0  3  0  0  0  0  0  0
    2.2130  -11.2060    1.9030 C   0  0  2  0  0  0  0  0  0  0  0  0
    1.7300  -11.7500    3.2410 C   0  0  0  0  0  1  0  0  0  0  0  0
    1.4200  -11.7280    0.9240 F   0  0  0  0  0  0  0  0  0  0  0  0
    2.1290   -9.6860    1.8160 C   0  0  2  0  0  3  0  0  0  0  0  0
    4.2570  -12.6860    2.0510 N   0  0  0  0  0  0  0  0  0  0  0  0
    4.9440  -12.9250    3.2190 C   0  0  0  0  0  3  0  0  0  0  0  0
    5.2970  -14.2590    3.2380 C   0  0  0  0  0  3  0  0  0  0  0  0
    4.8100  -14.8510    2.0420 C   0  0  0  0  0  0  0  0  0  0  0  0
    4.8220  -16.1210    1.4530 C   0  0  1  0  0  3  0  0  0  0  0  0
    5.4180  -17.2200    2.0260 N   0  0  0  0  0  0  0  0  0  0  0  0
    4.2190  -16.2890    0.2600 N   0  0  0  0  0  0  0  0  0  0  0  0
    3.6300  -15.2380   -0.3320 C   0  0  0  0  0  0  0  0  0  0  0  0
    3.0240  -15.4740   -1.5340 N   0  0  0  0  0  0  0  0  0  0  0  0
    3.5670  -13.9870    0.1400 N   0  0  0  0  0  2  0  0  0  0  0  0
    4.1720  -13.8510    1.3280 C   0  0  0  0  0  0  0  0  0  0  0  0
    5.8990  -17.1620    2.9080 H   0  0  0  0  0  0  0  0  0  0  0  0
    5.3740  -18.0830    1.5040 H   0  0  0  0  0  0  0  0  0  0  0  0
    2.5100  -14.7200   -1.9540 H   0  0  0  0  0  0  0  0  0  0  0  0
    3.0050  -16.4220   -1.8640 H   0  0  0  0  0  0  0  0  0  0  0  0
    1.9990   -9.3060    0.4310 O   0  0  0  0  0  0  0  0  0  0  0  0
    1.3270   -9.9020    0.0440 H   0  0  0  0  0  0  0  0  0  0  0  0
    3.5180   -8.6410    3.7500 C   0  0  0  0  0  2  0  0  0  0  0  0
    2.2100   -8.4070    4.2500 O   0  0  0  0  0  0  0  0  0  0  0  0
    2.0380   -7.4750    5.5590 P   0  0  2  0  0  0  0  0  0  0  0  0
    1.7230   -6.0490    5.2320 O   0  0  0  0  0  0  0  0  0  0  0  0
    3.4700   -7.6570    6.2810 O   0  0  0  0  0  0  0  0  0  0  0  0
    3.5560   -7.4840    7.6800 C   0  0  0  0  0  1  0  0  0  0  0  0
    1.0390   -8.3110    6.4820 O   0  0  0  0  0  0  0  0  0  0  0  0
   -0.5580   -7.7900    6.8940 P   0  0  2  0  0  0  0  0  0  0  0  0
    0.0110   -6.9530    8.0420 O   0  0  0  0  0  0  0  0  0  0  0  0
   -0.9410   -9.3080    7.3970 O   0  0  0  0  0  0  0  0  0  0  0  0
   -0.6110  -10.4190    6.5740 C   0  0  0  0  0  1  0  0  0  0  0  0
   -2.1560   -7.2680    7.3060 O   0  0  0  0  0  0  0  0  0  0  0  0
   -3.1840   -7.3170    6.0790 P   0  0  0  0  0  0  0  0  0  0  0  0
   -4.0320   -6.1000    5.8850 O   0  0  0  0  0  0  0  0  0  0  0  0
   -2.7550   -8.6750    3.9380 C   0  0  0  0  0  1  0  0  0  0  0  0
   -2.2410   -7.7050    4.8320 O   0  0  0  0  0  0  0  0  0  0  0  0
   -4.0040   -8.6810    6.3230 O   0  0  0  0  0  0  0  0  0  0  0  0
   -4.4000   -8.9530    7.6540 C   0  0  0  0  0  1  0  0  0  0  0  0
  1 25  1  1  0  0  0
  2  1  1  0  0  0  0
  3  4  1  0  0  0  0
  3  8  1  1  0  0  0
  3  2  1  0  0  0  0
  4  5  1  1  0  0  0
  6  4  1  0  0  0  0
  7 23  1  6  0  0  0
  7  4  1  0  0  0  0
  7  1  1  0  0  0  0
  8  9  1  0  0  0  0
  9 10  2  0  0  0  0
 11 10  1  0  0  0  0
 12 13  1  1  0  0  0
 12 11  1  0  0  0  0
 13 19  1  0  0  0  0
 14 12  1  0  0  0  0
 15 17  1  0  0  0  0
 15 14  2  0  0  0  0
 16 15  1  0  0  0  0
 17 18  1  0  0  0  0
 18 11  2  0  0  0  0
 18  8  1  0  0  0  0
 20 13  1  0  0  0  0
 21 16  1  0  0  0  0
 22 16  1  0  0  0  0
 24 23  1  0  0  0  0
 25 26  1  0  0  0  0
 26 27  1  0  0  0  0
 27 28  2  6  0  0  0
 27 29  1  0  0  0  0
 27 31  1  0  0  0  0
 29 30  1  0  0  0  0
 31 32  1  0  0  0  0
 32 36  1  0  0  0  0
 32 34  1  0  0  0  0
 32 33  2  1  0  0  0
 35 34  1  0  0  0  0
 37 41  1  0  0  0  0
 37 36  1  0  0  0  0
 38 37  2  0  0  0  0
 39 40  1  0  0  0  0
 40 37  1  0  0  0  0
 41 42  1  0  0  0  0
M  END
>  <minimizedAffinity>
-6.15100098

$$$$

 OpenBabel09122223253D

 42 44  0  0  1  0  0  0  0  0999 V2000
   -0.4640   -8.6340    6.2850 C   0  0  1  0  0  3  0  0  0  0  0  0
   -1.4710   -9.3130    7.0710 O   0  0  0  0  0  0  0  0  0  0  0  0
   -2.7210   -9.2590    6.3390 C   0  0  2  0  0  3  0  0  0  0  0  0
   -2.6490   -8.0060    5.4660 C   0  0  2  0  0  0  0  0  0  0  0  0
   -3.0580   -6.7080    6.1500 C   0  0  0  0  0  1  0  0  0  0  0  0
   -3.3920   -8.1370    4.3300 F   0  0  0  0  0  0  0  0  0  0  0  0
   -1.1770   -8.0290    5.0700 C   0  0  2  0  0  3  0  0  0  0  0  0
   -3.8390   -9.3200    7.2680 N   0  0  0  0  0  0  0  0  0  0  0  0
   -3.9680   -8.6400    8.4570 C   0  0  0  0  0  3  0  0  0  0  0  0
   -5.1770   -8.9930    9.0190 C   0  0  0  0  0  3  0  0  0  0  0  0
   -5.8060   -9.9190    8.1450 C   0  0  0  0  0  0  0  0  0  0  0  0
   -7.0030  -10.6440    8.1140 C   0  0  1  0  0  3  0  0  0  0  0  0
   -7.9560  -10.5820    9.1040 N   0  0  0  0  0  0  0  0  0  0  0  0
   -7.2470  -11.4490    7.0610 N   0  0  0  0  0  0  0  0  0  0  0  0
   -6.3380  -11.5380    6.0770 C   0  0  0  0  0  0  0  0  0  0  0  0
   -6.6490  -12.3600    5.0310 N   0  0  0  0  0  0  0  0  0  0  0  0
   -5.1660  -10.8970    6.0130 N   0  0  0  0  0  2  0  0  0  0  0  0
   -4.9510  -10.1030    7.0700 C   0  0  0  0  0  0  0  0  0  0  0  0
   -7.8300  -10.0140    9.9240 H   0  0  0  0  0  0  0  0  0  0  0  0
   -8.7750  -11.1570    8.9800 H   0  0  0  0  0  0  0  0  0  0  0  0
   -6.0200  -12.3790    4.2480 H   0  0  0  0  0  0  0  0  0  0  0  0
   -7.5560  -12.7920    5.0360 H   0  0  0  0  0  0  0  0  0  0  0  0
   -1.0080   -8.9270    3.9540 O   0  0  0  0  0  0  0  0  0  0  0  0
   -1.7290   -8.7200    3.3250 H   0  0  0  0  0  0  0  0  0  0  0  0
    0.2830   -7.6480    7.1880 C   0  0  0  0  0  2  0  0  0  0  0  0
    1.1250   -6.7820    6.4420 O   0  0  0  0  0  0  0  0  0  0  0  0
    2.7250   -6.9780    6.5500 P   0  0  2  0  0  0  0  0  0  0  0  0
    3.1920   -8.3130    6.0610 O   0  0  0  0  0  0  0  0  0  0  0  0
    2.9770   -6.7600    8.1290 O   0  0  0  0  0  0  0  0  0  0  0  0
    2.8210   -5.4650    8.6730 C   0  0  0  0  0  1  0  0  0  0  0  0
    3.3080   -5.6480    5.8860 O   0  0  0  0  0  0  0  0  0  0  0  0
    3.9380   -5.5690    4.2760 P   0  0  2  0  0  0  0  0  0  0  0  0
    5.2470   -4.9890    4.8170 O   0  0  0  0  0  0  0  0  0  0  0  0
    2.8690   -4.3780    3.8990 O   0  0  0  0  0  0  0  0  0  0  0  0
    3.2440   -3.0200    4.0840 C   0  0  0  0  0  1  0  0  0  0  0  0
    4.5680   -5.4910    2.6670 O   0  0  0  0  0  0  0  0  0  0  0  0
    5.1360   -6.8900    2.1310 P   0  0  0  0  0  0  0  0  0  0  0  0
    5.7960   -7.7630    3.1490 O   0  0  0  0  0  0  0  0  0  0  0  0
    3.5570   -8.8790    1.7280 C   0  0  0  0  0  1  0  0  0  0  0  0
    3.8620   -7.5380    1.3890 O   0  0  0  0  0  0  0  0  0  0  0  0
    6.0740   -6.4690    0.8910 O   0  0  0  0  0  0  0  0  0  0  0  0
    5.4390   -6.3320   -0.3660 C   0  0  0  0  0  1  0  0  0  0  0  0
  1  2  1  0  0  0  0
  1 25  1  1  0  0  0
  3  2  1  0  0  0  0
  3  8  1  1  0  0  0
  4  5  1  1  0  0  0
  4  3  1  0  0  0  0
  6  4  1  0  0  0  0
  7 23  1  6  0  0  0
  7  4  1  0  0  0  0
  7  1  1  0  0  0  0
  8  9  1  0  0  0  0
  9 10  2  0  0  0  0
 11 10  1  0  0  0  0
 12 11  1  0  0  0  0
 12 13  1  6  0  0  0
 13 19  1  0  0  0  0
 14 12  1  0  0  0  0
 15 14  2  0  0  0  0
 16 22  1  0  0  0  0
 16 15  1  0  0  0  0
 17 15  1  0  0  0  0
 17 18  1  0  0  0  0
 18  8  1  0  0  0  0
 18 11  2  0  0  0  0
 20 13  1  0  0  0  0
 21 16  1  0  0  0  0
 24 23  1  0  0  0  0
 26 27  1  0  0  0  0
 26 25  1  0  0  0  0
 27 28  2  6  0  0  0
 27 29  1  0  0  0  0
 29 30  1  0  0  0  0
 31 27  1  0  0  0  0
 32 33  2  1  0  0  0
 32 31  1  0  0  0  0
 34 35  1  0  0  0  0
 34 32  1  0  0  0  0
 36 32  1  0  0  0  0
 37 36  1  0  0  0  0
 37 38  2  0  0  0  0
 40 39  1  0  0  0  0
 40 37  1  0  0  0  0
 41 37  1  0  0  0  0
 42 41  1  0  0  0  0
M  END
>  <minimizedAffinity>
-6.08202267

$$$$

 OpenBabel09122223253D

 42 44  0  0  1  0  0  0  0  0999 V2000
    4.8270   -9.7520    4.2690 C   0  0  1  0  0  3  0  0  0  0  0  0
    3.7160  -10.4980    3.7190 O   0  0  0  0  0  0  0  0  0  0  0  0
    3.4890  -11.6530    4.5640 C   0  0  2  0  0  3  0  0  0  0  0  0
    4.8370  -11.9780    5.2090 C   0  0  2  0  0  0  0  0  0  0  0  0
    5.7710  -12.8430    4.3730 C   0  0  0  0  0  1  0  0  0  0  0  0
    4.6850  -12.5760    6.4260 F   0  0  0  0  0  0  0  0  0  0  0  0
    5.3800  -10.5720    5.4400 C   0  0  2  0  0  3  0  0  0  0  0  0
    2.8860  -12.7230    3.7850 N   0  0  0  0  0  0  0  0  0  0  0  0
    2.1460  -13.7800    4.2600 C   0  0  0  0  0  3  0  0  0  0  0  0
    1.7720  -14.5560    3.1820 C   0  0  0  0  0  3  0  0  0  0  0  0
    2.3020  -13.9510    2.0110 C   0  0  0  0  0  0  0  0  0  0  0  0
    2.2980  -14.2120    0.6360 C   0  0  1  0  0  3  0  0  0  0  0  0
    1.6710  -15.2960    0.0690 N   0  0  0  0  0  0  0  0  0  0  0  0
    2.9380  -13.3590   -0.1880 N   0  0  0  0  0  0  0  0  0  0  0  0
    3.5650  -12.2900    0.3290 C   0  0  0  0  0  0  0  0  0  0  0  0
    4.1840  -11.4570   -0.5580 N   0  0  0  0  0  0  0  0  0  0  0  0
    3.6350  -11.9550    1.6230 N   0  0  0  0  0  2  0  0  0  0  0  0
    2.9880  -12.8180    2.4180 C   0  0  0  0  0  0  0  0  0  0  0  0
    1.1880  -15.9790    0.6270 H   0  0  0  0  0  0  0  0  0  0  0  0
    1.7430  -15.3880   -0.9340 H   0  0  0  0  0  0  0  0  0  0  0  0
    4.5900  -10.6100   -0.1990 H   0  0  0  0  0  0  0  0  0  0  0  0
    4.0790  -11.6610   -1.5350 H   0  0  0  0  0  0  0  0  0  0  0  0
    4.8180  -10.0510    6.6620 O   0  0  0  0  0  0  0  0  0  0  0  0
    4.8890  -10.7680    7.3250 H   0  0  0  0  0  0  0  0  0  0  0  0
    5.8150   -9.4370    3.1420 C   0  0  0  0  0  2  0  0  0  0  0  0
    6.0590   -8.0430    3.0280 O   0  0  0  0  0  0  0  0  0  0  0  0
    5.1170   -7.1710    2.0470 P   0  0  2  0  0  0  0  0  0  0  0  0
    3.8220   -7.8440    1.7150 O   0  0  0  0  0  0  0  0  0  0  0  0
    6.0750   -6.9740    0.7630 O   0  0  0  0  0  0  0  0  0  0  0  0
    5.5930   -7.3460   -0.5120 C   0  0  0  0  0  1  0  0  0  0  0  0
    5.1010   -5.7290    2.7320 O   0  0  0  0  0  0  0  0  0  0  0  0
    4.0900   -5.3080    4.0720 P   0  0  2  0  0  0  0  0  0  0  0  0
    3.5910   -4.0790    3.3090 O   0  0  0  0  0  0  0  0  0  0  0  0
    5.4140   -4.9490    4.9790 O   0  0  0  0  0  0  0  0  0  0  0  0
    5.5660   -3.6370    5.5030 C   0  0  0  0  0  1  0  0  0  0  0  0
    3.0780   -4.8880    5.4110 O   0  0  0  0  0  0  0  0  0  0  0  0
    2.7200   -6.1280    6.3590 P   0  0  0  0  0  0  0  0  0  0  0  0
    3.6520   -7.2950    6.2940 O   0  0  0  0  0  0  0  0  0  0  0  0
    3.7500   -5.3810    8.5930 C   0  0  0  0  0  1  0  0  0  0  0  0
    2.5730   -5.4440    7.8100 O   0  0  0  0  0  0  0  0  0  0  0  0
    1.1900   -6.4640    5.9840 O   0  0  0  0  0  0  0  0  0  0  0  0
    0.8910   -7.8150    5.6900 C   0  0  0  0  0  1  0  0  0  0  0  0
  1 25  1  6  0  0  0
  1  7  1  0  0  0  0
  2  1  1  0  0  0  0
  2  3  1  0  0  0  0
  3  8  1  6  0  0  0
  3  4  1  0  0  0  0
  4  5  1  6  0  0  0
  4  7  1  0  0  0  0
  4  6  1  0  0  0  0
  7 23  1  1  0  0  0
  8  9  1  0  0  0  0
 10  9  2  0  0  0  0
 11 18  2  0  0  0  0
 11 10  1  0  0  0  0
 12 13  1  6  0  0  0
 12 11  1  0  0  0  0
 13 19  1  0  0  0  0
 14 15  2  0  0  0  0
 14 12  1  0  0  0  0
 15 17  1  0  0  0  0
 16 21  1  0  0  0  0
 16 15  1  0  0  0  0
 17 18  1  0  0  0  0
 18  8  1  0  0  0  0
 20 13  1  0  0  0  0
 22 16  1  0  0  0  0
 23 24  1  0  0  0  0
 26 25  1  0  0  0  0
 27 28  2  6  0  0  0
 27 31  1  0  0  0  0
 27 26  1  0  0  0  0
 29 27  1  0  0  0  0
 30 29  1  0  0  0  0
 31 32  1  0  0  0  0
 32 33  2  6  0  0  0
 32 34  1  0  0  0  0
 32 36  1  0  0  0  0
 34 35  1  0  0  0  0
 36 37  1  0  0  0  0
 37 40  1  0  0  0  0
 38 37  2  0  0  0  0
 40 39  1  0  0  0  0
 41 37  1  0  0  0  0
 42 41  1  0  0  0  0
M  END
>  <minimizedAffinity>
-6.0369997

$$$$

 OpenBabel09122223253D

 42 44  0  0  1  0  0  0  0  0999 V2000
    1.1360   -6.9020    6.8390 C   0  0  1  0  0  3  0  0  0  0  0  0
   -0.1690   -7.1790    6.2760 O   0  0  0  0  0  0  0  0  0  0  0  0
   -1.0650   -7.5090    7.3660 C   0  0  2  0  0  3  0  0  0  0  0  0
   -0.1880   -8.0840    8.4790 C   0  0  2  0  0  0  0  0  0  0  0  0
    0.1260   -9.5700    8.3620 C   0  0  0  0  0  1  0  0  0  0  0  0
   -0.7250   -7.8620    9.7130 F   0  0  0  0  0  0  0  0  0  0  0  0
    1.0490   -7.2040    8.3390 C   0  0  2  0  0  3  0  0  0  0  0  0
   -2.1280   -8.3770    6.8850 N   0  0  0  0  0  0  0  0  0  0  0  0
   -3.4070   -8.4770    7.3790 C   0  0  0  0  0  3  0  0  0  0  0  0
   -4.0800   -9.4220    6.6330 C   0  0  0  0  0  3  0  0  0  0  0  0
   -3.1800   -9.9150    5.6500 C   0  0  0  0  0  0  0  0  0  0  0  0
   -3.2160  -10.8520    4.6100 C   0  0  1  0  0  3  0  0  0  0  0  0
   -4.3260  -11.6020    4.3000 N   0  0  0  0  0  0  0  0  0  0  0  0
   -2.1080  -11.0370    3.8650 N   0  0  0  0  0  0  0  0  0  0  0  0
   -1.0040  -10.3260    4.1400 C   0  0  0  0  0  0  0  0  0  0  0  0
    0.0820  -10.5490    3.3420 N   0  0  0  0  0  0  0  0  0  0  0  0
   -0.8630   -9.4150    5.1100 N   0  0  0  0  0  2  0  0  0  0  0  0
   -1.9790   -9.2490    5.8330 C   0  0  0  0  0  0  0  0  0  0  0  0
   -5.1800  -11.5250    4.8260 H   0  0  0  0  0  0  0  0  0  0  0  0
   -4.2320  -12.2550    3.5370 H   0  0  0  0  0  0  0  0  0  0  0  0
    0.8910   -9.9700    3.4800 H   0  0  0  0  0  0  0  0  0  0  0  0
   -0.0350  -11.1790    2.5680 H   0  0  0  0  0  0  0  0  0  0  0  0
    0.8190   -5.9630    9.0370 O   0  0  0  0  0  0  0  0  0  0  0  0
    0.4280   -6.2030    9.9020 H   0  0  0  0  0  0  0  0  0  0  0  0
    2.1880   -7.6900    6.0530 C   0  0  0  0  0  2  0  0  0  0  0  0
    2.4450   -7.1080    4.7840 O   0  0  0  0  0  0  0  0  0  0  0  0
    3.4490   -5.8450    4.7000 P   0  0  2  0  0  0  0  0  0  0  0  0
    4.3490   -5.7250    5.8890 O   0  0  0  0  0  0  0  0  0  0  0  0
    2.4140   -4.6130    4.5640 O   0  0  0  0  0  0  0  0  0  0  0  0
    2.9040   -3.3530    4.1560 C   0  0  0  0  0  1  0  0  0  0  0  0
    4.0830   -5.9710    3.2410 O   0  0  0  0  0  0  0  0  0  0  0  0
    4.4100   -7.4790    2.4580 P   0  0  2  0  0  0  0  0  0  0  0  0
    5.6220   -7.6890    3.3680 O   0  0  0  0  0  0  0  0  0  0  0  0
    4.8310   -6.6890    1.0780 O   0  0  0  0  0  0  0  0  0  0  0  0
    4.3130   -7.1360   -0.1680 C   0  0  0  0  0  1  0  0  0  0  0  0
    4.7350   -8.9870    1.6740 O   0  0  0  0  0  0  0  0  0  0  0  0
    4.1140  -10.2530    2.4330 P   0  0  0  0  0  0  0  0  0  0  0  0
    3.0320   -9.9580    3.4220 O   0  0  0  0  0  0  0  0  0  0  0  0
    2.9640  -12.3890    1.5810 C   0  0  0  0  0  1  0  0  0  0  0  0
    3.6940  -11.2300    1.2230 O   0  0  0  0  0  0  0  0  0  0  0  0
    5.4030  -11.0010    3.0440 O   0  0  0  0  0  0  0  0  0  0  0  0
    5.3890  -11.2510    4.4360 C   0  0  0  0  0  1  0  0  0  0  0  0
  1 25  1  6  0  0  0
  1  7  1  0  0  0  0
  2  1  1  0  0  0  0
  2  3  1  0  0  0  0
  3  8  1  6  0  0  0
  3  4  1  0  0  0  0
  4  5  1  6  0  0  0
  4  6  1  0  0  0  0
  7  4  1  0  0  0  0
  7 23  1  1  0  0  0
  8  9  1  0  0  0  0
 10  9  2  0  0  0  0
 11 18  2  0  0  0  0
 11 10  1  0  0  0  0
 12 13  1  6  0  0  0
 12 11  1  0  0  0  0
 13 19  1  0  0  0  0
 14 15  2  0  0  0  0
 14 12  1  0  0  0  0
 15 17  1  0  0  0  0
 16 21  1  0  0  0  0
 16 15  1  0  0  0  0
 17 18  1  0  0  0  0
 18  8  1  0  0  0  0
 20 13  1  0  0  0  0
 22 16  1  0  0  0  0
 23 24  1  0  0  0  0
 26 25  1  0  0  0  0
 27 26  1  0  0  0  0
 27 28  2  1  0  0  0
 29 27  1  0  0  0  0
 30 29  1  0  0  0  0
 31 27  1  0  0  0  0
 32 31  1  0  0  0  0
 32 33  2  1  0  0  0
 34 32  1  0  0  0  0
 35 34  1  0  0  0  0
 36 37  1  0  0  0  0
 36 32  1  0  0  0  0
 37 41  1  0  0  0  0
 37 38  2  0  0  0  0
 40 39  1  0  0  0  0
 40 37  1  0  0  0  0
 41 42  1  0  0  0  0
M  END
>  <minimizedAffinity>
-6.02369547

$$$$

 OpenBabel09122223253D

 42 44  0  0  1  0  0  0  0  0999 V2000
    3.2450  -11.1270    1.9500 C   0  0  1  0  0  3  0  0  0  0  0  0
    4.1720  -12.1300    1.4740 O   0  0  0  0  0  0  0  0  0  0  0  0
    3.5760  -12.7800    0.3240 C   0  0  2  0  0  3  0  0  0  0  0  0
    2.0620  -12.6600    0.5050 C   0  0  2  0  0  0  0  0  0  0  0  0
    1.4200  -13.7330    1.3740 C   0  0  0  0  0  1  0  0  0  0  0  0
    1.4090  -12.6400   -0.6930 F   0  0  0  0  0  0  0  0  0  0  0  0
    1.9660  -11.2670    1.1160 C   0  0  2  0  0  3  0  0  0  0  0  0
    4.0930  -14.1340    0.2010 N   0  0  0  0  0  0  0  0  0  0  0  0
    4.1630  -14.8950   -0.9430 C   0  0  0  0  0  3  0  0  0  0  0  0
    4.7160  -16.1140   -0.6100 C   0  0  0  0  0  3  0  0  0  0  0  0
    4.9920  -16.0960    0.7840 C   0  0  0  0  0  0  0  0  0  0  0  0
    5.5340  -16.9750    1.7300 C   0  0  1  0  0  3  0  0  0  0  0  0
    5.9700  -18.2430    1.4270 N   0  0  0  0  0  0  0  0  0  0  0  0
    5.6400  -16.5660    3.0100 N   0  0  0  0  0  0  0  0  0  0  0  0
    5.2200  -15.3350    3.3430 C   0  0  0  0  0  0  0  0  0  0  0  0
    5.3660  -14.9740    4.6530 N   0  0  0  0  0  0  0  0  0  0  0  0
    4.6850  -14.4240    2.5220 N   0  0  0  0  0  2  0  0  0  0  0  0
    4.5940  -14.8560    1.2570 C   0  0  0  0  0  0  0  0  0  0  0  0
    5.9060  -18.6160    0.4960 H   0  0  0  0  0  0  0  0  0  0  0  0
    6.3320  -18.7920    2.1930 H   0  0  0  0  0  0  0  0  0  0  0  0
    5.1330  -14.0310    4.9060 H   0  0  0  0  0  0  0  0  0  0  0  0
    5.8300  -15.6240    5.2620 H   0  0  0  0  0  0  0  0  0  0  0  0
    2.0090  -10.2890    0.0560 O   0  0  0  0  0  0  0  0  0  0  0  0
    1.4010  -10.6120   -0.6390 H   0  0  0  0  0  0  0  0  0  0  0  0
    3.0810  -11.2870    3.4650 C   0  0  0  0  0  2  0  0  0  0  0  0
    4.3340  -11.2920    4.1340 O   0  0  0  0  0  0  0  0  0  0  0  0
    4.9180   -9.8930    4.6930 P   0  0  2  0  0  0  0  0  0  0  0  0
    5.7120   -9.1340    3.6760 O   0  0  0  0  0  0  0  0  0  0  0  0
    5.8050  -10.3870    5.9480 O   0  0  0  0  0  0  0  0  0  0  0  0
    5.7170  -11.7360    6.3570 C   0  0  0  0  0  1  0  0  0  0  0  0
    3.6480   -9.2050    5.3740 O   0  0  0  0  0  0  0  0  0  0  0  0
    3.2810   -7.5190    5.2490 P   0  0  2  0  0  0  0  0  0  0  0  0
    3.8650   -7.2890    6.6440 O   0  0  0  0  0  0  0  0  0  0  0  0
    1.6710   -7.8470    5.3220 O   0  0  0  0  0  0  0  0  0  0  0  0
    1.2360   -9.0740    5.8920 C   0  0  0  0  0  1  0  0  0  0  0  0
    2.9150   -5.8330    5.1230 O   0  0  0  0  0  0  0  0  0  0  0  0
    3.8280   -5.0540    4.0620 P   0  0  0  0  0  0  0  0  0  0  0  0
    3.2980   -3.7420    3.5790 O   0  0  0  0  0  0  0  0  0  0  0  0
    5.4600   -3.9060    5.6850 C   0  0  0  0  0  1  0  0  0  0  0  0
    5.2610   -4.9900    4.7960 O   0  0  0  0  0  0  0  0  0  0  0  0
    4.0850   -6.1460    2.9070 O   0  0  0  0  0  0  0  0  0  0  0  0
    5.1930   -5.9190    2.0560 C   0  0  0  0  0  1  0  0  0  0  0  0
  1 25  1  1  0  0  0
  2  1  1  0  0  0  0
  3  8  1  1  0  0  0
  3  4  1  0  0  0  0
  3  2  1  0  0  0  0
  4  7  1  0  0  0  0
  4  5  1  1  0  0  0
  6  4  1  0  0  0  0
  7 23  1  6  0  0  0
  7  1  1  0  0  0  0
  8 18  1  0  0  0  0
  9 10  2  0  0  0  0
  9  8  1  0  0  0  0
 10 11  1  0  0  0  0
 11 18  2  0  0  0  0
 11 12  1  0  0  0  0
 12 13  1  6  0  0  0
 12 14  1  0  0  0  0
 13 20  1  0  0  0  0
 14 15  2  0  0  0  0
 15 16  1  0  0  0  0
 16 21  1  0  0  0  0
 16 22  1  0  0  0  0
 17 15  1  0  0  0  0
 18 17  1  0  0  0  0
 19 13  1  0  0  0  0
 24 23  1  0  0  0  0
 25 26  1  0  0  0  0
 26 27  1  0  0  0  0
 27 28  2  6  0  0  0
 27 31  1  0  0  0  0
 27 29  1  0  0  0  0
 29 30  1  0  0  0  0
 32 34  1  0  0  0  0
 32 31  1  0  0  0  0
 32 33  2  1  0  0  0
 34 35  1  0  0  0  0
 36 32  1  0  0  0  0
 37 40  1  0  0  0  0
 37 36  1  0  0  0  0
 38 37  2  0  0  0  0
 40 39  1  0  0  0  0
 41 37  1  0  0  0  0
 42 41  1  0  0  0  0
M  END
>  <minimizedAffinity>
-6.01038504

$$$$
