
 OpenBabel09132204463D

 42 44  0  0  1  0  0  0  0  0999 V2000
    4.8270   -9.7520    4.2690 C   0  0  1  0  0  3  0  0  0  0  0  0
    3.7160  -10.4980    3.7190 O   0  0  0  0  0  0  0  0  0  0  0  0
    3.4890  -11.6530    4.5640 C   0  0  2  0  0  3  0  0  0  0  0  0
    4.8370  -11.9780    5.2090 C   0  0  2  0  0  0  0  0  0  0  0  0
    5.7710  -12.8430    4.3730 C   0  0  0  0  0  1  0  0  0  0  0  0
    4.6850  -12.5760    6.4260 F   0  0  0  0  0  0  0  0  0  0  0  0
    5.3800  -10.5720    5.4400 C   0  0  2  0  0  3  0  0  0  0  0  0
    2.8860  -12.7230    3.7850 N   0  0  0  0  0  0  0  0  0  0  0  0
    2.1460  -13.7800    4.2600 C   0  0  0  0  0  3  0  0  0  0  0  0
    1.7720  -14.5560    3.1820 C   0  0  0  0  0  3  0  0  0  0  0  0
    2.3020  -13.9510    2.0110 C   0  0  0  0  0  0  0  0  0  0  0  0
    2.2980  -14.2120    0.6360 C   0  0  1  0  0  3  0  0  0  0  0  0
    1.6710  -15.2960    0.0690 N   0  0  0  0  0  0  0  0  0  0  0  0
    2.9380  -13.3590   -0.1880 N   0  0  0  0  0  0  0  0  0  0  0  0
    3.5650  -12.2900    0.3290 C   0  0  0  0  0  0  0  0  0  0  0  0
    4.1840  -11.4570   -0.5580 N   0  0  0  0  0  0  0  0  0  0  0  0
    3.6350  -11.9550    1.6230 N   0  0  0  0  0  2  0  0  0  0  0  0
    2.9880  -12.8180    2.4180 C   0  0  0  0  0  0  0  0  0  0  0  0
    1.1880  -15.9790    0.6270 H   0  0  0  0  0  0  0  0  0  0  0  0
    1.7430  -15.3880   -0.9340 H   0  0  0  0  0  0  0  0  0  0  0  0
    4.5900  -10.6100   -0.1990 H   0  0  0  0  0  0  0  0  0  0  0  0
    4.0790  -11.6610   -1.5350 H   0  0  0  0  0  0  0  0  0  0  0  0
    4.8180  -10.0510    6.6620 O   0  0  0  0  0  0  0  0  0  0  0  0
    4.8890  -10.7680    7.3250 H   0  0  0  0  0  0  0  0  0  0  0  0
    5.8150   -9.4370    3.1420 C   0  0  0  0  0  2  0  0  0  0  0  0
    6.0590   -8.0430    3.0280 O   0  0  0  0  0  0  0  0  0  0  0  0
    5.1170   -7.1710    2.0470 P   0  0  2  0  0  0  0  0  0  0  0  0
    3.8220   -7.8440    1.7150 O   0  0  0  0  0  0  0  0  0  0  0  0
    6.0750   -6.9740    0.7630 O   0  0  0  0  0  0  0  0  0  0  0  0
    5.5930   -7.3460   -0.5120 C   0  0  0  0  0  1  0  0  0  0  0  0
    5.1010   -5.7290    2.7320 O   0  0  0  0  0  0  0  0  0  0  0  0
    4.0900   -5.3080    4.0720 P   0  0  2  0  0  0  0  0  0  0  0  0
    3.5910   -4.0790    3.3090 O   0  0  0  0  0  0  0  0  0  0  0  0
    5.4140   -4.9490    4.9790 O   0  0  0  0  0  0  0  0  0  0  0  0
    5.5660   -3.6370    5.5030 C   0  0  0  0  0  1  0  0  0  0  0  0
    3.0780   -4.8880    5.4110 O   0  0  0  0  0  0  0  0  0  0  0  0
    2.7200   -6.1280    6.3590 P   0  0  0  0  0  0  0  0  0  0  0  0
    3.6520   -7.2950    6.2940 O   0  0  0  0  0  0  0  0  0  0  0  0
    3.7500   -5.3810    8.5930 C   0  0  0  0  0  1  0  0  0  0  0  0
    2.5730   -5.4440    7.8100 O   0  0  0  0  0  0  0  0  0  0  0  0
    1.1900   -6.4640    5.9840 O   0  0  0  0  0  0  0  0  0  0  0  0
    0.8910   -7.8150    5.6900 C   0  0  0  0  0  1  0  0  0  0  0  0
  1 25  1  6  0  0  0
  1  7  1  0  0  0  0
  2  1  1  0  0  0  0
  2  3  1  0  0  0  0
  3  8  1  6  0  0  0
  3  4  1  0  0  0  0
  4  5  1  6  0  0  0
  4  7  1  0  0  0  0
  4  6  1  0  0  0  0
  7 23  1  1  0  0  0
  8  9  1  0  0  0  0
 10  9  2  0  0  0  0
 11 18  2  0  0  0  0
 11 10  1  0  0  0  0
 12 13  1  6  0  0  0
 12 11  1  0  0  0  0
 13 19  1  0  0  0  0
 14 15  2  0  0  0  0
 14 12  1  0  0  0  0
 15 17  1  0  0  0  0
 16 21  1  0  0  0  0
 16 15  1  0  0  0  0
 17 18  1  0  0  0  0
 18  8  1  0  0  0  0
 20 13  1  0  0  0  0
 22 16  1  0  0  0  0
 23 24  1  0  0  0  0
 26 25  1  0  0  0  0
 27 28  2  6  0  0  0
 27 31  1  0  0  0  0
 27 26  1  0  0  0  0
 29 27  1  0  0  0  0
 30 29  1  0  0  0  0
 31 32  1  0  0  0  0
 32 33  2  6  0  0  0
 32 34  1  0  0  0  0
 32 36  1  0  0  0  0
 34 35  1  0  0  0  0
 36 37  1  0  0  0  0
 37 40  1  0  0  0  0
 38 37  2  0  0  0  0
 40 39  1  0  0  0  0
 41 37  1  0  0  0  0
 42 41  1  0  0  0  0
M  END
>  <minimizedAffinity>
-6.0369997

$$$$
