
 OpenBabel09132204463D

 42 44  0  0  1  0  0  0  0  0999 V2000
    1.1360   -6.9020    6.8390 C   0  0  1  0  0  3  0  0  0  0  0  0
   -0.1690   -7.1790    6.2760 O   0  0  0  0  0  0  0  0  0  0  0  0
   -1.0650   -7.5090    7.3660 C   0  0  2  0  0  3  0  0  0  0  0  0
   -0.1880   -8.0840    8.4790 C   0  0  2  0  0  0  0  0  0  0  0  0
    0.1260   -9.5700    8.3620 C   0  0  0  0  0  1  0  0  0  0  0  0
   -0.7250   -7.8620    9.7130 F   0  0  0  0  0  0  0  0  0  0  0  0
    1.0490   -7.2040    8.3390 C   0  0  2  0  0  3  0  0  0  0  0  0
   -2.1280   -8.3770    6.8850 N   0  0  0  0  0  0  0  0  0  0  0  0
   -3.4070   -8.4770    7.3790 C   0  0  0  0  0  3  0  0  0  0  0  0
   -4.0800   -9.4220    6.6330 C   0  0  0  0  0  3  0  0  0  0  0  0
   -3.1800   -9.9150    5.6500 C   0  0  0  0  0  0  0  0  0  0  0  0
   -3.2160  -10.8520    4.6100 C   0  0  1  0  0  3  0  0  0  0  0  0
   -4.3260  -11.6020    4.3000 N   0  0  0  0  0  0  0  0  0  0  0  0
   -2.1080  -11.0370    3.8650 N   0  0  0  0  0  0  0  0  0  0  0  0
   -1.0040  -10.3260    4.1400 C   0  0  0  0  0  0  0  0  0  0  0  0
    0.0820  -10.5490    3.3420 N   0  0  0  0  0  0  0  0  0  0  0  0
   -0.8630   -9.4150    5.1100 N   0  0  0  0  0  2  0  0  0  0  0  0
   -1.9790   -9.2490    5.8330 C   0  0  0  0  0  0  0  0  0  0  0  0
   -5.1800  -11.5250    4.8260 H   0  0  0  0  0  0  0  0  0  0  0  0
   -4.2320  -12.2550    3.5370 H   0  0  0  0  0  0  0  0  0  0  0  0
    0.8910   -9.9700    3.4800 H   0  0  0  0  0  0  0  0  0  0  0  0
   -0.0350  -11.1790    2.5680 H   0  0  0  0  0  0  0  0  0  0  0  0
    0.8190   -5.9630    9.0370 O   0  0  0  0  0  0  0  0  0  0  0  0
    0.4280   -6.2030    9.9020 H   0  0  0  0  0  0  0  0  0  0  0  0
    2.1880   -7.6900    6.0530 C   0  0  0  0  0  2  0  0  0  0  0  0
    2.4450   -7.1080    4.7840 O   0  0  0  0  0  0  0  0  0  0  0  0
    3.4490   -5.8450    4.7000 P   0  0  2  0  0  0  0  0  0  0  0  0
    4.3490   -5.7250    5.8890 O   0  0  0  0  0  0  0  0  0  0  0  0
    2.4140   -4.6130    4.5640 O   0  0  0  0  0  0  0  0  0  0  0  0
    2.9040   -3.3530    4.1560 C   0  0  0  0  0  1  0  0  0  0  0  0
    4.0830   -5.9710    3.2410 O   0  0  0  0  0  0  0  0  0  0  0  0
    4.4100   -7.4790    2.4580 P   0  0  2  0  0  0  0  0  0  0  0  0
    5.6220   -7.6890    3.3680 O   0  0  0  0  0  0  0  0  0  0  0  0
    4.8310   -6.6890    1.0780 O   0  0  0  0  0  0  0  0  0  0  0  0
    4.3130   -7.1360   -0.1680 C   0  0  0  0  0  1  0  0  0  0  0  0
    4.7350   -8.9870    1.6740 O   0  0  0  0  0  0  0  0  0  0  0  0
    4.1140  -10.2530    2.4330 P   0  0  0  0  0  0  0  0  0  0  0  0
    3.0320   -9.9580    3.4220 O   0  0  0  0  0  0  0  0  0  0  0  0
    2.9640  -12.3890    1.5810 C   0  0  0  0  0  1  0  0  0  0  0  0
    3.6940  -11.2300    1.2230 O   0  0  0  0  0  0  0  0  0  0  0  0
    5.4030  -11.0010    3.0440 O   0  0  0  0  0  0  0  0  0  0  0  0
    5.3890  -11.2510    4.4360 C   0  0  0  0  0  1  0  0  0  0  0  0
  1 25  1  6  0  0  0
  1  7  1  0  0  0  0
  2  1  1  0  0  0  0
  2  3  1  0  0  0  0
  3  8  1  6  0  0  0
  3  4  1  0  0  0  0
  4  5  1  6  0  0  0
  4  6  1  0  0  0  0
  7  4  1  0  0  0  0
  7 23  1  1  0  0  0
  8  9  1  0  0  0  0
 10  9  2  0  0  0  0
 11 18  2  0  0  0  0
 11 10  1  0  0  0  0
 12 13  1  6  0  0  0
 12 11  1  0  0  0  0
 13 19  1  0  0  0  0
 14 15  2  0  0  0  0
 14 12  1  0  0  0  0
 15 17  1  0  0  0  0
 16 21  1  0  0  0  0
 16 15  1  0  0  0  0
 17 18  1  0  0  0  0
 18  8  1  0  0  0  0
 20 13  1  0  0  0  0
 22 16  1  0  0  0  0
 23 24  1  0  0  0  0
 26 25  1  0  0  0  0
 27 26  1  0  0  0  0
 27 28  2  1  0  0  0
 29 27  1  0  0  0  0
 30 29  1  0  0  0  0
 31 27  1  0  0  0  0
 32 31  1  0  0  0  0
 32 33  2  1  0  0  0
 34 32  1  0  0  0  0
 35 34  1  0  0  0  0
 36 37  1  0  0  0  0
 36 32  1  0  0  0  0
 37 41  1  0  0  0  0
 37 38  2  0  0  0  0
 40 39  1  0  0  0  0
 40 37  1  0  0  0  0
 41 42  1  0  0  0  0
M  END
>  <minimizedAffinity>
-6.02369547

$$$$
