REMARK  Name = 
REMARK  9 active torsions:
REMARK  status: ('A' for Active; 'I' for Inactive)
REMARK    1  A    between atoms: C_2  and  C_3
REMARK    2  A    between atoms: C_4  and  C_5
REMARK    3  A    between atoms: C_9  and  C_10
REMARK    4  A    between atoms: C_16  and  S_17
REMARK    5  A    between atoms: S_17  and  C_18
REMARK    6  A    between atoms: C_18  and  C_19
REMARK    7  A    between atoms: C_19  and  C_20
REMARK    8  A    between atoms: C_20  and  O_22
REMARK    9  A    between atoms: O_22  and  C_23
REMARK                            x       y       z     vdW  Elec       q    Type
REMARK                         _______ _______ _______ _____ _____    ______ ____
ROOT
ATOM      1  C   UNL     1       3.868   0.012  -0.047  0.00  0.00    +0.142 A 
ATOM      2  C   UNL     1       4.626   1.101   0.183  0.00  0.00    +0.096 A 
ATOM      3  N   UNL     1       6.005   1.110   0.103  0.00  0.00    -0.222 NA
ATOM      4  C   UNL     1       6.583   0.020  -0.268  0.00  0.00    +0.170 A 
ATOM      5  N   UNL     1       5.926  -1.129  -0.556  0.00  0.00    -0.301 N 
ATOM      6  C   UNL     1       4.568  -1.228  -0.445  0.00  0.00    +0.270 A 
ATOM      7  O   UNL     1       3.975  -2.271  -0.694  0.00  0.00    -0.266 OA
ATOM      8  H   UNL     1       6.426  -1.960  -0.834  0.00  0.00    +0.171 HD
ENDROOT
BRANCH   2   9
ATOM      9  C   UNL     1       3.999   2.420   0.431  0.00  0.00    +0.002 A 
ATOM     10  C   UNL     1       3.237   2.674   1.577  0.00  0.00    +0.010 A 
ATOM     11  C   UNL     1       2.638   3.921   1.766  0.00  0.00    +0.001 A 
ATOM     12  C   UNL     1       2.800   4.928   0.814  0.00  0.00    +0.012 A 
ATOM     13  C   UNL     1       3.574   4.704  -0.333  0.00  0.00    +0.055 A 
ATOM     14  C   UNL     1       4.168   3.444  -0.514  0.00  0.00    +0.022 A 
BRANCH  13  15
ATOM     15  C   UNL     1       3.726   5.782  -1.378  0.00  0.00    +0.417 C 
ATOM     16  F   UNL     1       2.697   5.784  -2.270  0.00  0.00    -0.166 F 
ATOM     17  F   UNL     1       3.764   7.036  -0.847  0.00  0.00    -0.166 F 
ATOM     18  F   UNL     1       4.862   5.657  -2.119  0.00  0.00    -0.166 F 
ENDBRANCH  13  15
ENDBRANCH   2   9
BRANCH   1  20
ATOM     19  N   UNL     1       1.087   0.012  -0.047  0.00  0.00    -0.191 NA
ATOM     20  C   UNL     1       2.348   0.012  -0.047  0.00  0.00    +0.107 C 
ENDBRANCH   1  20
BRANCH   4  21
ATOM     21  S   UNL     1       8.303  -0.024  -0.470  0.00  0.00    -0.087 S 
BRANCH  21  22
ATOM     22  C   UNL     1       8.853  -1.260   0.749  0.00  0.00    +0.088 C 
BRANCH  22  23
ATOM     23  C   UNL     1       8.361  -1.041   2.178  0.00  0.00    +0.132 C 
BRANCH  23  24
ATOM     24  C   UNL     1       7.023  -1.701   2.383  0.00  0.00    +0.313 C 
ATOM     25  O   UNL     1       6.677  -2.723   1.806  0.00  0.00    -0.250 OA
BRANCH  24  26
ATOM     26  O   UNL     1       6.267  -0.946   3.275  0.00  0.00    -0.426 OA
BRANCH  26  27
ATOM     27  C   UNL     1       4.901  -1.175   3.561  0.00  0.00    +0.132 A 
ATOM     28  C   UNL     1       4.207  -2.341   3.253  0.00  0.00    +0.046 A 
ATOM     29  C   UNL     1       2.845  -2.428   3.548  0.00  0.00    +0.004 A 
ATOM     30  C   UNL     1       2.188  -1.361   4.160  0.00  0.00    +0.000 A 
ATOM     31  C   UNL     1       2.893  -0.205   4.490  0.00  0.00    +0.004 A 
ATOM     32  C   UNL     1       4.252  -0.111   4.191  0.00  0.00    +0.046 A 
ENDBRANCH  26  27
ENDBRANCH  24  26
ENDBRANCH  23  24
ENDBRANCH  22  23
ENDBRANCH  21  22
ENDBRANCH   4  21
TORSDOF 9
