
 OpenBabel09122222393D

 32 34  0  0  0  0  0  0  0  0999 V2000
    8.9120   -3.7170    1.0230 C   0  0  0  0  0  0  0  0  0  0  0  0
    9.9840   -2.9140    1.1720 C   0  0  0  0  0  0  0  0  0  0  0  0
   10.3690   -2.3600    2.3780 N   0  0  0  0  0  0  0  0  0  0  0  0
    9.6860   -2.6830    3.4220 C   0  0  0  0  0  0  0  0  0  0  0  0
    8.6090   -3.5040    3.4020 N   0  0  0  0  0  0  0  0  0  0  0  0
    8.1370   -4.0440    2.2390 C   0  0  0  0  0  0  0  0  0  0  0  0
    7.1560   -4.7770    2.2200 O   0  0  0  0  0  0  0  0  0  0  0  0
    8.1020   -3.7190    4.2470 H   0  0  0  0  0  0  0  0  0  0  0  0
   10.9040   -2.6640    0.0390 C   0  0  0  0  0  0  0  0  0  0  0  0
   12.0250   -3.4680   -0.1950 C   0  0  0  0  0  3  0  0  0  0  0  0
   12.8870   -3.1880   -1.2570 C   0  0  0  0  0  3  0  0  0  0  0  0
   12.6340   -2.1040   -2.0990 C   0  0  0  0  0  3  0  0  0  0  0  0
   11.5070   -1.2950   -1.8960 C   0  0  0  0  0  0  0  0  0  0  0  0
   10.6500   -1.5850   -0.8210 C   0  0  0  0  0  3  0  0  0  0  0  0
   11.2470   -0.1050   -2.7860 C   0  0  0  0  0  0  0  0  0  0  0  0
   10.7840   -0.4710   -4.0140 F   0  0  0  0  0  0  0  0  0  0  0  0
   10.3170    0.7490   -2.2750 F   0  0  0  0  0  0  0  0  0  0  0  0
   12.3580    0.6480   -3.0160 F   0  0  0  0  0  0  0  0  0  0  0  0
    8.2130   -4.9680   -1.3600 N   0  0  0  0  0  1  0  0  0  0  0  0
    8.5300   -4.4010   -0.2790 C   0  0  0  0  0  2  0  0  0  0  0  0
   10.1560   -2.0930    4.9810 S   0  0  0  0  0  0  0  0  0  0  0  0
    9.7170   -0.3270    4.9300 C   0  0  0  0  0  2  0  0  0  0  0  0
   10.7060    0.6190    5.6060 C   0  0  0  0  0  2  0  0  0  0  0  0
   10.4080    2.0480    5.2370 C   0  0  0  0  0  0  0  0  0  0  0  0
    9.4470    2.6720    5.6650 O   0  0  0  0  0  0  0  0  0  0  0  0
   11.3590    2.4980    4.3250 O   0  0  0  0  0  0  0  0  0  0  0  0
   11.1370    2.6240    2.9340 C   0  0  0  0  0  0  0  0  0  0  0  0
   10.0290    2.1260    2.2550 C   0  0  0  0  0  3  0  0  0  0  0  0
    9.9470    2.2780    0.8690 C   0  0  0  0  0  3  0  0  0  0  0  0
   10.9600    2.9360    0.1720 C   0  0  0  0  0  3  0  0  0  0  0  0
   12.0550    3.4560    0.8600 C   0  0  0  0  0  3  0  0  0  0  0  0
   12.1440    3.3010    2.2430 C   0  0  0  0  0  3  0  0  0  0  0  0
  1  2  2  0  0  0  0
  1  6  1  0  0  0  0
  2  3  1  0  0  0  0
  3  4  2  0  0  0  0
  4 21  1  0  0  0  0
  5  4  1  0  0  0  0
  5  8  1  0  0  0  0
  6  5  1  0  0  0  0
  7  6  2  0  0  0  0
  9  2  1  0  0  0  0
 10  9  1  0  0  0  0
 11 10  2  0  0  0  0
 12 13  2  0  0  0  0
 12 11  1  0  0  0  0
 13 14  1  0  0  0  0
 14  9  2  0  0  0  0
 15 17  1  0  0  0  0
 15 13  1  0  0  0  0
 16 15  1  0  0  0  0
 18 15  1  0  0  0  0
 19 20  1  0  0  0  0
 20  1  1  0  0  0  0
 22 21  1  0  0  0  0
 22 23  1  0  0  0  0
 24 23  1  0  0  0  0
 24 25  2  0  0  0  0
 26 24  1  0  0  0  0
 27 26  1  0  0  0  0
 28 27  1  0  0  0  0
 29 28  2  0  0  0  0
 30 31  2  0  0  0  0
 30 29  1  0  0  0  0
 31 32  1  0  0  0  0
 32 27  2  0  0  0  0
M  END
>  <minimizedAffinity>
-7.88282156

$$$$
