
 OpenBabel09122222393D

 32 34  0  0  0  0  0  0  0  0999 V2000
    8.9970   -3.5460    0.4620 C   0  0  0  0  0  0  0  0  0  0  0  0
    8.4990   -3.3940    1.7040 C   0  0  0  0  0  0  0  0  0  0  0  0
    7.5120   -4.1970    2.2410 N   0  0  0  0  0  0  0  0  0  0  0  0
    7.0900   -5.1780    1.5200 C   0  0  0  0  0  0  0  0  0  0  0  0
    7.5360   -5.4500    0.2700 N   0  0  0  0  0  0  0  0  0  0  0  0
    8.4700   -4.6670   -0.3460 C   0  0  0  0  0  0  0  0  0  0  0  0
    8.8640   -4.9060   -1.4810 O   0  0  0  0  0  0  0  0  0  0  0  0
    7.1670   -6.2260   -0.2580 H   0  0  0  0  0  0  0  0  0  0  0  0
    9.0810   -2.3990    2.6350 C   0  0  0  0  0  0  0  0  0  0  0  0
    9.5730   -2.7620    3.8930 C   0  0  0  0  0  3  0  0  0  0  0  0
   10.0900   -1.7940    4.7570 C   0  0  0  0  0  3  0  0  0  0  0  0
   10.1250   -0.4540    4.3670 C   0  0  0  0  0  3  0  0  0  0  0  0
    9.6550   -0.0690    3.1040 C   0  0  0  0  0  0  0  0  0  0  0  0
    9.1330   -1.0510    2.2470 C   0  0  0  0  0  3  0  0  0  0  0  0
    9.6650    1.3830    2.6930 C   0  0  0  0  0  0  0  0  0  0  0  0
    9.6660    2.2230    3.7650 F   0  0  0  0  0  0  0  0  0  0  0  0
   10.7590    1.7190    1.9540 F   0  0  0  0  0  0  0  0  0  0  0  0
    8.5850    1.7370    1.9420 F   0  0  0  0  0  0  0  0  0  0  0  0
   11.0930   -2.0430   -0.5800 N   0  0  0  0  0  1  0  0  0  0  0  0
   10.1420   -2.7250   -0.1070 C   0  0  0  0  0  2  0  0  0  0  0  0
    5.9120   -6.2770    2.1560 S   0  0  0  0  0  0  0  0  0  0  0  0
    4.5480   -5.1930    2.6880 C   0  0  0  0  0  2  0  0  0  0  0  0
    3.7480   -5.6840    3.8920 C   0  0  0  0  0  2  0  0  0  0  0  0
    4.2390   -5.0270    5.1560 C   0  0  0  0  0  0  0  0  0  0  0  0
    4.4580   -5.6360    6.1940 O   0  0  0  0  0  0  0  0  0  0  0  0
    4.3520   -3.6550    4.9500 O   0  0  0  0  0  0  0  0  0  0  0  0
    3.8630   -2.6690    5.8390 C   0  0  0  0  0  0  0  0  0  0  0  0
    2.5530   -2.2020    5.8680 C   0  0  0  0  0  3  0  0  0  0  0  0
    2.2040   -1.1910    6.7660 C   0  0  0  0  0  3  0  0  0  0  0  0
    3.1570   -0.6630    7.6360 C   0  0  0  0  0  3  0  0  0  0  0  0
    4.4620   -1.1520    7.6210 C   0  0  0  0  0  3  0  0  0  0  0  0
    4.8170   -2.1570    6.7210 C   0  0  0  0  0  3  0  0  0  0  0  0
  1  2  2  0  0  0  0
  2  3  1  0  0  0  0
  2  9  1  0  0  0  0
  4 21  1  0  0  0  0
  4  3  2  0  0  0  0
  5  4  1  0  0  0  0
  6  5  1  0  0  0  0
  6  1  1  0  0  0  0
  7  6  2  0  0  0  0
  8  5  1  0  0  0  0
  9 10  1  0  0  0  0
 10 11  2  0  0  0  0
 12 11  1  0  0  0  0
 13 12  2  0  0  0  0
 14  9  2  0  0  0  0
 14 13  1  0  0  0  0
 15 13  1  0  0  0  0
 15 16  1  0  0  0  0
 17 15  1  0  0  0  0
 18 15  1  0  0  0  0
 19 20  1  0  0  0  0
 20  1  1  0  0  0  0
 21 22  1  0  0  0  0
 22 23  1  0  0  0  0
 23 24  1  0  0  0  0
 24 25  2  0  0  0  0
 26 24  1  0  0  0  0
 26 27  1  0  0  0  0
 27 28  2  0  0  0  0
 27 32  1  0  0  0  0
 28 29  1  0  0  0  0
 29 30  2  0  0  0  0
 31 30  1  0  0  0  0
 32 31  2  0  0  0  0
M  END
>  <minimizedAffinity>
-6.79316378

$$$$
