
 OpenBabel09122222393D

 32 34  0  0  0  0  0  0  0  0999 V2000
   10.0890    1.7830    1.4930 C   0  0  0  0  0  0  0  0  0  0  0  0
   10.6710    2.4350    0.4690 C   0  0  0  0  0  0  0  0  0  0  0  0
   10.8680    1.8840   -0.7820 N   0  0  0  0  0  0  0  0  0  0  0  0
   10.4140    0.6950   -0.9830 C   0  0  0  0  0  0  0  0  0  0  0  0
    9.7840   -0.0470   -0.0400 N   0  0  0  0  0  0  0  0  0  0  0  0
    9.6040    0.4110    1.2340 C   0  0  0  0  0  0  0  0  0  0  0  0
    9.0460   -0.2650    2.0900 O   0  0  0  0  0  0  0  0  0  0  0  0
    9.4550   -0.9780   -0.2450 H   0  0  0  0  0  0  0  0  0  0  0  0
   11.0420    3.8640    0.5950 C   0  0  0  0  0  0  0  0  0  0  0  0
   12.1800    4.2750    1.2990 C   0  0  0  0  0  3  0  0  0  0  0  0
   12.4850    5.6320    1.4200 C   0  0  0  0  0  3  0  0  0  0  0  0
   11.6590    6.5910    0.8340 C   0  0  0  0  0  3  0  0  0  0  0  0
   10.5240    6.2040    0.1080 C   0  0  0  0  0  0  0  0  0  0  0  0
   10.2250    4.8360   -0.0030 C   0  0  0  0  0  3  0  0  0  0  0  0
    9.6130    7.2410   -0.5010 C   0  0  0  0  0  0  0  0  0  0  0  0
    8.3910    6.7310   -0.8190 F   0  0  0  0  0  0  0  0  0  0  0  0
    9.3750    8.2940    0.3290 F   0  0  0  0  0  0  0  0  0  0  0  0
   10.1030    7.7790   -1.6530 F   0  0  0  0  0  0  0  0  0  0  0  0
    9.5410    2.9280    3.9680 N   0  0  0  0  0  1  0  0  0  0  0  0
    9.7900    2.4090    2.8460 C   0  0  0  0  0  2  0  0  0  0  0  0
   10.5500   -0.0330   -2.5490 S   0  0  0  0  0  0  0  0  0  0  0  0
   12.0780   -1.0160   -2.4400 C   0  0  0  0  0  2  0  0  0  0  0  0
   12.2120   -1.8920   -1.1960 C   0  0  0  0  0  2  0  0  0  0  0  0
   11.4160   -3.1610   -1.3550 C   0  0  0  0  0  0  0  0  0  0  0  0
   11.9110   -4.2350   -1.6670 O   0  0  0  0  0  0  0  0  0  0  0  0
   10.0680   -2.8910   -1.1360 O   0  0  0  0  0  0  0  0  0  0  0  0
    9.2080   -3.6950   -0.3530 C   0  0  0  0  0  0  0  0  0  0  0  0
    8.4180   -4.7300   -0.8440 C   0  0  0  0  0  3  0  0  0  0  0  0
    7.5740   -5.4230    0.0270 C   0  0  0  0  0  3  0  0  0  0  0  0
    7.5330   -5.0900    1.3800 C   0  0  0  0  0  3  0  0  0  0  0  0
    8.3450   -4.0690    1.8720 C   0  0  0  0  0  3  0  0  0  0  0  0
    9.1840   -3.3700    1.0050 C   0  0  0  0  0  3  0  0  0  0  0  0
  1 20  1  0  0  0  0
  2  9  1  0  0  0  0
  2  1  2  0  0  0  0
  3  2  1  0  0  0  0
  4  3  2  0  0  0  0
  4  5  1  0  0  0  0
  5  6  1  0  0  0  0
  6  1  1  0  0  0  0
  6  7  2  0  0  0  0
  8  5  1  0  0  0  0
  9 10  1  0  0  0  0
 10 11  2  0  0  0  0
 12 11  1  0  0  0  0
 13 12  2  0  0  0  0
 14 13  1  0  0  0  0
 14  9  2  0  0  0  0
 15 13  1  0  0  0  0
 15 17  1  0  0  0  0
 16 15  1  0  0  0  0
 18 15  1  0  0  0  0
 20 19  1  0  0  0  0
 21 22  1  0  0  0  0
 21  4  1  0  0  0  0
 22 23  1  0  0  0  0
 24 23  1  0  0  0  0
 24 26  1  0  0  0  0
 25 24  2  0  0  0  0
 26 27  1  0  0  0  0
 27 32  1  0  0  0  0
 28 27  2  0  0  0  0
 28 29  1  0  0  0  0
 29 30  2  0  0  0  0
 30 31  1  0  0  0  0
 32 31  2  0  0  0  0
M  END
>  <minimizedAffinity>
-7.17824316

$$$$
