REMARK  Name = 
REMARK  6 active torsions:
REMARK  status: ('A' for Active; 'I' for Inactive)
REMARK    1  A    between atoms: C_1  and  C_2
REMARK    2  A    between atoms: C_2  and  O_3
REMARK    3  A    between atoms: C_4  and  O_5
REMARK    4  A    between atoms: C_6  and  C_7
REMARK    5  A    between atoms: C_7  and  O_8
REMARK    6  A    between atoms: C_10  and  N_11
REMARK                            x       y       z     vdW  Elec       q    Type
REMARK                         _______ _______ _______ _____ _____    ______ ____
ROOT
ATOM      1  C   UNL     1       1.083   0.121   0.730  0.00  0.00    +0.049 C 
ATOM      2  C   UNL     1       0.496   1.355   0.060  0.00  0.00    +0.136 C 
ATOM      3  C   UNL     1      -0.450   2.151   0.956  0.00  0.00    +0.181 C 
ATOM      4  C   UNL     1      -0.465   3.514   0.272  0.00  0.00    +0.178 C 
ATOM      5  O   UNL     1       0.836   3.710  -0.332  0.00  0.00    -0.345 OA
ATOM      6  C   UNL     1       1.498   2.425  -0.421  0.00  0.00    +0.256 C 
ENDROOT
BRANCH   6   7
ATOM      7  N   UNL     1       2.780   2.511   0.241  0.00  0.00    -0.285 N 
ATOM      8  C   UNL     1       3.986   2.244  -0.359  0.00  0.00    +0.203 A 
ATOM      9  N   UNL     1       4.997   2.393   0.470  0.00  0.00    -0.232 NA
ATOM     10  C   UNL     1       4.422   2.783   1.653  0.00  0.00    +0.126 A 
ATOM     11  C   UNL     1       4.944   3.095   2.900  0.00  0.00    +0.145 A 
ATOM     12  N   UNL     1       4.102   3.444   3.906  0.00  0.00    -0.221 NA
ATOM     13  C   UNL     1       2.780   3.478   3.664  0.00  0.00    +0.215 A 
ATOM     14  N   UNL     1       1.981   3.838   4.710  0.00  0.00    -0.327 N 
ATOM     15  N   UNL     1       2.172   3.193   2.501  0.00  0.00    -0.195 NA
ATOM     16  C   UNL     1       3.044   2.862   1.536  0.00  0.00    +0.167 A 
ATOM     17  H   UNL     1       0.994   3.934   4.558  0.00  0.00    +0.145 HD
ATOM     18  H   UNL     1       2.436   4.099   5.567  0.00  0.00    +0.145 HD
ENDBRANCH   6   7
BRANCH   2  19
ATOM     19  O   UNL     1      -0.274   0.852  -1.066  0.00  0.00    -0.382 OA
ATOM     20  H   UNL     1      -0.597   1.607  -1.594  0.00  0.00    +0.210 HD
ENDBRANCH   2  19
BRANCH   3  21
ATOM     21  O   UNL     1      -1.754   1.577   1.013  0.00  0.00    -0.386 OA
ATOM     22  H   UNL     1      -1.777   0.851   0.357  0.00  0.00    +0.210 HD
ENDBRANCH   3  21
BRANCH   4  23
ATOM     23  C   UNL     1      -0.770   4.666   1.226  0.00  0.00    +0.190 C 
BRANCH  23  24
ATOM     24  O   UNL     1      -0.772   5.897   0.500  0.00  0.00    -0.392 OA
ATOM     25  H   UNL     1       0.089   5.935   0.042  0.00  0.00    +0.210 HD
ENDBRANCH  23  24
ENDBRANCH   4  23
TORSDOF 5
