
 OpenBabel09132204463D

 25 27  0  0  1  0  0  0  0  0999 V2000
    4.5440   -0.5150    7.9770 C   0  0  0  0  0  1  0  0  0  0  0  0
    3.6400   -1.7220    7.7720 C   0  0  1  0  0  0  0  0  0  0  0  0
    2.7700   -1.6350    6.5200 C   0  0  1  0  0  3  0  0  0  0  0  0
    2.3950   -3.0950    6.2910 C   0  0  2  0  0  3  0  0  0  0  0  0
    3.5010   -3.9050    6.7560 O   0  0  0  0  0  0  0  0  0  0  0  0
    4.3360   -3.0900    7.6140 C   0  0  1  0  0  3  0  0  0  0  0  0
    5.6910   -3.1160    7.1100 N   0  0  0  0  0  0  0  0  0  0  0  0
    6.8120   -2.9370    7.8830 C   0  0  0  0  0  3  0  0  0  0  0  0
    7.9190   -3.0020    7.1740 N   0  0  0  0  0  0  0  0  0  0  0  0
    7.4960   -3.2430    5.8910 C   0  0  0  0  0  0  0  0  0  0  0  0
    8.1700   -3.4150    4.6900 C   0  0  0  0  0  2  0  0  0  0  0  0
    7.4610   -3.6320    3.5540 N   0  0  0  0  0  0  0  0  0  0  0  0
    6.1190   -3.6760    3.6240 C   0  0  0  0  0  0  0  0  0  0  0  0
    5.4570   -3.9000    2.4520 N   0  0  0  0  0  0  0  0  0  0  0  0
    5.3700   -3.5200    4.7280 N   0  0  0  0  0  2  0  0  0  0  0  0
    6.1150   -3.3170    5.8260 C   0  0  0  0  0  0  0  0  0  0  0  0
    4.4590   -4.0000    2.4680 H   0  0  0  0  0  0  0  0  0  0  0  0
    6.0160   -4.0660    1.6330 H   0  0  0  0  0  0  0  0  0  0  0  0
    2.7580   -1.7430    8.9280 O   0  0  0  0  0  0  0  0  0  0  0  0
    2.2170   -2.5550    8.9010 H   0  0  0  0  0  0  0  0  0  0  0  0
    1.6160   -0.8210    6.7180 O   0  0  0  0  0  0  0  0  0  0  0  0
    1.5850   -0.5920    7.6690 H   0  0  0  0  0  0  0  0  0  0  0  0
    2.0960   -3.4200    4.8290 C   0  0  0  0  0  2  0  0  0  0  0  0
    2.4310   -2.2950    4.0140 O   0  0  0  0  0  0  0  0  0  0  0  0
    1.9440   -1.5390    4.3940 H   0  0  0  0  0  0  0  0  0  0  0  0
  2  1  1  1  0  0  0
  2 19  1  0  0  0  0
  3 21  1  1  0  0  0
  3  2  1  0  0  0  0
  4 23  1  6  0  0  0
  4  3  1  0  0  0  0
  4  5  1  0  0  0  0
  5  6  1  0  0  0  0
  6  7  1  6  0  0  0
  6  2  1  0  0  0  0
  7  8  1  0  0  0  0
  9  8  2  0  0  0  0
 10  9  1  0  0  0  0
 11 10  1  0  0  0  0
 12 13  2  0  0  0  0
 12 11  1  0  0  0  0
 13 15  1  0  0  0  0
 14 17  1  0  0  0  0
 14 13  1  0  0  0  0
 15 16  1  0  0  0  0
 16 10  2  0  0  0  0
 16  7  1  0  0  0  0
 18 14  1  0  0  0  0
 20 19  1  0  0  0  0
 21 22  1  0  0  0  0
 24 25  1  0  0  0  0
 24 23  1  0  0  0  0
M  END
>  <minimizedAffinity>
-3.98899651

$$$$
