
 OpenBabel09132204463D

 25 27  0  0  1  0  0  0  0  0999 V2000
    8.0780   -2.4100    5.3250 C   0  0  0  0  0  1  0  0  0  0  0  0
    7.5990   -2.6690    6.7470 C   0  0  1  0  0  0  0  0  0  0  0  0
    7.3590   -1.3980    7.5570 C   0  0  1  0  0  3  0  0  0  0  0  0
    6.4430   -1.8970    8.6690 C   0  0  2  0  0  3  0  0  0  0  0  0
    5.6400   -2.9700    8.1210 O   0  0  0  0  0  0  0  0  0  0  0  0
    6.2670   -3.4340    6.9010 C   0  0  1  0  0  3  0  0  0  0  0  0
    5.3070   -3.3620    5.8230 N   0  0  0  0  0  0  0  0  0  0  0  0
    5.4910   -3.9090    4.5780 C   0  0  0  0  0  3  0  0  0  0  0  0
    4.4640   -3.6940    3.7830 N   0  0  0  0  0  0  0  0  0  0  0  0
    3.5730   -2.9870    4.5510 C   0  0  0  0  0  0  0  0  0  0  0  0
    2.3130   -2.4650    4.2970 C   0  0  0  0  0  2  0  0  0  0  0  0
    1.6650   -1.7840    5.2760 N   0  0  0  0  0  0  0  0  0  0  0  0
    2.2650   -1.6340    6.4700 C   0  0  0  0  0  0  0  0  0  0  0  0
    1.5670   -0.9440    7.4180 N   0  0  0  0  0  0  0  0  0  0  0  0
    3.4780   -2.0940    6.8190 N   0  0  0  0  0  2  0  0  0  0  0  0
    4.0760   -2.7660    5.8230 C   0  0  0  0  0  0  0  0  0  0  0  0
    1.9520   -0.8600    8.3410 H   0  0  0  0  0  0  0  0  0  0  0  0
    0.6400   -0.6420    7.1760 H   0  0  0  0  0  0  0  0  0  0  0  0
    8.6740   -3.4090    7.3860 O   0  0  0  0  0  0  0  0  0  0  0  0
    8.3840   -3.6900    8.2750 H   0  0  0  0  0  0  0  0  0  0  0  0
    8.5680   -0.8500    8.0770 O   0  0  0  0  0  0  0  0  0  0  0  0
    9.2800   -1.4950    7.8880 H   0  0  0  0  0  0  0  0  0  0  0  0
    5.5340   -0.8110    9.2380 C   0  0  0  0  0  2  0  0  0  0  0  0
    4.9260   -0.0890    8.1640 O   0  0  0  0  0  0  0  0  0  0  0  0
    5.6620    0.2170    7.6020 H   0  0  0  0  0  0  0  0  0  0  0  0
  2  1  1  6  0  0  0
  2  6  1  0  0  0  0
  2 19  1  0  0  0  0
  2  3  1  0  0  0  0
  3 21  1  1  0  0  0
  3  4  1  0  0  0  0
  4 23  1  6  0  0  0
  5  4  1  0  0  0  0
  6  7  1  6  0  0  0
  6  5  1  0  0  0  0
  8  7  1  0  0  0  0
  9 10  1  0  0  0  0
  9  8  2  0  0  0  0
 10 16  2  0  0  0  0
 11 10  1  0  0  0  0
 11 12  1  0  0  0  0
 12 13  2  0  0  0  0
 13 15  1  0  0  0  0
 13 14  1  0  0  0  0
 14 17  1  0  0  0  0
 16  7  1  0  0  0  0
 16 15  1  0  0  0  0
 18 14  1  0  0  0  0
 19 20  1  0  0  0  0
 22 21  1  0  0  0  0
 24 23  1  0  0  0  0
 25 24  1  0  0  0  0
M  END
>  <minimizedAffinity>
-4.8434577

$$$$
