
 OpenBabel09132204463D

 25 27  0  0  1  0  0  0  0  0999 V2000
    6.2430   -2.7670    5.7490 C   0  0  0  0  0  1  0  0  0  0  0  0
    6.5410   -2.6530    7.2370 C   0  0  1  0  0  0  0  0  0  0  0  0
    7.3480   -1.4120    7.6110 C   0  0  1  0  0  3  0  0  0  0  0  0
    7.0590   -1.2810    9.1020 C   0  0  2  0  0  3  0  0  0  0  0  0
    5.7200   -1.7820    9.3300 O   0  0  0  0  0  0  0  0  0  0  0  0
    5.3250   -2.5730    8.1830 C   0  0  1  0  0  3  0  0  0  0  0  0
    4.0820   -2.0520    7.6590 N   0  0  0  0  0  0  0  0  0  0  0  0
    3.2580   -1.1830    8.3300 C   0  0  0  0  0  3  0  0  0  0  0  0
    2.1880   -0.8720    7.6290 N   0  0  0  0  0  0  0  0  0  0  0  0
    2.3330   -1.5600    6.4510 C   0  0  0  0  0  0  0  0  0  0  0  0
    1.5510   -1.6520    5.3090 C   0  0  0  0  0  2  0  0  0  0  0  0
    1.9590   -2.4430    4.2840 N   0  0  0  0  0  0  0  0  0  0  0  0
    3.1150   -3.1180    4.4070 C   0  0  0  0  0  0  0  0  0  0  0  0
    3.4790   -3.8960    3.3460 N   0  0  0  0  0  0  0  0  0  0  0  0
    3.9430   -3.1030    5.4650 N   0  0  0  0  0  2  0  0  0  0  0  0
    3.5020   -2.3020    6.4470 C   0  0  0  0  0  0  0  0  0  0  0  0
    4.3620   -4.3700    3.3700 H   0  0  0  0  0  0  0  0  0  0  0  0
    2.8870   -3.8710    2.5340 H   0  0  0  0  0  0  0  0  0  0  0  0
    7.3460   -3.8210    7.5590 O   0  0  0  0  0  0  0  0  0  0  0  0
    7.4870   -3.8540    8.5240 H   0  0  0  0  0  0  0  0  0  0  0  0
    8.7410   -1.5740    7.3570 O   0  0  0  0  0  0  0  0  0  0  0  0
    8.8800   -2.5090    7.1030 H   0  0  0  0  0  0  0  0  0  0  0  0
    7.1690    0.1510    9.6170 C   0  0  0  0  0  2  0  0  0  0  0  0
    7.2250    1.0520    8.5080 O   0  0  0  0  0  0  0  0  0  0  0  0
    7.9610    0.7380    7.9500 H   0  0  0  0  0  0  0  0  0  0  0  0
  2  1  1  6  0  0  0
  2 19  1  0  0  0  0
  2  3  1  0  0  0  0
  2  6  1  0  0  0  0
  3 21  1  1  0  0  0
  3  4  1  0  0  0  0
  4  5  1  0  0  0  0
  4 23  1  6  0  0  0
  6  7  1  6  0  0  0
  6  5  1  0  0  0  0
  7  8  1  0  0  0  0
  9  8  2  0  0  0  0
 10  9  1  0  0  0  0
 11 10  1  0  0  0  0
 12 13  2  0  0  0  0
 12 11  1  0  0  0  0
 13 15  1  0  0  0  0
 14 17  1  0  0  0  0
 14 13  1  0  0  0  0
 15 16  1  0  0  0  0
 16 10  2  0  0  0  0
 16  7  1  0  0  0  0
 18 14  1  0  0  0  0
 19 20  1  0  0  0  0
 22 21  1  0  0  0  0
 24 23  1  0  0  0  0
 25 24  1  0  0  0  0
M  END
>  <minimizedAffinity>
-2.93806577

$$$$
