
 OpenBabel09132204463D

 25 27  0  0  1  0  0  0  0  0999 V2000
    4.2290   -0.3360    7.4910 C   0  0  0  0  0  1  0  0  0  0  0  0
    3.4930   -1.6640    7.3830 C   0  0  1  0  0  0  0  0  0  0  0  0
    2.6060   -1.7770    6.1450 C   0  0  1  0  0  3  0  0  0  0  0  0
    2.4280   -3.2860    6.0180 C   0  0  2  0  0  3  0  0  0  0  0  0
    3.6360   -3.9090    6.5150 O   0  0  0  0  0  0  0  0  0  0  0  0
    4.3640   -2.9340    7.3020 C   0  0  1  0  0  3  0  0  0  0  0  0
    5.7050   -2.8140    6.7760 N   0  0  0  0  0  0  0  0  0  0  0  0
    6.1540   -3.4380    5.6390 C   0  0  0  0  0  3  0  0  0  0  0  0
    7.4170   -3.1640    5.3880 N   0  0  0  0  0  0  0  0  0  0  0  0
    7.7970   -2.3190    6.3990 C   0  0  0  0  0  0  0  0  0  0  0  0
    8.9920   -1.6820    6.7000 C   0  0  0  0  0  2  0  0  0  0  0  0
    9.0690   -0.8960    7.8040 N   0  0  0  0  0  0  0  0  0  0  0  0
    7.9790   -0.7570    8.5790 C   0  0  0  0  0  0  0  0  0  0  0  0
    8.1120    0.0460    9.6740 N   0  0  0  0  0  0  0  0  0  0  0  0
    6.7790   -1.3280    8.3820 N   0  0  0  0  0  2  0  0  0  0  0  0
    6.7500   -2.0880    7.2760 C   0  0  0  0  0  0  0  0  0  0  0  0
    7.3080    0.2250   10.2470 H   0  0  0  0  0  0  0  0  0  0  0  0
    8.9930    0.5130    9.7970 H   0  0  0  0  0  0  0  0  0  0  0  0
    2.6330   -1.7230    8.5540 O   0  0  0  0  0  0  0  0  0  0  0  0
    2.2050   -2.6000    8.5900 H   0  0  0  0  0  0  0  0  0  0  0  0
    1.3560   -1.1110    6.3100 O   0  0  0  0  0  0  0  0  0  0  0  0
    1.3050   -0.8250    7.2440 H   0  0  0  0  0  0  0  0  0  0  0  0
    2.1610   -3.7460    4.5870 C   0  0  0  0  0  2  0  0  0  0  0  0
    1.9400   -2.6060    3.7550 O   0  0  0  0  0  0  0  0  0  0  0  0
    1.2240   -2.1000    4.1840 H   0  0  0  0  0  0  0  0  0  0  0  0
  2  1  1  6  0  0  0
  2 19  1  0  0  0  0
  3 21  1  1  0  0  0
  3  2  1  0  0  0  0
  4 23  1  6  0  0  0
  4  3  1  0  0  0  0
  4  5  1  0  0  0  0
  5  6  1  0  0  0  0
  6  7  1  6  0  0  0
  6  2  1  0  0  0  0
  7 16  1  0  0  0  0
  8  7  1  0  0  0  0
  9  8  2  0  0  0  0
  9 10  1  0  0  0  0
 10 11  1  0  0  0  0
 10 16  2  0  0  0  0
 11 12  1  0  0  0  0
 12 13  2  0  0  0  0
 13 14  1  0  0  0  0
 14 18  1  0  0  0  0
 14 17  1  0  0  0  0
 15 13  1  0  0  0  0
 16 15  1  0  0  0  0
 19 20  1  0  0  0  0
 21 22  1  0  0  0  0
 24 25  1  0  0  0  0
 24 23  1  0  0  0  0
M  END
>  <minimizedAffinity>
-4.44110346

$$$$
