
 OpenBabel09132204463D

 25 27  0  0  1  0  0  0  0  0999 V2000
    1.8820   -0.3380    6.2720 C   0  0  0  0  0  1  0  0  0  0  0  0
    1.7970   -1.7600    5.7380 C   0  0  1  0  0  0  0  0  0  0  0  0
    2.4960   -1.9570    4.3950 C   0  0  1  0  0  3  0  0  0  0  0  0
    2.7030   -3.4670    4.3610 C   0  0  2  0  0  3  0  0  0  0  0  0
    2.8920   -3.9090    5.7270 O   0  0  0  0  0  0  0  0  0  0  0  0
    2.4170   -2.8680    6.6150 C   0  0  1  0  0  3  0  0  0  0  0  0
    3.4790   -2.5080    7.5260 N   0  0  0  0  0  0  0  0  0  0  0  0
    3.2900   -2.1240    8.8310 C   0  0  0  0  0  3  0  0  0  0  0  0
    4.4250   -1.8450    9.4360 N   0  0  0  0  0  0  0  0  0  0  0  0
    5.3890   -2.0680    8.4860 C   0  0  0  0  0  0  0  0  0  0  0  0
    6.7720   -1.9560    8.4990 C   0  0  0  0  0  2  0  0  0  0  0  0
    7.4740   -2.2410    7.3730 N   0  0  0  0  0  0  0  0  0  0  0  0
    6.8060   -2.6260    6.2710 C   0  0  0  0  0  0  0  0  0  0  0  0
    7.5610   -2.9020    5.1690 N   0  0  0  0  0  0  0  0  0  0  0  0
    5.4750   -2.7630    6.1500 N   0  0  0  0  0  2  0  0  0  0  0  0
    4.8260   -2.4790    7.2900 C   0  0  0  0  0  0  0  0  0  0  0  0
    7.1090   -3.2500    4.3440 H   0  0  0  0  0  0  0  0  0  0  0  0
    8.5590   -2.8480    5.2710 H   0  0  0  0  0  0  0  0  0  0  0  0
    0.3790   -2.0140    5.5440 O   0  0  0  0  0  0  0  0  0  0  0  0
    0.2540   -2.9490    5.2920 H   0  0  0  0  0  0  0  0  0  0  0  0
    1.7000   -1.5110    3.2990 O   0  0  0  0  0  0  0  0  0  0  0  0
    0.8190   -1.2820    3.6590 H   0  0  0  0  0  0  0  0  0  0  0  0
    3.8970   -3.8950    3.5110 C   0  0  0  0  0  2  0  0  0  0  0  0
    4.5070   -2.7400    2.9330 O   0  0  0  0  0  0  0  0  0  0  0  0
    3.7920   -2.2700    2.4630 H   0  0  0  0  0  0  0  0  0  0  0  0
  2  1  1  1  0  0  0
  2  6  1  0  0  0  0
  3 21  1  6  0  0  0
  3  2  1  0  0  0  0
  4 23  1  6  0  0  0
  4  3  1  0  0  0  0
  4  5  1  0  0  0  0
  5  6  1  0  0  0  0
  6  7  1  6  0  0  0
  7  8  1  0  0  0  0
  8  9  2  0  0  0  0
 10 11  1  0  0  0  0
 10  9  1  0  0  0  0
 12 11  1  0  0  0  0
 13 12  2  0  0  0  0
 14 18  1  0  0  0  0
 14 13  1  0  0  0  0
 15 13  1  0  0  0  0
 15 16  1  0  0  0  0
 16  7  1  0  0  0  0
 16 10  2  0  0  0  0
 17 14  1  0  0  0  0
 19  2  1  0  0  0  0
 20 19  1  0  0  0  0
 21 22  1  0  0  0  0
 24 23  1  0  0  0  0
 25 24  1  0  0  0  0
M  END
>  <minimizedAffinity>
-4.13173866

$$$$
