
 OpenBabel09122223013D

 25 27  0  0  1  0  0  0  0  0999 V2000
    1.6710   -1.5510    5.1580 C   0  0  0  0  0  1  0  0  0  0  0  0
    2.5200   -2.8100    5.2620 C   0  0  1  0  0  0  0  0  0  0  0  0
    3.8480   -2.7200    4.5150 C   0  0  1  0  0  3  0  0  0  0  0  0
    4.6640   -3.8220    5.1820 C   0  0  2  0  0  3  0  0  0  0  0  0
    4.2290   -3.9090    6.5600 O   0  0  0  0  0  0  0  0  0  0  0  0
    2.9490   -3.2410    6.6790 C   0  0  1  0  0  3  0  0  0  0  0  0
    3.0430   -2.2280    7.7060 N   0  0  0  0  0  0  0  0  0  0  0  0
    1.9940   -1.8140    8.4900 C   0  0  0  0  0  3  0  0  0  0  0  0
    2.3500   -0.8760    9.3410 N   0  0  0  0  0  0  0  0  0  0  0  0
    3.6880   -0.6820    9.1050 C   0  0  0  0  0  0  0  0  0  0  0  0
    4.6340    0.1620    9.6670 C   0  0  0  0  0  2  0  0  0  0  0  0
    5.9100    0.1350    9.2040 N   0  0  0  0  0  0  0  0  0  0  0  0
    6.2220   -0.7140    8.2100 C   0  0  0  0  0  0  0  0  0  0  0  0
    7.5190   -0.7020    7.7860 N   0  0  0  0  0  0  0  0  0  0  0  0
    5.3870   -1.5680    7.5950 N   0  0  0  0  0  2  0  0  0  0  0  0
    4.1410   -1.5100    8.0920 C   0  0  0  0  0  0  0  0  0  0  0  0
    7.8090   -1.3600    7.0870 H   0  0  0  0  0  0  0  0  0  0  0  0
    8.1570   -0.1000    8.2760 H   0  0  0  0  0  0  0  0  0  0  0  0
    1.7290   -3.8600    4.6400 O   0  0  0  0  0  0  0  0  0  0  0  0
    2.1820   -4.7160    4.7630 H   0  0  0  0  0  0  0  0  0  0  0  0
    3.7000   -2.9500    3.1150 O   0  0  0  0  0  0  0  0  0  0  0  0
    2.7750   -3.2340    2.9680 H   0  0  0  0  0  0  0  0  0  0  0  0
    6.1700   -3.5750    5.1320 C   0  0  0  0  0  2  0  0  0  0  0  0
    6.6010   -3.5420    3.7700 O   0  0  0  0  0  0  0  0  0  0  0  0
    6.2890   -4.3780    3.3740 H   0  0  0  0  0  0  0  0  0  0  0  0
  2  1  1  1  0  0  0
  2  6  1  0  0  0  0
  3 21  1  6  0  0  0
  3  4  1  0  0  0  0
  3  2  1  0  0  0  0
  4 23  1  1  0  0  0
  4  5  1  0  0  0  0
  5  6  1  0  0  0  0
  6  7  1  1  0  0  0
  7 16  1  0  0  0  0
  7  8  1  0  0  0  0
  8  9  2  0  0  0  0
 10  9  1  0  0  0  0
 10 11  1  0  0  0  0
 12 11  1  0  0  0  0
 13 12  2  0  0  0  0
 14 13  1  0  0  0  0
 14 18  1  0  0  0  0
 15 16  1  0  0  0  0
 15 13  1  0  0  0  0
 16 10  2  0  0  0  0
 17 14  1  0  0  0  0
 19 20  1  0  0  0  0
 19  2  1  0  0  0  0
 22 21  1  0  0  0  0
 24 23  1  0  0  0  0
 25 24  1  0  0  0  0
M  END
>  <minimizedAffinity>
-5.28534937

$$$$

 OpenBabel09122223013D

 25 27  0  0  1  0  0  0  0  0999 V2000
    3.5600   -0.3220    8.3340 C   0  0  0  0  0  1  0  0  0  0  0  0
    2.9480   -1.6460    7.9010 C   0  0  1  0  0  0  0  0  0  0  0  0
    2.7680   -1.7760    6.3900 C   0  0  1  0  0  3  0  0  0  0  0  0
    2.6500   -3.2860    6.2120 C   0  0  2  0  0  3  0  0  0  0  0  0
    3.4600   -3.9080    7.2390 O   0  0  0  0  0  0  0  0  0  0  0  0
    3.7310   -2.9240    8.2660 C   0  0  1  0  0  3  0  0  0  0  0  0
    5.1610   -2.8220    8.4520 N   0  0  0  0  0  0  0  0  0  0  0  0
    5.7790   -2.6640    9.6680 C   0  0  0  0  0  3  0  0  0  0  0  0
    7.0880   -2.5940    9.5550 N   0  0  0  0  0  0  0  0  0  0  0  0
    7.3280   -2.7230    8.2100 C   0  0  0  0  0  0  0  0  0  0  0  0
    8.4910   -2.7310    7.4540 C   0  0  0  0  0  2  0  0  0  0  0  0
    8.4080   -2.8670    6.1060 N   0  0  0  0  0  0  0  0  0  0  0  0
    7.1950   -2.9920    5.5390 C   0  0  0  0  0  0  0  0  0  0  0  0
    7.1710   -3.1290    4.1820 N   0  0  0  0  0  0  0  0  0  0  0  0
    6.0120   -2.9940    6.1740 N   0  0  0  0  0  2  0  0  0  0  0  0
    6.1450   -2.8650    7.5040 C   0  0  0  0  0  0  0  0  0  0  0  0
    6.2920   -3.2840    3.7240 H   0  0  0  0  0  0  0  0  0  0  0  0
    8.0560   -3.1770    3.7090 H   0  0  0  0  0  0  0  0  0  0  0  0
    1.6290   -1.6790    8.5110 O   0  0  0  0  0  0  0  0  0  0  0  0
    1.2240   -2.5520    8.3480 H   0  0  0  0  0  0  0  0  0  0  0  0
    1.6040   -1.0990    5.9220 O   0  0  0  0  0  0  0  0  0  0  0  0
    1.1110   -0.7960    6.7120 H   0  0  0  0  0  0  0  0  0  0  0  0
    3.1010   -3.7700    4.8360 C   0  0  0  0  0  2  0  0  0  0  0  0
    3.8950   -2.7580    4.2130 O   0  0  0  0  0  0  0  0  0  0  0  0
    3.3500   -1.9490    4.2260 H   0  0  0  0  0  0  0  0  0  0  0  0
  2  6  1  0  0  0  0
  2  1  1  1  0  0  0
  2 19  1  0  0  0  0
  3 21  1  1  0  0  0
  3  2  1  0  0  0  0
  4 23  1  6  0  0  0
  4  3  1  0  0  0  0
  4  5  1  0  0  0  0
  5  6  1  0  0  0  0
  6  7  1  6  0  0  0
  7  8  1  0  0  0  0
  9  8  2  0  0  0  0
 10  9  1  0  0  0  0
 11 10  1  0  0  0  0
 12 11  1  0  0  0  0
 13 12  2  0  0  0  0
 13 15  1  0  0  0  0
 14 13  1  0  0  0  0
 15 16  1  0  0  0  0
 16 10  2  0  0  0  0
 16  7  1  0  0  0  0
 17 14  1  0  0  0  0
 18 14  1  0  0  0  0
 20 19  1  0  0  0  0
 21 22  1  0  0  0  0
 24 25  1  0  0  0  0
 24 23  1  0  0  0  0
M  END
>  <minimizedAffinity>
-5.21654129

$$$$

 OpenBabel09122223013D

 25 27  0  0  1  0  0  0  0  0999 V2000
    8.0780   -2.4100    5.3250 C   0  0  0  0  0  1  0  0  0  0  0  0
    7.5990   -2.6690    6.7470 C   0  0  1  0  0  0  0  0  0  0  0  0
    7.3590   -1.3980    7.5570 C   0  0  1  0  0  3  0  0  0  0  0  0
    6.4430   -1.8970    8.6690 C   0  0  2  0  0  3  0  0  0  0  0  0
    5.6400   -2.9700    8.1210 O   0  0  0  0  0  0  0  0  0  0  0  0
    6.2670   -3.4340    6.9010 C   0  0  1  0  0  3  0  0  0  0  0  0
    5.3070   -3.3620    5.8230 N   0  0  0  0  0  0  0  0  0  0  0  0
    5.4910   -3.9090    4.5780 C   0  0  0  0  0  3  0  0  0  0  0  0
    4.4640   -3.6940    3.7830 N   0  0  0  0  0  0  0  0  0  0  0  0
    3.5730   -2.9870    4.5510 C   0  0  0  0  0  0  0  0  0  0  0  0
    2.3130   -2.4650    4.2970 C   0  0  0  0  0  2  0  0  0  0  0  0
    1.6650   -1.7840    5.2760 N   0  0  0  0  0  0  0  0  0  0  0  0
    2.2650   -1.6340    6.4700 C   0  0  0  0  0  0  0  0  0  0  0  0
    1.5670   -0.9440    7.4180 N   0  0  0  0  0  0  0  0  0  0  0  0
    3.4780   -2.0940    6.8190 N   0  0  0  0  0  2  0  0  0  0  0  0
    4.0760   -2.7660    5.8230 C   0  0  0  0  0  0  0  0  0  0  0  0
    1.9520   -0.8600    8.3410 H   0  0  0  0  0  0  0  0  0  0  0  0
    0.6400   -0.6420    7.1760 H   0  0  0  0  0  0  0  0  0  0  0  0
    8.6740   -3.4090    7.3860 O   0  0  0  0  0  0  0  0  0  0  0  0
    8.3840   -3.6900    8.2750 H   0  0  0  0  0  0  0  0  0  0  0  0
    8.5680   -0.8500    8.0770 O   0  0  0  0  0  0  0  0  0  0  0  0
    9.2800   -1.4950    7.8880 H   0  0  0  0  0  0  0  0  0  0  0  0
    5.5340   -0.8110    9.2380 C   0  0  0  0  0  2  0  0  0  0  0  0
    4.9260   -0.0890    8.1640 O   0  0  0  0  0  0  0  0  0  0  0  0
    5.6620    0.2170    7.6020 H   0  0  0  0  0  0  0  0  0  0  0  0
  2  1  1  6  0  0  0
  2  6  1  0  0  0  0
  2 19  1  0  0  0  0
  2  3  1  0  0  0  0
  3 21  1  1  0  0  0
  3  4  1  0  0  0  0
  4 23  1  6  0  0  0
  5  4  1  0  0  0  0
  6  7  1  6  0  0  0
  6  5  1  0  0  0  0
  8  7  1  0  0  0  0
  9 10  1  0  0  0  0
  9  8  2  0  0  0  0
 10 16  2  0  0  0  0
 11 10  1  0  0  0  0
 11 12  1  0  0  0  0
 12 13  2  0  0  0  0
 13 15  1  0  0  0  0
 13 14  1  0  0  0  0
 14 17  1  0  0  0  0
 16  7  1  0  0  0  0
 16 15  1  0  0  0  0
 18 14  1  0  0  0  0
 19 20  1  0  0  0  0
 22 21  1  0  0  0  0
 24 23  1  0  0  0  0
 25 24  1  0  0  0  0
M  END
>  <minimizedAffinity>
-4.8434577

$$$$

 OpenBabel09122223013D

 25 27  0  0  1  0  0  0  0  0999 V2000
    4.2290   -0.3360    7.4910 C   0  0  0  0  0  1  0  0  0  0  0  0
    3.4930   -1.6640    7.3830 C   0  0  1  0  0  0  0  0  0  0  0  0
    2.6060   -1.7770    6.1450 C   0  0  1  0  0  3  0  0  0  0  0  0
    2.4280   -3.2860    6.0180 C   0  0  2  0  0  3  0  0  0  0  0  0
    3.6360   -3.9090    6.5150 O   0  0  0  0  0  0  0  0  0  0  0  0
    4.3640   -2.9340    7.3020 C   0  0  1  0  0  3  0  0  0  0  0  0
    5.7050   -2.8140    6.7760 N   0  0  0  0  0  0  0  0  0  0  0  0
    6.1540   -3.4380    5.6390 C   0  0  0  0  0  3  0  0  0  0  0  0
    7.4170   -3.1640    5.3880 N   0  0  0  0  0  0  0  0  0  0  0  0
    7.7970   -2.3190    6.3990 C   0  0  0  0  0  0  0  0  0  0  0  0
    8.9920   -1.6820    6.7000 C   0  0  0  0  0  2  0  0  0  0  0  0
    9.0690   -0.8960    7.8040 N   0  0  0  0  0  0  0  0  0  0  0  0
    7.9790   -0.7570    8.5790 C   0  0  0  0  0  0  0  0  0  0  0  0
    8.1120    0.0460    9.6740 N   0  0  0  0  0  0  0  0  0  0  0  0
    6.7790   -1.3280    8.3820 N   0  0  0  0  0  2  0  0  0  0  0  0
    6.7500   -2.0880    7.2760 C   0  0  0  0  0  0  0  0  0  0  0  0
    7.3080    0.2250   10.2470 H   0  0  0  0  0  0  0  0  0  0  0  0
    8.9930    0.5130    9.7970 H   0  0  0  0  0  0  0  0  0  0  0  0
    2.6330   -1.7230    8.5540 O   0  0  0  0  0  0  0  0  0  0  0  0
    2.2050   -2.6000    8.5900 H   0  0  0  0  0  0  0  0  0  0  0  0
    1.3560   -1.1110    6.3100 O   0  0  0  0  0  0  0  0  0  0  0  0
    1.3050   -0.8250    7.2440 H   0  0  0  0  0  0  0  0  0  0  0  0
    2.1610   -3.7460    4.5870 C   0  0  0  0  0  2  0  0  0  0  0  0
    1.9400   -2.6060    3.7550 O   0  0  0  0  0  0  0  0  0  0  0  0
    1.2240   -2.1000    4.1840 H   0  0  0  0  0  0  0  0  0  0  0  0
  2  1  1  6  0  0  0
  2 19  1  0  0  0  0
  3 21  1  1  0  0  0
  3  2  1  0  0  0  0
  4 23  1  6  0  0  0
  4  3  1  0  0  0  0
  4  5  1  0  0  0  0
  5  6  1  0  0  0  0
  6  7  1  6  0  0  0
  6  2  1  0  0  0  0
  7 16  1  0  0  0  0
  8  7  1  0  0  0  0
  9  8  2  0  0  0  0
  9 10  1  0  0  0  0
 10 11  1  0  0  0  0
 10 16  2  0  0  0  0
 11 12  1  0  0  0  0
 12 13  2  0  0  0  0
 13 14  1  0  0  0  0
 14 18  1  0  0  0  0
 14 17  1  0  0  0  0
 15 13  1  0  0  0  0
 16 15  1  0  0  0  0
 19 20  1  0  0  0  0
 21 22  1  0  0  0  0
 24 25  1  0  0  0  0
 24 23  1  0  0  0  0
M  END
>  <minimizedAffinity>
-4.44110346

$$$$

 OpenBabel09122223013D

 25 27  0  0  1  0  0  0  0  0999 V2000
    1.8820   -0.3380    6.2720 C   0  0  0  0  0  1  0  0  0  0  0  0
    1.7970   -1.7600    5.7380 C   0  0  1  0  0  0  0  0  0  0  0  0
    2.4960   -1.9570    4.3950 C   0  0  1  0  0  3  0  0  0  0  0  0
    2.7030   -3.4670    4.3610 C   0  0  2  0  0  3  0  0  0  0  0  0
    2.8920   -3.9090    5.7270 O   0  0  0  0  0  0  0  0  0  0  0  0
    2.4170   -2.8680    6.6150 C   0  0  1  0  0  3  0  0  0  0  0  0
    3.4790   -2.5080    7.5260 N   0  0  0  0  0  0  0  0  0  0  0  0
    3.2900   -2.1240    8.8310 C   0  0  0  0  0  3  0  0  0  0  0  0
    4.4250   -1.8450    9.4360 N   0  0  0  0  0  0  0  0  0  0  0  0
    5.3890   -2.0680    8.4860 C   0  0  0  0  0  0  0  0  0  0  0  0
    6.7720   -1.9560    8.4990 C   0  0  0  0  0  2  0  0  0  0  0  0
    7.4740   -2.2410    7.3730 N   0  0  0  0  0  0  0  0  0  0  0  0
    6.8060   -2.6260    6.2710 C   0  0  0  0  0  0  0  0  0  0  0  0
    7.5610   -2.9020    5.1690 N   0  0  0  0  0  0  0  0  0  0  0  0
    5.4750   -2.7630    6.1500 N   0  0  0  0  0  2  0  0  0  0  0  0
    4.8260   -2.4790    7.2900 C   0  0  0  0  0  0  0  0  0  0  0  0
    7.1090   -3.2500    4.3440 H   0  0  0  0  0  0  0  0  0  0  0  0
    8.5590   -2.8480    5.2710 H   0  0  0  0  0  0  0  0  0  0  0  0
    0.3790   -2.0140    5.5440 O   0  0  0  0  0  0  0  0  0  0  0  0
    0.2540   -2.9490    5.2920 H   0  0  0  0  0  0  0  0  0  0  0  0
    1.7000   -1.5110    3.2990 O   0  0  0  0  0  0  0  0  0  0  0  0
    0.8190   -1.2820    3.6590 H   0  0  0  0  0  0  0  0  0  0  0  0
    3.8970   -3.8950    3.5110 C   0  0  0  0  0  2  0  0  0  0  0  0
    4.5070   -2.7400    2.9330 O   0  0  0  0  0  0  0  0  0  0  0  0
    3.7920   -2.2700    2.4630 H   0  0  0  0  0  0  0  0  0  0  0  0
  2  1  1  1  0  0  0
  2  6  1  0  0  0  0
  3 21  1  6  0  0  0
  3  2  1  0  0  0  0
  4 23  1  6  0  0  0
  4  3  1  0  0  0  0
  4  5  1  0  0  0  0
  5  6  1  0  0  0  0
  6  7  1  6  0  0  0
  7  8  1  0  0  0  0
  8  9  2  0  0  0  0
 10 11  1  0  0  0  0
 10  9  1  0  0  0  0
 12 11  1  0  0  0  0
 13 12  2  0  0  0  0
 14 18  1  0  0  0  0
 14 13  1  0  0  0  0
 15 13  1  0  0  0  0
 15 16  1  0  0  0  0
 16  7  1  0  0  0  0
 16 10  2  0  0  0  0
 17 14  1  0  0  0  0
 19  2  1  0  0  0  0
 20 19  1  0  0  0  0
 21 22  1  0  0  0  0
 24 23  1  0  0  0  0
 25 24  1  0  0  0  0
M  END
>  <minimizedAffinity>
-4.13173866

$$$$

 OpenBabel09122223013D

 25 27  0  0  1  0  0  0  0  0999 V2000
    4.5440   -0.5150    7.9770 C   0  0  0  0  0  1  0  0  0  0  0  0
    3.6400   -1.7220    7.7720 C   0  0  1  0  0  0  0  0  0  0  0  0
    2.7700   -1.6350    6.5200 C   0  0  1  0  0  3  0  0  0  0  0  0
    2.3950   -3.0950    6.2910 C   0  0  2  0  0  3  0  0  0  0  0  0
    3.5010   -3.9050    6.7560 O   0  0  0  0  0  0  0  0  0  0  0  0
    4.3360   -3.0900    7.6140 C   0  0  1  0  0  3  0  0  0  0  0  0
    5.6910   -3.1160    7.1100 N   0  0  0  0  0  0  0  0  0  0  0  0
    6.8120   -2.9370    7.8830 C   0  0  0  0  0  3  0  0  0  0  0  0
    7.9190   -3.0020    7.1740 N   0  0  0  0  0  0  0  0  0  0  0  0
    7.4960   -3.2430    5.8910 C   0  0  0  0  0  0  0  0  0  0  0  0
    8.1700   -3.4150    4.6900 C   0  0  0  0  0  2  0  0  0  0  0  0
    7.4610   -3.6320    3.5540 N   0  0  0  0  0  0  0  0  0  0  0  0
    6.1190   -3.6760    3.6240 C   0  0  0  0  0  0  0  0  0  0  0  0
    5.4570   -3.9000    2.4520 N   0  0  0  0  0  0  0  0  0  0  0  0
    5.3700   -3.5200    4.7280 N   0  0  0  0  0  2  0  0  0  0  0  0
    6.1150   -3.3170    5.8260 C   0  0  0  0  0  0  0  0  0  0  0  0
    4.4590   -4.0000    2.4680 H   0  0  0  0  0  0  0  0  0  0  0  0
    6.0160   -4.0660    1.6330 H   0  0  0  0  0  0  0  0  0  0  0  0
    2.7580   -1.7430    8.9280 O   0  0  0  0  0  0  0  0  0  0  0  0
    2.2170   -2.5550    8.9010 H   0  0  0  0  0  0  0  0  0  0  0  0
    1.6160   -0.8210    6.7180 O   0  0  0  0  0  0  0  0  0  0  0  0
    1.5850   -0.5920    7.6690 H   0  0  0  0  0  0  0  0  0  0  0  0
    2.0960   -3.4200    4.8290 C   0  0  0  0  0  2  0  0  0  0  0  0
    2.4310   -2.2950    4.0140 O   0  0  0  0  0  0  0  0  0  0  0  0
    1.9440   -1.5390    4.3940 H   0  0  0  0  0  0  0  0  0  0  0  0
  2  1  1  1  0  0  0
  2 19  1  0  0  0  0
  3 21  1  1  0  0  0
  3  2  1  0  0  0  0
  4 23  1  6  0  0  0
  4  3  1  0  0  0  0
  4  5  1  0  0  0  0
  5  6  1  0  0  0  0
  6  7  1  6  0  0  0
  6  2  1  0  0  0  0
  7  8  1  0  0  0  0
  9  8  2  0  0  0  0
 10  9  1  0  0  0  0
 11 10  1  0  0  0  0
 12 13  2  0  0  0  0
 12 11  1  0  0  0  0
 13 15  1  0  0  0  0
 14 17  1  0  0  0  0
 14 13  1  0  0  0  0
 15 16  1  0  0  0  0
 16 10  2  0  0  0  0
 16  7  1  0  0  0  0
 18 14  1  0  0  0  0
 20 19  1  0  0  0  0
 21 22  1  0  0  0  0
 24 25  1  0  0  0  0
 24 23  1  0  0  0  0
M  END
>  <minimizedAffinity>
-3.98899651

$$$$

 OpenBabel09122223013D

 25 27  0  0  1  0  0  0  0  0999 V2000
    5.3990   -2.6610    9.6740 C   0  0  0  0  0  1  0  0  0  0  0  0
    6.3090   -1.8940    8.7260 C   0  0  1  0  0  0  0  0  0  0  0  0
    7.2470   -2.7850    7.9160 C   0  0  1  0  0  3  0  0  0  0  0  0
    7.6300   -1.8740    6.7550 C   0  0  2  0  0  3  0  0  0  0  0  0
    6.4970   -1.0120    6.4890 O   0  0  0  0  0  0  0  0  0  0  0  0
    5.6180   -1.0430    7.6390 C   0  0  1  0  0  3  0  0  0  0  0  0
    4.2930   -1.4270    7.2070 N   0  0  0  0  0  0  0  0  0  0  0  0
    3.1340   -1.1120    7.8730 C   0  0  0  0  0  3  0  0  0  0  0  0
    2.0680   -1.5880    7.2670 N   0  0  0  0  0  0  0  0  0  0  0  0
    2.5560   -2.2310    6.1580 C   0  0  0  0  0  0  0  0  0  0  0  0
    1.9470   -2.9290    5.1250 C   0  0  0  0  0  2  0  0  0  0  0  0
    2.7140   -3.4780    4.1490 N   0  0  0  0  0  0  0  0  0  0  0  0
    4.0490   -3.3280    4.2100 C   0  0  0  0  0  0  0  0  0  0  0  0
    4.7700   -3.8970    3.2010 N   0  0  0  0  0  0  0  0  0  0  0  0
    4.7380   -2.6770    5.1620 N   0  0  0  0  0  2  0  0  0  0  0  0
    3.9380   -2.1460    6.0990 C   0  0  0  0  0  0  0  0  0  0  0  0
    5.7630   -3.7590    3.1750 H   0  0  0  0  0  0  0  0  0  0  0  0
    4.2540   -4.3420    2.4620 H   0  0  0  0  0  0  0  0  0  0  0  0
    7.1250   -1.0450    9.5780 O   0  0  0  0  0  0  0  0  0  0  0  0
    7.6640   -0.4550    9.0180 H   0  0  0  0  0  0  0  0  0  0  0  0
    8.3910   -3.1900    8.6650 O   0  0  0  0  0  0  0  0  0  0  0  0
    8.3690   -2.6970    9.5110 H   0  0  0  0  0  0  0  0  0  0  0  0
    8.0080   -2.6360    5.4870 C   0  0  0  0  0  2  0  0  0  0  0  0
    8.7780   -1.7860    4.6340 O   0  0  0  0  0  0  0  0  0  0  0  0
    8.2410   -0.9820    4.5070 H   0  0  0  0  0  0  0  0  0  0  0  0
  2 19  1  0  0  0  0
  2  1  1  1  0  0  0
  3 21  1  1  0  0  0
  3  2  1  0  0  0  0
  4 23  1  6  0  0  0
  4  3  1  0  0  0  0
  5  4  1  0  0  0  0
  5  6  1  0  0  0  0
  6  7  1  6  0  0  0
  6  2  1  0  0  0  0
  7  8  1  0  0  0  0
  9  8  2  0  0  0  0
 10  9  1  0  0  0  0
 11 10  1  0  0  0  0
 12 13  2  0  0  0  0
 12 11  1  0  0  0  0
 13 15  1  0  0  0  0
 14 13  1  0  0  0  0
 15 16  1  0  0  0  0
 16 10  2  0  0  0  0
 16  7  1  0  0  0  0
 17 14  1  0  0  0  0
 18 14  1  0  0  0  0
 20 19  1  0  0  0  0
 21 22  1  0  0  0  0
 24 23  1  0  0  0  0
 25 24  1  0  0  0  0
M  END
>  <minimizedAffinity>
-3.66200852

$$$$

 OpenBabel09122223013D

 25 27  0  0  1  0  0  0  0  0999 V2000
    5.6110    0.6210    9.0250 C   0  0  0  0  0  1  0  0  0  0  0  0
    6.7440   -0.0800    8.2890 C   0  0  1  0  0  0  0  0  0  0  0  0
    7.8060   -0.6700    9.2130 C   0  0  1  0  0  3  0  0  0  0  0  0
    8.4810   -1.6970    8.3090 C   0  0  2  0  0  3  0  0  0  0  0  0
    7.4740   -2.1990    7.3970 O   0  0  0  0  0  0  0  0  0  0  0  0
    6.3550   -1.2800    7.4000 C   0  0  1  0  0  3  0  0  0  0  0  0
    5.1500   -2.0100    7.7230 N   0  0  0  0  0  0  0  0  0  0  0  0
    4.7170   -2.2730    8.9990 C   0  0  0  0  0  3  0  0  0  0  0  0
    3.5940   -2.9600    9.0110 N   0  0  0  0  0  0  0  0  0  0  0  0
    3.2830   -3.1400    7.6870 C   0  0  0  0  0  0  0  0  0  0  0  0
    2.2330   -3.7770    7.0410 C   0  0  0  0  0  2  0  0  0  0  0  0
    2.2020   -3.8000    5.6840 N   0  0  0  0  0  0  0  0  0  0  0  0
    3.1940   -3.2020    5.0020 C   0  0  0  0  0  0  0  0  0  0  0  0
    3.1110   -3.2530    3.6400 N   0  0  0  0  0  0  0  0  0  0  0  0
    4.2530   -2.5630    5.5250 N   0  0  0  0  0  2  0  0  0  0  0  0
    4.2360   -2.5590    6.8670 C   0  0  0  0  0  0  0  0  0  0  0  0
    3.7970   -2.7690    3.0920 H   0  0  0  0  0  0  0  0  0  0  0  0
    2.2950   -3.6870    3.2460 H   0  0  0  0  0  0  0  0  0  0  0  0
    7.3770    0.9510    7.4840 O   0  0  0  0  0  0  0  0  0  0  0  0
    8.0530    0.5400    6.9120 H   0  0  0  0  0  0  0  0  0  0  0  0
    8.7310    0.3130    9.6740 O   0  0  0  0  0  0  0  0  0  0  0  0
    8.5370    1.1400    9.1880 H   0  0  0  0  0  0  0  0  0  0  0  0
    9.1080   -2.8580    9.0760 C   0  0  0  0  0  2  0  0  0  0  0  0
    8.0840   -3.7710    9.4780 O   0  0  0  0  0  0  0  0  0  0  0  0
    7.4310   -3.2360    9.9680 H   0  0  0  0  0  0  0  0  0  0  0  0
  2  1  1  1  0  0  0
  2  3  1  0  0  0  0
  3 21  1  6  0  0  0
  4 23  1  1  0  0  0
  4  3  1  0  0  0  0
  5  6  1  0  0  0  0
  5  4  1  0  0  0  0
  6  7  1  1  0  0  0
  6  2  1  0  0  0  0
  7  8  1  0  0  0  0
  8  9  2  0  0  0  0
 10  9  1  0  0  0  0
 11 10  1  0  0  0  0
 12 11  1  0  0  0  0
 13 15  1  0  0  0  0
 13 12  2  0  0  0  0
 14 13  1  0  0  0  0
 15 16  1  0  0  0  0
 16 10  2  0  0  0  0
 16  7  1  0  0  0  0
 17 14  1  0  0  0  0
 18 14  1  0  0  0  0
 19  2  1  0  0  0  0
 20 19  1  0  0  0  0
 22 21  1  0  0  0  0
 23 24  1  0  0  0  0
 24 25  1  0  0  0  0
M  END
>  <minimizedAffinity>
-3.03845716

$$$$

 OpenBabel09122223013D

 25 27  0  0  1  0  0  0  0  0999 V2000
    6.2430   -2.7670    5.7490 C   0  0  0  0  0  1  0  0  0  0  0  0
    6.5410   -2.6530    7.2370 C   0  0  1  0  0  0  0  0  0  0  0  0
    7.3480   -1.4120    7.6110 C   0  0  1  0  0  3  0  0  0  0  0  0
    7.0590   -1.2810    9.1020 C   0  0  2  0  0  3  0  0  0  0  0  0
    5.7200   -1.7820    9.3300 O   0  0  0  0  0  0  0  0  0  0  0  0
    5.3250   -2.5730    8.1830 C   0  0  1  0  0  3  0  0  0  0  0  0
    4.0820   -2.0520    7.6590 N   0  0  0  0  0  0  0  0  0  0  0  0
    3.2580   -1.1830    8.3300 C   0  0  0  0  0  3  0  0  0  0  0  0
    2.1880   -0.8720    7.6290 N   0  0  0  0  0  0  0  0  0  0  0  0
    2.3330   -1.5600    6.4510 C   0  0  0  0  0  0  0  0  0  0  0  0
    1.5510   -1.6520    5.3090 C   0  0  0  0  0  2  0  0  0  0  0  0
    1.9590   -2.4430    4.2840 N   0  0  0  0  0  0  0  0  0  0  0  0
    3.1150   -3.1180    4.4070 C   0  0  0  0  0  0  0  0  0  0  0  0
    3.4790   -3.8960    3.3460 N   0  0  0  0  0  0  0  0  0  0  0  0
    3.9430   -3.1030    5.4650 N   0  0  0  0  0  2  0  0  0  0  0  0
    3.5020   -2.3020    6.4470 C   0  0  0  0  0  0  0  0  0  0  0  0
    4.3620   -4.3700    3.3700 H   0  0  0  0  0  0  0  0  0  0  0  0
    2.8870   -3.8710    2.5340 H   0  0  0  0  0  0  0  0  0  0  0  0
    7.3460   -3.8210    7.5590 O   0  0  0  0  0  0  0  0  0  0  0  0
    7.4870   -3.8540    8.5240 H   0  0  0  0  0  0  0  0  0  0  0  0
    8.7410   -1.5740    7.3570 O   0  0  0  0  0  0  0  0  0  0  0  0
    8.8800   -2.5090    7.1030 H   0  0  0  0  0  0  0  0  0  0  0  0
    7.1690    0.1510    9.6170 C   0  0  0  0  0  2  0  0  0  0  0  0
    7.2250    1.0520    8.5080 O   0  0  0  0  0  0  0  0  0  0  0  0
    7.9610    0.7380    7.9500 H   0  0  0  0  0  0  0  0  0  0  0  0
  2  1  1  6  0  0  0
  2 19  1  0  0  0  0
  2  3  1  0  0  0  0
  2  6  1  0  0  0  0
  3 21  1  1  0  0  0
  3  4  1  0  0  0  0
  4  5  1  0  0  0  0
  4 23  1  6  0  0  0
  6  7  1  6  0  0  0
  6  5  1  0  0  0  0
  7  8  1  0  0  0  0
  9  8  2  0  0  0  0
 10  9  1  0  0  0  0
 11 10  1  0  0  0  0
 12 13  2  0  0  0  0
 12 11  1  0  0  0  0
 13 15  1  0  0  0  0
 14 17  1  0  0  0  0
 14 13  1  0  0  0  0
 15 16  1  0  0  0  0
 16 10  2  0  0  0  0
 16  7  1  0  0  0  0
 18 14  1  0  0  0  0
 19 20  1  0  0  0  0
 22 21  1  0  0  0  0
 24 23  1  0  0  0  0
 25 24  1  0  0  0  0
M  END
>  <minimizedAffinity>
-2.93806577

$$$$

 OpenBabel09122223013D

 25 27  0  0  1  0  0  0  0  0999 V2000
    3.5470   -0.4520    9.5510 C   0  0  0  0  0  1  0  0  0  0  0  0
    2.9800   -1.5180    8.6240 C   0  0  1  0  0  0  0  0  0  0  0  0
    2.9230   -1.0920    7.1580 C   0  0  1  0  0  3  0  0  0  0  0  0
    2.8290   -2.4340    6.4400 C   0  0  2  0  0  3  0  0  0  0  0  0
    3.5570   -3.4020    7.2340 O   0  0  0  0  0  0  0  0  0  0  0  0
    3.7390   -2.8600    8.5640 C   0  0  1  0  0  3  0  0  0  0  0  0
    5.1480   -2.8650    8.8840 N   0  0  0  0  0  0  0  0  0  0  0  0
    5.8050   -3.9070    9.4930 C   0  0  0  0  0  3  0  0  0  0  0  0
    7.0830   -3.6500    9.6740 N   0  0  0  0  0  0  0  0  0  0  0  0
    7.2630   -2.3950    9.1510 C   0  0  0  0  0  0  0  0  0  0  0  0
    8.3720   -1.5690    9.0360 C   0  0  0  0  0  2  0  0  0  0  0  0
    8.2340   -0.3440    8.4680 N   0  0  0  0  0  0  0  0  0  0  0  0
    7.0210    0.0360    8.0300 C   0  0  0  0  0  0  0  0  0  0  0  0
    6.9410    1.2750    7.4640 N   0  0  0  0  0  0  0  0  0  0  0  0
    5.8870   -0.6810    8.0940 N   0  0  0  0  0  2  0  0  0  0  0  0
    6.0740   -1.8850    8.6550 C   0  0  0  0  0  0  0  0  0  0  0  0
    6.0680    1.5750    7.0700 H   0  0  0  0  0  0  0  0  0  0  0  0
    7.7960    1.7930    7.3710 H   0  0  0  0  0  0  0  0  0  0  0  0
    1.6160   -1.7370    9.0770 O   0  0  0  0  0  0  0  0  0  0  0  0
    1.2310   -2.4830    8.5800 H   0  0  0  0  0  0  0  0  0  0  0  0
    1.7960   -0.2650    6.8770 O   0  0  0  0  0  0  0  0  0  0  0  0
    1.2400   -0.2540    7.6820 H   0  0  0  0  0  0  0  0  0  0  0  0
    3.3930   -2.4020    5.0220 C   0  0  0  0  0  2  0  0  0  0  0  0
    4.7450   -2.8640    5.0360 O   0  0  0  0  0  0  0  0  0  0  0  0
    5.2060   -2.3100    5.6940 H   0  0  0  0  0  0  0  0  0  0  0  0
  2 19  1  0  0  0  0
  2  1  1  1  0  0  0
  3 21  1  1  0  0  0
  3  2  1  0  0  0  0
  4 23  1  6  0  0  0
  4  3  1  0  0  0  0
  4  5  1  0  0  0  0
  5  6  1  0  0  0  0
  6  2  1  0  0  0  0
  6  7  1  6  0  0  0
  7  8  1  0  0  0  0
  8  9  2  0  0  0  0
 10  9  1  0  0  0  0
 11 10  1  0  0  0  0
 12 11  1  0  0  0  0
 13 15  1  0  0  0  0
 13 12  2  0  0  0  0
 14 13  1  0  0  0  0
 15 16  1  0  0  0  0
 16  7  1  0  0  0  0
 16 10  2  0  0  0  0
 17 14  1  0  0  0  0
 18 14  1  0  0  0  0
 20 19  1  0  0  0  0
 21 22  1  0  0  0  0
 23 24  1  0  0  0  0
 24 25  1  0  0  0  0
M  END
>  <minimizedAffinity>
-2.92563081

$$$$
