REMARK  Name = 
REMARK  6 active torsions:
REMARK  status: ('A' for Active; 'I' for Inactive)
REMARK    1  A    between atoms: C_2  and  C_4
REMARK    2  A    between atoms: C_11  and  C_12
REMARK    3  A    between atoms: C_15  and  O_16
REMARK    4  A    between atoms: O_16  and  C_17
REMARK    5  A    between atoms: C_17  and  C_18
REMARK    6  A    between atoms: N_26  and  C_27
REMARK                            x       y       z     vdW  Elec       q    Type
REMARK                         _______ _______ _______ _____ _____    ______ ____
ROOT
ATOM      1  C   UNL     1       2.788   1.204  -0.340  0.00  0.00    -0.001 A 
ATOM      2  C   UNL     1       2.432   2.394   0.317  0.00  0.00    +0.012 A 
ATOM      3  C   UNL     1       3.051   3.617   0.034  0.00  0.00    +0.028 A 
ATOM      4  C   UNL     1       4.057   3.622  -0.940  0.00  0.00    +0.069 A 
ATOM      5  C   UNL     1       4.444   2.463  -1.606  0.00  0.00    +0.090 A 
ATOM      6  C   UNL     1       3.808   1.246  -1.312  0.00  0.00    +0.039 A 
ATOM      7  N   UNL     1       5.454   2.726  -2.496  0.00  0.00    -0.228 NA
ATOM      8  C   UNL     1       5.731   4.010  -2.372  0.00  0.00    +0.142 A 
ATOM      9  N   UNL     1       4.852   4.612  -1.484  0.00  0.00    -0.320 N 
ENDROOT
BRANCH   8  10
ATOM     10  C   UNL     1       6.803   4.680  -3.109  0.00  0.00    +0.018 A 
ATOM     11  C   UNL     1       7.832   5.355  -2.444  0.00  0.00    +0.015 A 
ATOM     12  C   UNL     1       8.851   5.977  -3.171  0.00  0.00    +0.046 A 
ATOM     13  C   UNL     1       8.862   5.928  -4.568  0.00  0.00    +0.121 A 
ATOM     14  C   UNL     1       7.860   5.223  -5.234  0.00  0.00    +0.046 A 
ATOM     15  C   UNL     1       6.838   4.602  -4.506  0.00  0.00    +0.015 A 
BRANCH  13  16
ATOM     16  O   UNL     1       9.924   6.562  -5.152  0.00  0.00    -0.487 OA
BRANCH  16  17
ATOM     17  C   UNL     1       9.853   6.842  -6.552  0.00  0.00    +0.264 C 
BRANCH  17  18
ATOM     18  C   UNL     1      10.450   5.765  -7.429  0.00  0.00    -0.008 A 
ATOM     19  C   UNL     1      10.297   5.848  -8.817  0.00  0.00    +0.026 A 
ATOM     20  C   UNL     1      10.871   4.869  -9.614  0.00  0.00    +0.111 A 
ATOM     21  N   UNL     1      11.582   3.830  -9.132  0.00  0.00    -0.263 NA
ATOM     22  C   UNL     1      11.720   3.765  -7.790  0.00  0.00    +0.111 A 
ATOM     23  C   UNL     1      11.188   4.697  -6.912  0.00  0.00    +0.026 A 
ENDBRANCH  17  18
ENDBRANCH  16  17
ENDBRANCH  13  16
ENDBRANCH   8  10
BRANCH   9  24
ATOM     24  C   UNL     1       4.754   6.033  -1.216  0.00  0.00    +0.089 C 
ATOM     25  C   UNL     1       3.397   6.668  -1.555  0.00  0.00    +0.025 C 
ATOM     26  C   UNL     1       3.346   7.891  -0.653  0.00  0.00    +0.002 C 
ATOM     27  C   UNL     1       3.940   7.389   0.653  0.00  0.00    +0.002 C 
ATOM     28  C   UNL     1       5.062   6.440   0.237  0.00  0.00    +0.025 C 
ENDBRANCH   9  24
BRANCH   1  30
ATOM     29  O   UNL     1       1.183  -0.055   0.885  0.00  0.00    -0.545 OA
ATOM     30  C   UNL     1       2.089  -0.099  -0.007  0.00  0.00    +0.072 C 
ATOM     31  O   UNL     1       2.455  -1.137  -0.642  0.00  0.00    -0.545 OA
ENDBRANCH   1  30
TORSDOF 6
