
 OpenBabel09132204463D

 31 35  0  0  0  0  0  0  0  0999 V2000
   11.0260    8.0960    1.1730 C   0  0  0  0  0  0  0  0  0  0  0  0
   11.2300    7.5960    2.4710 C   0  0  0  0  0  3  0  0  0  0  0  0
   11.3440    6.2260    2.7340 C   0  0  0  0  0  3  0  0  0  0  0  0
   11.2460    5.3490    1.6460 C   0  0  0  0  0  0  0  0  0  0  0  0
   11.0350    5.8050    0.3480 C   0  0  0  0  0  0  0  0  0  0  0  0
   10.9280    7.1830    0.1040 C   0  0  0  0  0  3  0  0  0  0  0  0
   10.9610    4.7550   -0.5310 N   0  0  0  0  0  0  0  0  0  0  0  0
   11.0800    3.6580    0.1920 C   0  0  0  0  0  0  0  0  0  0  0  0
   11.3290    3.9760    1.5190 N   0  0  0  0  0  0  0  0  0  0  0  0
   10.9900    2.3080   -0.3660 C   0  0  0  0  0  0  0  0  0  0  0  0
   11.8070    1.9030   -1.4270 C   0  0  0  0  0  3  0  0  0  0  0  0
   11.7090    0.6040   -1.9340 C   0  0  0  0  0  3  0  0  0  0  0  0
   10.8020   -0.3080   -1.3880 C   0  0  0  0  0  0  0  0  0  0  0  0
   10.0130    0.0790   -0.3050 C   0  0  0  0  0  3  0  0  0  0  0  0
   10.1100    1.3800    0.2020 C   0  0  0  0  0  3  0  0  0  0  0  0
   10.8220   -1.5480   -1.9670 O   0  0  0  0  0  0  0  0  0  0  0  0
   12.0900   -2.1030   -2.3240 C   0  0  0  0  0  2  0  0  0  0  0  0
   12.8670   -2.6720   -1.1580 C   0  0  0  0  0  0  0  0  0  0  0  0
   14.2650   -2.6840   -1.2060 C   0  0  0  0  0  3  0  0  0  0  0  0
   14.9680   -3.1840   -0.1200 C   0  0  0  0  0  3  0  0  0  0  0  0
   14.3840   -3.6620    0.9970 N   0  0  0  0  0  0  0  0  0  0  0  0
   13.0340   -3.6430    1.0260 C   0  0  0  0  0  3  0  0  0  0  0  0
   12.2440   -3.1590   -0.0060 C   0  0  0  0  0  3  0  0  0  0  0  0
   11.6660    3.0370    2.5700 C   0  0  0  0  0  3  0  0  0  0  0  0
   12.9340    3.3790    3.3670 C   0  0  0  0  0  2  0  0  0  0  0  0
   12.7140    2.6750    4.6970 C   0  0  0  0  0  2  0  0  0  0  0  0
   11.2390    2.9090    4.9780 C   0  0  0  0  0  2  0  0  0  0  0  0
   10.5570    2.8090    3.6140 C   0  0  0  0  0  2  0  0  0  0  0  0
   10.3840    9.9550   -0.1670 O   0  0  0  0  0  0  0  0  0  0  0  0
   10.9120    9.5880    0.9310 C   0  0  0  0  0  0  0  0  0  0  0  0
   11.3470   10.3620    1.8400 O   0  0  0  0  0  1  0  0  0  0  0  0
  1  2  1  0  0  0  0
  2  3  2  0  0  0  0
  4  3  1  0  0  0  0
  5  4  2  0  0  0  0
  6  5  1  0  0  0  0
  6  1  2  0  0  0  0
  7  8  2  0  0  0  0
  7  5  1  0  0  0  0
  8  9  1  0  0  0  0
  9  4  1  0  0  0  0
  9 24  1  0  0  0  0
 10  8  1  0  0  0  0
 10 15  1  0  0  0  0
 11 10  2  0  0  0  0
 12 11  1  0  0  0  0
 12 13  2  0  0  0  0
 13 14  1  0  0  0  0
 14 15  2  0  0  0  0
 16 13  1  0  0  0  0
 17 16  1  0  0  0  0
 17 18  1  0  0  0  0
 18 23  1  0  0  0  0
 19 18  2  0  0  0  0
 19 20  1  0  0  0  0
 20 21  2  0  0  0  0
 21 22  1  0  0  0  0
 23 22  2  0  0  0  0
 24 25  1  0  0  0  0
 24 28  1  0  0  0  0
 25 26  1  0  0  0  0
 26 27  1  0  0  0  0
 28 27  1  0  0  0  0
 29 30  2  0  0  0  0
 30  1  1  0  0  0  0
 30 31  1  0  0  0  0
M  END
>  <minimizedAffinity>
-6.5557003

$$$$
