
 OpenBabel09132204463D

 31 35  0  0  0  0  0  0  0  0999 V2000
    9.5230    8.3350    1.1900 C   0  0  0  0  0  0  0  0  0  0  0  0
   10.1810    8.0800    2.4040 C   0  0  0  0  0  3  0  0  0  0  0  0
   10.6240    6.8000    2.7590 C   0  0  0  0  0  3  0  0  0  0  0  0
   10.3850    5.7600    1.8530 C   0  0  0  0  0  0  0  0  0  0  0  0
    9.7280    5.9710    0.6440 C   0  0  0  0  0  0  0  0  0  0  0  0
    9.2960    7.2630    0.3040 C   0  0  0  0  0  3  0  0  0  0  0  0
    9.6040    4.7970   -0.0550 N   0  0  0  0  0  0  0  0  0  0  0  0
   10.1310    3.8570    0.7050 C   0  0  0  0  0  0  0  0  0  0  0  0
   10.6860    4.4120    1.8490 N   0  0  0  0  0  0  0  0  0  0  0  0
   10.1410    2.4380    0.3450 C   0  0  0  0  0  0  0  0  0  0  0  0
   10.8130    1.9810   -0.7930 C   0  0  0  0  0  3  0  0  0  0  0  0
   10.8170    0.6190   -1.1090 C   0  0  0  0  0  3  0  0  0  0  0  0
   10.1590   -0.3040   -0.2910 C   0  0  0  0  0  0  0  0  0  0  0  0
    9.5220    0.1420    0.8660 C   0  0  0  0  0  3  0  0  0  0  0  0
    9.5150    1.5060    1.1810 C   0  0  0  0  0  3  0  0  0  0  0  0
   10.2570   -1.6040   -0.7050 O   0  0  0  0  0  0  0  0  0  0  0  0
   10.6180   -2.5930    0.2620 C   0  0  0  0  0  2  0  0  0  0  0  0
    9.4560   -3.4170    0.7660 C   0  0  0  0  0  0  0  0  0  0  0  0
    8.9800   -4.4790   -0.0100 C   0  0  0  0  0  3  0  0  0  0  0  0
    7.9310   -5.2460    0.4740 C   0  0  0  0  0  3  0  0  0  0  0  0
    7.3330   -5.0350    1.6640 N   0  0  0  0  0  0  0  0  0  0  0  0
    7.8050   -4.0060    2.4010 C   0  0  0  0  0  3  0  0  0  0  0  0
    8.8510   -3.1870    2.0050 C   0  0  0  0  0  3  0  0  0  0  0  0
   11.4820    3.7090    2.8350 C   0  0  0  0  0  3  0  0  0  0  0  0
   12.9540    3.4940    2.4510 C   0  0  0  0  0  2  0  0  0  0  0  0
   13.6500    3.3440    3.7950 C   0  0  0  0  0  2  0  0  0  0  0  0
   12.9630    4.3850    4.6640 C   0  0  0  0  0  2  0  0  0  0  0  0
   11.4980    4.3550    4.2330 C   0  0  0  0  0  2  0  0  0  0  0  0
    9.9400   10.6590    0.8910 O   0  0  0  0  0  1  0  0  0  0  0  0
    9.0640    9.7370    0.8420 C   0  0  0  0  0  0  0  0  0  0  0  0
    7.8430    9.8910    0.5250 O   0  0  0  0  0  0  0  0  0  0  0  0
  1  2  1  0  0  0  0
  2  3  2  0  0  0  0
  4  3  1  0  0  0  0
  5  4  2  0  0  0  0
  6  5  1  0  0  0  0
  6  1  2  0  0  0  0
  7  5  1  0  0  0  0
  7  8  2  0  0  0  0
  8  9  1  0  0  0  0
  9  4  1  0  0  0  0
  9 24  1  0  0  0  0
 10  8  1  0  0  0  0
 10 15  1  0  0  0  0
 11 10  2  0  0  0  0
 12 11  1  0  0  0  0
 12 13  2  0  0  0  0
 13 14  1  0  0  0  0
 14 15  2  0  0  0  0
 16 13  1  0  0  0  0
 16 17  1  0  0  0  0
 17 18  1  0  0  0  0
 18 23  1  0  0  0  0
 19 20  1  0  0  0  0
 19 18  2  0  0  0  0
 20 21  2  0  0  0  0
 21 22  1  0  0  0  0
 23 22  2  0  0  0  0
 24 28  1  0  0  0  0
 25 24  1  0  0  0  0
 25 26  1  0  0  0  0
 26 27  1  0  0  0  0
 28 27  1  0  0  0  0
 30 29  1  0  0  0  0
 30  1  1  0  0  0  0
 31 30  2  0  0  0  0
M  END
>  <minimizedAffinity>
-7.24098253

$$$$
