
 OpenBabel09132204463D

 31 35  0  0  0  0  0  0  0  0999 V2000
   13.2510    7.9410    0.0450 C   0  0  0  0  0  0  0  0  0  0  0  0
   13.0590    7.6780    1.4120 C   0  0  0  0  0  3  0  0  0  0  0  0
   12.6690    6.4180    1.8820 C   0  0  0  0  0  3  0  0  0  0  0  0
   12.4680    5.4080    0.9330 C   0  0  0  0  0  0  0  0  0  0  0  0
   12.6390    5.6320   -0.4300 C   0  0  0  0  0  0  0  0  0  0  0  0
   13.0360    6.9010   -0.8820 C   0  0  0  0  0  3  0  0  0  0  0  0
   12.3690    4.4960   -1.1480 N   0  0  0  0  0  0  0  0  0  0  0  0
   11.9970    3.5830   -0.2710 C   0  0  0  0  0  0  0  0  0  0  0  0
   12.1120    4.0760    1.0200 N   0  0  0  0  0  0  0  0  0  0  0  0
   11.5590    2.2370   -0.6420 C   0  0  0  0  0  0  0  0  0  0  0  0
   12.2740    1.4680   -1.5670 C   0  0  0  0  0  3  0  0  0  0  0  0
   11.8410    0.1800   -1.8950 C   0  0  0  0  0  3  0  0  0  0  0  0
   10.6970   -0.3610   -1.3010 C   0  0  0  0  0  0  0  0  0  0  0  0
   10.0040    0.3870   -0.3500 C   0  0  0  0  0  3  0  0  0  0  0  0
   10.4350    1.6780   -0.0230 C   0  0  0  0  0  3  0  0  0  0  0  0
   10.3970   -1.6350   -1.6990 O   0  0  0  0  0  0  0  0  0  0  0  0
   10.8660   -2.7180   -0.8940 C   0  0  0  0  0  2  0  0  0  0  0  0
    9.8340   -3.2690    0.0640 C   0  0  0  0  0  0  0  0  0  0  0  0
    9.0460   -4.3560   -0.3280 C   0  0  0  0  0  3  0  0  0  0  0  0
    8.1210   -4.8700    0.5680 C   0  0  0  0  0  3  0  0  0  0  0  0
    7.9320   -4.3870    1.8130 N   0  0  0  0  0  0  0  0  0  0  0  0
    8.7010   -3.3370    2.1750 C   0  0  0  0  0  3  0  0  0  0  0  0
    9.6550   -2.7580    1.3520 C   0  0  0  0  0  3  0  0  0  0  0  0
   11.9400    3.3140    2.2400 C   0  0  0  0  0  3  0  0  0  0  0  0
   13.1610    3.2910    3.1720 C   0  0  0  0  0  2  0  0  0  0  0  0
   12.5550    3.0120    4.5390 C   0  0  0  0  0  2  0  0  0  0  0  0
   11.2870    3.8500    4.5380 C   0  0  0  0  0  2  0  0  0  0  0  0
   10.7480    3.7490    3.1130 C   0  0  0  0  0  2  0  0  0  0  0  0
   13.5590   10.2720    0.4110 O   0  0  0  0  0  1  0  0  0  0  0  0
   13.6790    9.3180   -0.4220 C   0  0  0  0  0  0  0  0  0  0  0  0
   14.1270    9.4200   -1.6070 O   0  0  0  0  0  0  0  0  0  0  0  0
  1  2  1  0  0  0  0
  2  3  2  0  0  0  0
  4  9  1  0  0  0  0
  4  3  1  0  0  0  0
  5  4  2  0  0  0  0
  6  5  1  0  0  0  0
  6  1  2  0  0  0  0
  7  5  1  0  0  0  0
  7  8  2  0  0  0  0
  8  9  1  0  0  0  0
  9 24  1  0  0  0  0
 10  8  1  0  0  0  0
 10 15  1  0  0  0  0
 11 10  2  0  0  0  0
 12 11  1  0  0  0  0
 12 13  2  0  0  0  0
 13 14  1  0  0  0  0
 14 15  2  0  0  0  0
 16 13  1  0  0  0  0
 16 17  1  0  0  0  0
 17 18  1  0  0  0  0
 18 23  1  0  0  0  0
 19 18  2  0  0  0  0
 19 20  1  0  0  0  0
 20 21  2  0  0  0  0
 21 22  1  0  0  0  0
 23 22  2  0  0  0  0
 24 28  1  0  0  0  0
 24 25  1  0  0  0  0
 25 26  1  0  0  0  0
 27 26  1  0  0  0  0
 28 27  1  0  0  0  0
 30  1  1  0  0  0  0
 30 29  1  0  0  0  0
 31 30  2  0  0  0  0
M  END
>  <minimizedAffinity>
-6.40594578

$$$$
