
 OpenBabel09132204463D

 31 35  0  0  0  0  0  0  0  0999 V2000
    8.9780   -2.1240    2.2980 C   0  0  0  0  0  0  0  0  0  0  0  0
    9.3290   -2.3990    0.9660 C   0  0  0  0  0  3  0  0  0  0  0  0
    9.7610   -1.4010    0.0860 C   0  0  0  0  0  3  0  0  0  0  0  0
    9.8340   -0.0920    0.5790 C   0  0  0  0  0  0  0  0  0  0  0  0
    9.4870    0.2220    1.8890 C   0  0  0  0  0  0  0  0  0  0  0  0
    9.0600   -0.7940    2.7590 C   0  0  0  0  0  3  0  0  0  0  0  0
    9.6280    1.5670    2.1220 N   0  0  0  0  0  0  0  0  0  0  0  0
   10.0160    2.1010    0.9800 C   0  0  0  0  0  0  0  0  0  0  0  0
   10.2250    1.1130    0.0290 N   0  0  0  0  0  0  0  0  0  0  0  0
   10.2200    3.5370    0.7880 C   0  0  0  0  0  0  0  0  0  0  0  0
    9.3280    4.3040    0.0310 C   0  0  0  0  0  3  0  0  0  0  0  0
    9.5390    5.6770   -0.1270 C   0  0  0  0  0  3  0  0  0  0  0  0
   10.6360    6.3040    0.4720 C   0  0  0  0  0  0  0  0  0  0  0  0
   11.5060    5.5500    1.2590 C   0  0  0  0  0  3  0  0  0  0  0  0
   11.2960    4.1750    1.4160 C   0  0  0  0  0  3  0  0  0  0  0  0
   10.7120    7.6510    0.2510 O   0  0  0  0  0  0  0  0  0  0  0  0
   11.9890    8.2080   -0.0740 C   0  0  0  0  0  2  0  0  0  0  0  0
   12.3990    8.0130   -1.5160 C   0  0  0  0  0  0  0  0  0  0  0  0
   11.8710    8.8560   -2.4990 C   0  0  0  0  0  3  0  0  0  0  0  0
   12.2740    8.6850   -3.8150 C   0  0  0  0  0  3  0  0  0  0  0  0
   13.1590    7.7500   -4.2140 N   0  0  0  0  0  0  0  0  0  0  0  0
   13.6600    6.9440   -3.2520 C   0  0  0  0  0  3  0  0  0  0  0  0
   13.3220    7.0400   -1.9100 C   0  0  0  0  0  3  0  0  0  0  0  0
   10.7980    1.3080   -1.2880 C   0  0  0  0  0  3  0  0  0  0  0  0
   12.3250    1.4720   -1.3160 C   0  0  0  0  0  2  0  0  0  0  0  0
   12.7000    1.0380   -2.7240 C   0  0  0  0  0  2  0  0  0  0  0  0
   11.7980   -0.1590   -2.9740 C   0  0  0  0  0  2  0  0  0  0  0  0
   10.4720    0.2000   -2.3060 C   0  0  0  0  0  2  0  0  0  0  0  0
    7.5250   -3.9300    2.8350 O   0  0  0  0  0  0  0  0  0  0  0  0
    8.5190   -3.2360    3.2200 C   0  0  0  0  0  0  0  0  0  0  0  0
    9.1590   -3.3960    4.3060 O   0  0  0  0  0  1  0  0  0  0  0  0
  1  6  1  0  0  0  0
  1 30  1  0  0  0  0
  2  1  2  0  0  0  0
  3  4  2  0  0  0  0
  3  2  1  0  0  0  0
  4  5  1  0  0  0  0
  5  7  1  0  0  0  0
  5  6  2  0  0  0  0
  8  7  2  0  0  0  0
  9  4  1  0  0  0  0
  9  8  1  0  0  0  0
 10  8  1  0  0  0  0
 10 15  1  0  0  0  0
 11 10  2  0  0  0  0
 12 11  1  0  0  0  0
 12 13  2  0  0  0  0
 13 14  1  0  0  0  0
 14 15  2  0  0  0  0
 16 13  1  0  0  0  0
 17 16  1  0  0  0  0
 18 17  1  0  0  0  0
 19 18  2  0  0  0  0
 20 19  1  0  0  0  0
 21 20  2  0  0  0  0
 21 22  1  0  0  0  0
 22 23  2  0  0  0  0
 23 18  1  0  0  0  0
 24  9  1  0  0  0  0
 25 24  1  0  0  0  0
 26 25  1  0  0  0  0
 27 26  1  0  0  0  0
 27 28  1  0  0  0  0
 28 24  1  0  0  0  0
 29 30  2  0  0  0  0
 30 31  1  0  0  0  0
M  END
>  <minimizedAffinity>
-7.39874792

$$$$
