REMARK  Name = 
REMARK  3 active torsions:
REMARK  status: ('A' for Active; 'I' for Inactive)
REMARK    1  A    between atoms: C_2  and  CA_4
REMARK    2  A    between atoms: C_8  and  C_9
REMARK    3  A    between atoms: N_15  and  C_16
REMARK                            x       y       z     vdW  Elec       q    Type
REMARK                         _______ _______ _______ _____ _____    ______ ____
ROOT
ATOM      1  CA  UNL     1       3.309   0.118  -1.609  0.00  0.00    +0.065 A 
ATOM      2  C   UNL     1       2.826   1.214  -2.315  0.00  0.00    +0.059 A 
ATOM      3  C   UNL     1       3.654   1.307  -3.431  0.00  0.00    +0.109 A 
ATOM      4  N   UNL     1       3.774   2.108  -4.507  0.00  0.00    -0.226 NA
ATOM      5  C   UNL     1       4.809   1.603  -5.179  0.00  0.00    +0.143 A 
ATOM      6  N   UNL     1       5.345   0.497  -4.516  0.00  0.00    -0.307 N 
ATOM      7  C   UNL     1       4.579   0.330  -3.404  0.00  0.00    +0.140 A 
ATOM      8  N   UNL     1       4.385  -0.418  -2.291  0.00  0.00    -0.338 N 
ATOM      9  H   UNL     1       4.891  -1.227  -1.948  0.00  0.00    +0.167 HD
ENDROOT
BRANCH   5  10
ATOM     10  C   UNL     1       5.305   2.178  -6.426  0.00  0.00    +0.018 A 
ATOM     11  C   UNL     1       4.933   1.639  -7.662  0.00  0.00    +0.011 A 
ATOM     12  C   UNL     1       5.403   2.206  -8.849  0.00  0.00    +0.001 A 
ATOM     13  C   UNL     1       6.232   3.326  -8.806  0.00  0.00    +0.000 A 
ATOM     14  C   UNL     1       6.581   3.889  -7.579  0.00  0.00    +0.001 A 
ATOM     15  C   UNL     1       6.112   3.322  -6.393  0.00  0.00    +0.011 A 
ENDBRANCH   5  10
BRANCH   6  16
ATOM     16  C   UNL     1       6.483  -0.348  -4.843  0.00  0.00    +0.091 C 
ATOM     17  C   UNL     1       6.199  -1.317  -6.000  0.00  0.00    +0.025 C 
ATOM     18  C   UNL     1       7.370  -2.275  -6.218  0.00  0.00    +0.002 C 
ATOM     19  C   UNL     1       8.686  -1.526  -6.411  0.00  0.00    +0.000 C 
ATOM     20  C   UNL     1       8.964  -0.562  -5.260  0.00  0.00    +0.002 C 
ATOM     21  C   UNL     1       7.803   0.409  -5.049  0.00  0.00    +0.025 C 
ENDBRANCH   6  16
BRANCH   1  23
ATOM     22  O   UNL     1       1.839   0.102   0.209  0.00  0.00    -0.543 OA
ATOM     23  C   UNL     1       2.829  -0.454  -0.347  0.00  0.00    +0.088 C 
ATOM     24  OXT UNL     1       3.482  -1.467   0.055  0.00  0.00    -0.543 OA
ENDBRANCH   1  23
TORSDOF 3
