
 OpenBabel09122222393D

 24 27  0  0  0  0  0  0  0  0999 V2000
   10.6680    4.3970    0.5390 C   0  0  0  0  0  0  0  0  0  0  0  0
   10.1980    4.0660    1.8050 C   0  0  0  0  0  3  0  0  0  0  0  0
   10.0050    2.6870    1.7600 C   0  0  0  0  0  0  0  0  0  0  0  0
    9.5750    1.7230    2.5950 N   0  0  0  0  0  0  0  0  0  0  0  0
    9.6510    0.6040    1.8730 C   0  0  0  0  0  0  0  0  0  0  0  0
   10.1140    0.8720    0.5830 N   0  0  0  0  0  0  0  0  0  0  0  0
   10.3370    2.2130    0.5450 C   0  0  0  0  0  0  0  0  0  0  0  0
   10.7520    3.2490   -0.2250 N   0  0  0  0  0  0  0  0  0  0  0  0
   11.0710    3.2640   -1.1870 H   0  0  0  0  0  0  0  0  0  0  0  0
    9.2630   -0.7050    2.3910 C   0  0  0  0  0  0  0  0  0  0  0  0
    8.6480   -1.6490    1.5630 C   0  0  0  0  0  3  0  0  0  0  0  0
    8.2940   -2.9040    2.0660 C   0  0  0  0  0  3  0  0  0  0  0  0
    8.5700   -3.2260    3.3940 C   0  0  0  0  0  3  0  0  0  0  0  0
    9.2130   -2.3010    4.2170 C   0  0  0  0  0  3  0  0  0  0  0  0
    9.5660   -1.0480    3.7140 C   0  0  0  0  0  3  0  0  0  0  0  0
   10.3260   -0.0120   -0.5530 C   0  0  0  0  0  3  0  0  0  0  0  0
   10.7310    0.7390   -1.8300 C   0  0  0  0  0  2  0  0  0  0  0  0
   10.8080   -0.2100   -3.0260 C   0  0  0  0  0  2  0  0  0  0  0  0
   11.7250   -1.3980   -2.7480 C   0  0  0  0  0  2  0  0  0  0  0  0
   11.3210   -2.1410   -1.4760 C   0  0  0  0  0  2  0  0  0  0  0  0
   11.2580   -1.2000   -0.2740 C   0  0  0  0  0  2  0  0  0  0  0  0
   12.1980    5.8360   -0.4870 O   0  0  0  0  0  0  0  0  0  0  0  0
   11.0410    5.7110    0.0060 C   0  0  0  0  0  0  0  0  0  0  0  0
   10.1360    6.5970    0.1060 O   0  0  0  0  0  1  0  0  0  0  0  0
  1  2  2  0  0  0  0
  3  2  1  0  0  0  0
  3  4  1  0  0  0  0
  5 10  1  0  0  0  0
  5  4  2  0  0  0  0
  6  5  1  0  0  0  0
  7  6  1  0  0  0  0
  7  3  2  0  0  0  0
  8  1  1  0  0  0  0
  8  7  1  0  0  0  0
  9  8  1  0  0  0  0
 10 15  1  0  0  0  0
 11 12  1  0  0  0  0
 11 10  2  0  0  0  0
 12 13  2  0  0  0  0
 13 14  1  0  0  0  0
 15 14  2  0  0  0  0
 16 21  1  0  0  0  0
 16  6  1  0  0  0  0
 17 16  1  0  0  0  0
 18 19  1  0  0  0  0
 18 17  1  0  0  0  0
 19 20  1  0  0  0  0
 20 21  1  0  0  0  0
 22 23  2  0  0  0  0
 23 24  1  0  0  0  0
 23  1  1  0  0  0  0
M  END
>  <minimizedAffinity>
-5.43931627

$$$$
