
 OpenBabel09122222393D

 24 27  0  0  0  0  0  0  0  0999 V2000
    8.3130   -3.9880    1.2980 C   0  0  0  0  0  0  0  0  0  0  0  0
    7.9430   -3.0680    2.2720 C   0  0  0  0  0  3  0  0  0  0  0  0
    8.5980   -1.8920    1.9130 C   0  0  0  0  0  0  0  0  0  0  0  0
    8.7030   -0.6360    2.3870 N   0  0  0  0  0  0  0  0  0  0  0  0
    9.5140   -0.0250    1.5220 C   0  0  0  0  0  0  0  0  0  0  0  0
    9.9270   -0.9020    0.5170 N   0  0  0  0  0  0  0  0  0  0  0  0
    9.3180   -2.0870    0.7920 C   0  0  0  0  0  0  0  0  0  0  0  0
    9.1560   -3.3720    0.3930 N   0  0  0  0  0  0  0  0  0  0  0  0
    9.5470   -3.8660   -0.4010 H   0  0  0  0  0  0  0  0  0  0  0  0
    9.9170    1.3720    1.6600 C   0  0  0  0  0  0  0  0  0  0  0  0
    9.9550    2.2200    0.5480 C   0  0  0  0  0  3  0  0  0  0  0  0
   10.3290    3.5580    0.6940 C   0  0  0  0  0  3  0  0  0  0  0  0
   10.6480    4.0580    1.9560 C   0  0  0  0  0  3  0  0  0  0  0  0
   10.5800    3.2280    3.0740 C   0  0  0  0  0  3  0  0  0  0  0  0
   10.2080    1.8910    2.9280 C   0  0  0  0  0  3  0  0  0  0  0  0
   10.8250   -0.7020   -0.6090 C   0  0  0  0  0  3  0  0  0  0  0  0
   11.7220   -1.9180   -0.8860 C   0  0  0  0  0  2  0  0  0  0  0  0
   12.7400   -1.6140   -1.9850 C   0  0  0  0  0  2  0  0  0  0  0  0
   12.0660   -1.1010   -3.2550 C   0  0  0  0  0  2  0  0  0  0  0  0
   11.1730    0.1060   -2.9760 C   0  0  0  0  0  2  0  0  0  0  0  0
   10.1430   -0.1980   -1.8890 C   0  0  0  0  0  2  0  0  0  0  0  0
    6.9550   -5.8070    1.8580 O   0  0  0  0  0  1  0  0  0  0  0  0
    7.9280   -5.3970    1.1640 C   0  0  0  0  0  0  0  0  0  0  0  0
    8.6380   -6.0610    0.3460 O   0  0  0  0  0  0  0  0  0  0  0  0
  1  2  2  0  0  0  0
  3  2  1  0  0  0  0
  3  4  1  0  0  0  0
  5 10  1  0  0  0  0
  5  4  2  0  0  0  0
  6  7  1  0  0  0  0
  6  5  1  0  0  0  0
  7  3  2  0  0  0  0
  8  7  1  0  0  0  0
  8  1  1  0  0  0  0
  9  8  1  0  0  0  0
 10 15  1  0  0  0  0
 11 12  1  0  0  0  0
 11 10  2  0  0  0  0
 12 13  2  0  0  0  0
 13 14  1  0  0  0  0
 15 14  2  0  0  0  0
 16  6  1  0  0  0  0
 17 16  1  0  0  0  0
 18 17  1  0  0  0  0
 19 20  1  0  0  0  0
 19 18  1  0  0  0  0
 20 21  1  0  0  0  0
 21 16  1  0  0  0  0
 23  1  1  0  0  0  0
 23 22  1  0  0  0  0
 24 23  2  0  0  0  0
M  END
>  <minimizedAffinity>
-6.23286724

$$$$
