
 OpenBabel09122220033D

 24 27  0  0  0  0  0  0  0  0999 V2000
    8.3130   -3.9880    1.2980 C   0  0  0  0  0  0  0  0  0  0  0  0
    7.9430   -3.0680    2.2720 C   0  0  0  0  0  3  0  0  0  0  0  0
    8.5980   -1.8920    1.9130 C   0  0  0  0  0  0  0  0  0  0  0  0
    8.7030   -0.6360    2.3870 N   0  0  0  0  0  0  0  0  0  0  0  0
    9.5140   -0.0250    1.5220 C   0  0  0  0  0  0  0  0  0  0  0  0
    9.9270   -0.9020    0.5170 N   0  0  0  0  0  0  0  0  0  0  0  0
    9.3180   -2.0870    0.7920 C   0  0  0  0  0  0  0  0  0  0  0  0
    9.1560   -3.3720    0.3930 N   0  0  0  0  0  0  0  0  0  0  0  0
    9.5470   -3.8660   -0.4010 H   0  0  0  0  0  0  0  0  0  0  0  0
    9.9170    1.3720    1.6600 C   0  0  0  0  0  0  0  0  0  0  0  0
    9.9550    2.2200    0.5480 C   0  0  0  0  0  3  0  0  0  0  0  0
   10.3290    3.5580    0.6940 C   0  0  0  0  0  3  0  0  0  0  0  0
   10.6480    4.0580    1.9560 C   0  0  0  0  0  3  0  0  0  0  0  0
   10.5800    3.2280    3.0740 C   0  0  0  0  0  3  0  0  0  0  0  0
   10.2080    1.8910    2.9280 C   0  0  0  0  0  3  0  0  0  0  0  0
   10.8250   -0.7020   -0.6090 C   0  0  0  0  0  3  0  0  0  0  0  0
   11.7220   -1.9180   -0.8860 C   0  0  0  0  0  2  0  0  0  0  0  0
   12.7400   -1.6140   -1.9850 C   0  0  0  0  0  2  0  0  0  0  0  0
   12.0660   -1.1010   -3.2550 C   0  0  0  0  0  2  0  0  0  0  0  0
   11.1730    0.1060   -2.9760 C   0  0  0  0  0  2  0  0  0  0  0  0
   10.1430   -0.1980   -1.8890 C   0  0  0  0  0  2  0  0  0  0  0  0
    6.9550   -5.8070    1.8580 O   0  0  0  0  0  1  0  0  0  0  0  0
    7.9280   -5.3970    1.1640 C   0  0  0  0  0  0  0  0  0  0  0  0
    8.6380   -6.0610    0.3460 O   0  0  0  0  0  0  0  0  0  0  0  0
  1  2  2  0  0  0  0
  3  2  1  0  0  0  0
  3  4  1  0  0  0  0
  5 10  1  0  0  0  0
  5  4  2  0  0  0  0
  6  7  1  0  0  0  0
  6  5  1  0  0  0  0
  7  3  2  0  0  0  0
  8  7  1  0  0  0  0
  8  1  1  0  0  0  0
  9  8  1  0  0  0  0
 10 15  1  0  0  0  0
 11 12  1  0  0  0  0
 11 10  2  0  0  0  0
 12 13  2  0  0  0  0
 13 14  1  0  0  0  0
 15 14  2  0  0  0  0
 16  6  1  0  0  0  0
 17 16  1  0  0  0  0
 18 17  1  0  0  0  0
 19 20  1  0  0  0  0
 19 18  1  0  0  0  0
 20 21  1  0  0  0  0
 21 16  1  0  0  0  0
 23  1  1  0  0  0  0
 23 22  1  0  0  0  0
 24 23  2  0  0  0  0
M  END
>  <minimizedAffinity>
-6.23286724

$$$$

 OpenBabel09122220033D

 24 27  0  0  0  0  0  0  0  0999 V2000
    9.0520   -1.8950    2.3980 C   0  0  0  0  0  0  0  0  0  0  0  0
    8.9760   -0.7910    3.2390 C   0  0  0  0  0  3  0  0  0  0  0  0
    9.3830    0.2820    2.4500 C   0  0  0  0  0  0  0  0  0  0  0  0
    9.5560    1.6090    2.6010 N   0  0  0  0  0  0  0  0  0  0  0  0
    9.9750    2.0240    1.4050 C   0  0  0  0  0  0  0  0  0  0  0  0
   10.0770    0.9560    0.5120 N   0  0  0  0  0  0  0  0  0  0  0  0
    9.6850   -0.1440    1.2090 C   0  0  0  0  0  0  0  0  0  0  0  0
    9.4870   -1.4830    1.1520 N   0  0  0  0  0  0  0  0  0  0  0  0
    9.6150   -2.1330    0.3840 H   0  0  0  0  0  0  0  0  0  0  0  0
   10.3010    3.4180    1.1160 C   0  0  0  0  0  0  0  0  0  0  0  0
   11.4380    4.0170    1.6670 C   0  0  0  0  0  3  0  0  0  0  0  0
   11.7480    5.3470    1.3730 C   0  0  0  0  0  3  0  0  0  0  0  0
   10.9310    6.0780    0.5110 C   0  0  0  0  0  3  0  0  0  0  0  0
    9.8140    5.4780   -0.0680 C   0  0  0  0  0  3  0  0  0  0  0  0
    9.5040    4.1500    0.2270 C   0  0  0  0  0  3  0  0  0  0  0  0
   10.5170    0.9150   -0.8740 C   0  0  0  0  0  3  0  0  0  0  0  0
   11.9070    1.5350   -1.0820 C   0  0  0  0  0  2  0  0  0  0  0  0
   12.2680    1.5940   -2.5660 C   0  0  0  0  0  2  0  0  0  0  0  0
   12.1490    0.2260   -3.2330 C   0  0  0  0  0  2  0  0  0  0  0  0
   10.7670   -0.3890   -3.0220 C   0  0  0  0  0  2  0  0  0  0  0  0
   10.4080   -0.4650   -1.5390 C   0  0  0  0  0  2  0  0  0  0  0  0
    8.3050   -4.0100    1.7360 O   0  0  0  0  0  0  0  0  0  0  0  0
    8.7450   -3.3000    2.6850 C   0  0  0  0  0  0  0  0  0  0  0  0
    8.9590   -3.6520    3.8870 O   0  0  0  0  0  1  0  0  0  0  0  0
  1 23  1  0  0  0  0
  1  2  2  0  0  0  0
  3  4  1  0  0  0  0
  3  2  1  0  0  0  0
  5  4  2  0  0  0  0
  6  7  1  0  0  0  0
  6  5  1  0  0  0  0
  7  3  2  0  0  0  0
  8  7  1  0  0  0  0
  8  1  1  0  0  0  0
  9  8  1  0  0  0  0
 10  5  1  0  0  0  0
 10 11  1  0  0  0  0
 12 11  2  0  0  0  0
 13 12  1  0  0  0  0
 14 15  1  0  0  0  0
 14 13  2  0  0  0  0
 15 10  2  0  0  0  0
 16  6  1  0  0  0  0
 17 16  1  0  0  0  0
 18 17  1  0  0  0  0
 19 20  1  0  0  0  0
 19 18  1  0  0  0  0
 20 21  1  0  0  0  0
 21 16  1  0  0  0  0
 22 23  2  0  0  0  0
 23 24  1  0  0  0  0
M  END
>  <minimizedAffinity>
-6.13959122

$$$$

 OpenBabel09122220033D

 24 27  0  0  0  0  0  0  0  0999 V2000
   10.1480    2.5660    1.1880 C   0  0  0  0  0  0  0  0  0  0  0  0
    9.2900    1.9020    2.0560 C   0  0  0  0  0  3  0  0  0  0  0  0
    9.2800    0.5850    1.6020 C   0  0  0  0  0  0  0  0  0  0  0  0
    8.6830   -0.5730    1.9460 N   0  0  0  0  0  0  0  0  0  0  0  0
    9.1400   -1.4540    1.0550 C   0  0  0  0  0  0  0  0  0  0  0  0
   10.0080   -0.8450    0.1470 N   0  0  0  0  0  0  0  0  0  0  0  0
   10.0810    0.4590    0.5290 C   0  0  0  0  0  0  0  0  0  0  0  0
   10.6300    1.6670    0.2550 N   0  0  0  0  0  0  0  0  0  0  0  0
   11.2740    1.9440   -0.4770 H   0  0  0  0  0  0  0  0  0  0  0  0
    8.7370   -2.8570    1.0470 C   0  0  0  0  0  0  0  0  0  0  0  0
    8.0750   -3.4200    2.1430 C   0  0  0  0  0  3  0  0  0  0  0  0
    7.6820   -4.7610    2.1180 C   0  0  0  0  0  3  0  0  0  0  0  0
    7.9330   -5.5390    0.9890 C   0  0  0  0  0  3  0  0  0  0  0  0
    8.5630   -4.9770   -0.1210 C   0  0  0  0  0  3  0  0  0  0  0  0
    8.9560   -3.6380   -0.0950 C   0  0  0  0  0  3  0  0  0  0  0  0
   10.7140   -1.3870   -1.0030 C   0  0  0  0  0  3  0  0  0  0  0  0
   11.0730   -0.3180   -2.0460 C   0  0  0  0  0  2  0  0  0  0  0  0
   11.6890   -0.9500   -3.2940 C   0  0  0  0  0  2  0  0  0  0  0  0
   12.8840   -1.8350   -2.9500 C   0  0  0  0  0  2  0  0  0  0  0  0
   12.5240   -2.8950   -1.9110 C   0  0  0  0  0  2  0  0  0  0  0  0
   11.9230   -2.2670   -0.6540 C   0  0  0  0  0  2  0  0  0  0  0  0
   11.3300    4.3730    2.0860 O   0  0  0  0  0  1  0  0  0  0  0  0
   10.5430    3.9790    1.1780 C   0  0  0  0  0  0  0  0  0  0  0  0
   10.0330    4.6620    0.2360 O   0  0  0  0  0  0  0  0  0  0  0  0
  1  2  2  0  0  0  0
  3  4  1  0  0  0  0
  3  2  1  0  0  0  0
  5  4  2  0  0  0  0
  6  7  1  0  0  0  0
  6  5  1  0  0  0  0
  7  3  2  0  0  0  0
  8  7  1  0  0  0  0
  8  1  1  0  0  0  0
  9  8  1  0  0  0  0
 10  5  1  0  0  0  0
 10 11  1  0  0  0  0
 12 11  2  0  0  0  0
 13 12  1  0  0  0  0
 14 15  1  0  0  0  0
 14 13  2  0  0  0  0
 15 10  2  0  0  0  0
 16 21  1  0  0  0  0
 16  6  1  0  0  0  0
 17 16  1  0  0  0  0
 18 19  1  0  0  0  0
 18 17  1  0  0  0  0
 19 20  1  0  0  0  0
 20 21  1  0  0  0  0
 23  1  1  0  0  0  0
 23 22  1  0  0  0  0
 24 23  2  0  0  0  0
M  END
>  <minimizedAffinity>
-6.10397482

$$$$

 OpenBabel09122220033D

 24 27  0  0  0  0  0  0  0  0999 V2000
   10.6680    4.3970    0.5390 C   0  0  0  0  0  0  0  0  0  0  0  0
   10.1980    4.0660    1.8050 C   0  0  0  0  0  3  0  0  0  0  0  0
   10.0050    2.6870    1.7600 C   0  0  0  0  0  0  0  0  0  0  0  0
    9.5750    1.7230    2.5950 N   0  0  0  0  0  0  0  0  0  0  0  0
    9.6510    0.6040    1.8730 C   0  0  0  0  0  0  0  0  0  0  0  0
   10.1140    0.8720    0.5830 N   0  0  0  0  0  0  0  0  0  0  0  0
   10.3370    2.2130    0.5450 C   0  0  0  0  0  0  0  0  0  0  0  0
   10.7520    3.2490   -0.2250 N   0  0  0  0  0  0  0  0  0  0  0  0
   11.0710    3.2640   -1.1870 H   0  0  0  0  0  0  0  0  0  0  0  0
    9.2630   -0.7050    2.3910 C   0  0  0  0  0  0  0  0  0  0  0  0
    8.6480   -1.6490    1.5630 C   0  0  0  0  0  3  0  0  0  0  0  0
    8.2940   -2.9040    2.0660 C   0  0  0  0  0  3  0  0  0  0  0  0
    8.5700   -3.2260    3.3940 C   0  0  0  0  0  3  0  0  0  0  0  0
    9.2130   -2.3010    4.2170 C   0  0  0  0  0  3  0  0  0  0  0  0
    9.5660   -1.0480    3.7140 C   0  0  0  0  0  3  0  0  0  0  0  0
   10.3260   -0.0120   -0.5530 C   0  0  0  0  0  3  0  0  0  0  0  0
   10.7310    0.7390   -1.8300 C   0  0  0  0  0  2  0  0  0  0  0  0
   10.8080   -0.2100   -3.0260 C   0  0  0  0  0  2  0  0  0  0  0  0
   11.7250   -1.3980   -2.7480 C   0  0  0  0  0  2  0  0  0  0  0  0
   11.3210   -2.1410   -1.4760 C   0  0  0  0  0  2  0  0  0  0  0  0
   11.2580   -1.2000   -0.2740 C   0  0  0  0  0  2  0  0  0  0  0  0
   12.1980    5.8360   -0.4870 O   0  0  0  0  0  0  0  0  0  0  0  0
   11.0410    5.7110    0.0060 C   0  0  0  0  0  0  0  0  0  0  0  0
   10.1360    6.5970    0.1060 O   0  0  0  0  0  1  0  0  0  0  0  0
  1  2  2  0  0  0  0
  3  2  1  0  0  0  0
  3  4  1  0  0  0  0
  5 10  1  0  0  0  0
  5  4  2  0  0  0  0
  6  5  1  0  0  0  0
  7  6  1  0  0  0  0
  7  3  2  0  0  0  0
  8  1  1  0  0  0  0
  8  7  1  0  0  0  0
  9  8  1  0  0  0  0
 10 15  1  0  0  0  0
 11 12  1  0  0  0  0
 11 10  2  0  0  0  0
 12 13  2  0  0  0  0
 13 14  1  0  0  0  0
 15 14  2  0  0  0  0
 16 21  1  0  0  0  0
 16  6  1  0  0  0  0
 17 16  1  0  0  0  0
 18 19  1  0  0  0  0
 18 17  1  0  0  0  0
 19 20  1  0  0  0  0
 20 21  1  0  0  0  0
 22 23  2  0  0  0  0
 23 24  1  0  0  0  0
 23  1  1  0  0  0  0
M  END
>  <minimizedAffinity>
-5.43931627

$$$$

 OpenBabel09122220033D

 24 27  0  0  0  0  0  0  0  0999 V2000
   11.0120    5.9370    1.7510 C   0  0  0  0  0  0  0  0  0  0  0  0
   11.7340    5.8190    0.5690 C   0  0  0  0  0  3  0  0  0  0  0  0
   11.5600    4.4920    0.1810 C   0  0  0  0  0  0  0  0  0  0  0  0
   11.9650    3.6980   -0.8280 N   0  0  0  0  0  0  0  0  0  0  0  0
   11.4100    2.5160   -0.5590 C   0  0  0  0  0  0  0  0  0  0  0  0
   10.6710    2.5670    0.6250 N   0  0  0  0  0  0  0  0  0  0  0  0
   10.7830    3.8480    1.0710 C   0  0  0  0  0  0  0  0  0  0  0  0
   10.4300    4.7190    2.0470 N   0  0  0  0  0  0  0  0  0  0  0  0
    9.8580    4.5820    2.8730 H   0  0  0  0  0  0  0  0  0  0  0  0
   11.5970    1.3380   -1.4010 C   0  0  0  0  0  0  0  0  0  0  0  0
   10.5160    0.7570   -2.0730 C   0  0  0  0  0  3  0  0  0  0  0  0
   10.7100   -0.3610   -2.8870 C   0  0  0  0  0  3  0  0  0  0  0  0
   11.9890   -0.8930   -3.0480 C   0  0  0  0  0  3  0  0  0  0  0  0
   13.0770   -0.3000   -2.4080 C   0  0  0  0  0  3  0  0  0  0  0  0
   12.8830    0.8170   -1.5940 C   0  0  0  0  0  3  0  0  0  0  0  0
    9.9270    1.5330    1.3270 C   0  0  0  0  0  3  0  0  0  0  0  0
    9.9360    0.1840    0.5950 C   0  0  0  0  0  2  0  0  0  0  0  0
    9.0330   -0.8310    1.2950 C   0  0  0  0  0  2  0  0  0  0  0  0
    9.3890   -0.9810    2.7720 C   0  0  0  0  0  2  0  0  0  0  0  0
    9.3820    0.3620    3.4970 C   0  0  0  0  0  2  0  0  0  0  0  0
   10.2960    1.3750    2.8100 C   0  0  0  0  0  2  0  0  0  0  0  0
   11.8030    7.9170    2.7100 O   0  0  0  0  0  0  0  0  0  0  0  0
   10.8350    7.1100    2.6130 C   0  0  0  0  0  0  0  0  0  0  0  0
    9.7000    7.1810    3.1790 O   0  0  0  0  0  1  0  0  0  0  0  0
  1  8  1  0  0  0  0
  1 23  1  0  0  0  0
  2  1  2  0  0  0  0
  3  2  1  0  0  0  0
  3  7  2  0  0  0  0
  4  5  2  0  0  0  0
  4  3  1  0  0  0  0
  5  6  1  0  0  0  0
  6  7  1  0  0  0  0
  6 16  1  0  0  0  0
  7  8  1  0  0  0  0
  8  9  1  0  0  0  0
 10  5  1  0  0  0  0
 11 10  2  0  0  0  0
 12 11  1  0  0  0  0
 13 12  2  0  0  0  0
 13 14  1  0  0  0  0
 14 15  2  0  0  0  0
 15 10  1  0  0  0  0
 16 21  1  0  0  0  0
 17 18  1  0  0  0  0
 17 16  1  0  0  0  0
 18 19  1  0  0  0  0
 19 20  1  0  0  0  0
 21 20  1  0  0  0  0
 23 22  2  0  0  0  0
 23 24  1  0  0  0  0
M  END
>  <minimizedAffinity>
-4.94874907

$$$$

 OpenBabel09122220033D

 24 27  0  0  0  0  0  0  0  0999 V2000
   10.5540    4.2910    2.6930 C   0  0  0  0  0  0  0  0  0  0  0  0
   10.1080    3.3100    3.5720 C   0  0  0  0  0  3  0  0  0  0  0  0
   10.0040    2.1600    2.7930 C   0  0  0  0  0  0  0  0  0  0  0  0
    9.6380    0.8760    2.9730 N   0  0  0  0  0  0  0  0  0  0  0  0
    9.7840    0.3210    1.7690 C   0  0  0  0  0  0  0  0  0  0  0  0
   10.2270    1.2600    0.8350 N   0  0  0  0  0  0  0  0  0  0  0  0
   10.3640    2.4250    1.5240 C   0  0  0  0  0  0  0  0  0  0  0  0
   10.7100    3.7330    1.4380 N   0  0  0  0  0  0  0  0  0  0  0  0
   11.0260    4.2760    0.6430 H   0  0  0  0  0  0  0  0  0  0  0  0
    9.4820   -1.0810    1.4980 C   0  0  0  0  0  0  0  0  0  0  0  0
   10.3390   -1.8600    0.7130 C   0  0  0  0  0  3  0  0  0  0  0  0
   10.0470   -3.2050    0.4720 C   0  0  0  0  0  3  0  0  0  0  0  0
    8.9060   -3.7810    1.0280 C   0  0  0  0  0  3  0  0  0  0  0  0
    8.0640   -3.0200    1.8380 C   0  0  0  0  0  3  0  0  0  0  0  0
    8.3560   -1.6760    2.0790 C   0  0  0  0  0  3  0  0  0  0  0  0
   10.4930    1.1320   -0.5890 C   0  0  0  0  0  3  0  0  0  0  0  0
   11.9320    1.5090   -0.9680 C   0  0  0  0  0  2  0  0  0  0  0  0
   12.1270    1.4920   -2.4840 C   0  0  0  0  0  2  0  0  0  0  0  0
   11.7080    0.1570   -3.0930 C   0  0  0  0  0  2  0  0  0  0  0  0
   10.2770   -0.2160   -2.7130 C   0  0  0  0  0  2  0  0  0  0  0  0
   10.0820   -0.2170   -1.1970 C   0  0  0  0  0  2  0  0  0  0  0  0
   12.0380    6.0220    3.2080 O   0  0  0  0  0  1  0  0  0  0  0  0
   10.8410    5.7050    2.9530 C   0  0  0  0  0  0  0  0  0  0  0  0
    9.8270    6.4680    2.8940 O   0  0  0  0  0  0  0  0  0  0  0  0
  1 23  1  0  0  0  0
  1  2  2  0  0  0  0
  3  4  1  0  0  0  0
  3  2  1  0  0  0  0
  5  4  2  0  0  0  0
  6  7  1  0  0  0  0
  6  5  1  0  0  0  0
  7  3  2  0  0  0  0
  8  7  1  0  0  0  0
  8  1  1  0  0  0  0
  9  8  1  0  0  0  0
 10  5  1  0  0  0  0
 10 15  1  0  0  0  0
 11 10  2  0  0  0  0
 12 11  1  0  0  0  0
 12 13  2  0  0  0  0
 13 14  1  0  0  0  0
 14 15  2  0  0  0  0
 16  6  1  0  0  0  0
 17 16  1  0  0  0  0
 18 17  1  0  0  0  0
 19 20  1  0  0  0  0
 19 18  1  0  0  0  0
 20 21  1  0  0  0  0
 21 16  1  0  0  0  0
 23 22  1  0  0  0  0
 24 23  2  0  0  0  0
M  END
>  <minimizedAffinity>
-4.39733076

$$$$

 OpenBabel09122220033D

 24 27  0  0  0  0  0  0  0  0999 V2000
   10.3820    3.8500    0.2360 C   0  0  0  0  0  0  0  0  0  0  0  0
   11.4550    3.5970   -0.6110 C   0  0  0  0  0  3  0  0  0  0  0  0
   11.4590    2.2140   -0.7730 C   0  0  0  0  0  0  0  0  0  0  0  0
   12.1960    1.2990   -1.4310 N   0  0  0  0  0  0  0  0  0  0  0  0
   11.6190    0.1350   -1.1310 C   0  0  0  0  0  0  0  0  0  0  0  0
   10.5310    0.3200   -0.2750 N   0  0  0  0  0  0  0  0  0  0  0  0
   10.4520    1.6630   -0.0700 C   0  0  0  0  0  0  0  0  0  0  0  0
    9.7720    2.6520    0.5580 N   0  0  0  0  0  0  0  0  0  0  0  0
    8.9650    2.6070    1.1700 H   0  0  0  0  0  0  0  0  0  0  0  0
   12.1080   -1.1470   -1.6300 C   0  0  0  0  0  0  0  0  0  0  0  0
   12.4170   -1.3200   -2.9830 C   0  0  0  0  0  3  0  0  0  0  0  0
   12.8970   -2.5470   -3.4460 C   0  0  0  0  0  3  0  0  0  0  0  0
   13.0890   -3.6020   -2.5550 C   0  0  0  0  0  3  0  0  0  0  0  0
   12.8150   -3.4280   -1.1990 C   0  0  0  0  0  3  0  0  0  0  0  0
   12.3340   -2.2020   -0.7360 C   0  0  0  0  0  3  0  0  0  0  0  0
    9.6300   -0.6420    0.3390 C   0  0  0  0  0  3  0  0  0  0  0  0
   10.0190   -2.0990    0.0500 C   0  0  0  0  0  2  0  0  0  0  0  0
    8.9710   -3.0690    0.5970 C   0  0  0  0  0  2  0  0  0  0  0  0
    8.7020   -2.8340    2.0810 C   0  0  0  0  0  2  0  0  0  0  0  0
    8.3180   -1.3840    2.3650 C   0  0  0  0  0  2  0  0  0  0  0  0
    9.3700   -0.4110    1.8350 C   0  0  0  0  0  2  0  0  0  0  0  0
    9.0520    5.7640    0.0590 O   0  0  0  0  0  0  0  0  0  0  0  0
    9.8960    5.1320    0.7560 C   0  0  0  0  0  0  0  0  0  0  0  0
   10.3940    5.4700    1.8750 O   0  0  0  0  0  1  0  0  0  0  0  0
  1  8  1  0  0  0  0
  1 23  1  0  0  0  0
  2  1  2  0  0  0  0
  3  2  1  0  0  0  0
  3  7  2  0  0  0  0
  4  5  2  0  0  0  0
  4  3  1  0  0  0  0
  5  6  1  0  0  0  0
  6  7  1  0  0  0  0
  6 16  1  0  0  0  0
  7  8  1  0  0  0  0
  8  9  1  0  0  0  0
 10  5  1  0  0  0  0
 10 15  1  0  0  0  0
 11 10  2  0  0  0  0
 12 11  1  0  0  0  0
 12 13  2  0  0  0  0
 13 14  1  0  0  0  0
 14 15  2  0  0  0  0
 16 21  1  0  0  0  0
 17 16  1  0  0  0  0
 17 18  1  0  0  0  0
 18 19  1  0  0  0  0
 19 20  1  0  0  0  0
 21 20  1  0  0  0  0
 22 23  2  0  0  0  0
 23 24  1  0  0  0  0
M  END
>  <minimizedAffinity>
-3.85355282

$$$$

 OpenBabel09122220033D

 24 27  0  0  0  0  0  0  0  0999 V2000
   11.9280   -0.0430   -1.9030 C   0  0  0  0  0  0  0  0  0  0  0  0
   12.3380    1.0960   -2.5850 C   0  0  0  0  0  3  0  0  0  0  0  0
   12.0920    2.1440   -1.7020 C   0  0  0  0  0  0  0  0  0  0  0  0
   12.2330    3.4840   -1.6950 N   0  0  0  0  0  0  0  0  0  0  0  0
   11.7860    3.8560   -0.4950 C   0  0  0  0  0  0  0  0  0  0  0  0
   11.3530    2.7520    0.2420 N   0  0  0  0  0  0  0  0  0  0  0  0
   11.5680    1.6710   -0.5560 C   0  0  0  0  0  0  0  0  0  0  0  0
   11.4590    0.3240   -0.6550 N   0  0  0  0  0  0  0  0  0  0  0  0
   11.1070   -0.3560    0.0090 H   0  0  0  0  0  0  0  0  0  0  0  0
   11.7450    5.2480   -0.0580 C   0  0  0  0  0  0  0  0  0  0  0  0
   12.9230    5.9450    0.2290 C   0  0  0  0  0  3  0  0  0  0  0  0
   12.8720    7.2810    0.6340 C   0  0  0  0  0  3  0  0  0  0  0  0
   11.6430    7.9320    0.7350 C   0  0  0  0  0  3  0  0  0  0  0  0
   10.4670    7.2540    0.4190 C   0  0  0  0  0  3  0  0  0  0  0  0
   10.5180    5.9190    0.0150 C   0  0  0  0  0  3  0  0  0  0  0  0
   10.7640    2.6670    1.5690 C   0  0  0  0  0  3  0  0  0  0  0  0
   10.0100    1.3500    1.8090 C   0  0  0  0  0  2  0  0  0  0  0  0
    9.2950    1.3610    3.1600 C   0  0  0  0  0  2  0  0  0  0  0  0
   10.2510    1.6880    4.3040 C   0  0  0  0  0  2  0  0  0  0  0  0
   11.0000    2.9960    4.0610 C   0  0  0  0  0  2  0  0  0  0  0  0
   11.7310    2.9830    2.7190 C   0  0  0  0  0  2  0  0  0  0  0  0
   12.9220   -1.8180   -3.0550 O   0  0  0  0  0  0  0  0  0  0  0  0
   11.9480   -1.4420   -2.3410 C   0  0  0  0  0  0  0  0  0  0  0  0
   10.9580   -2.1330   -1.9470 O   0  0  0  0  0  1  0  0  0  0  0  0
  1  8  1  0  0  0  0
  2  1  2  0  0  0  0
  2  3  1  0  0  0  0
  3  4  1  0  0  0  0
  3  7  2  0  0  0  0
  4  5  2  0  0  0  0
  5 10  1  0  0  0  0
  5  6  1  0  0  0  0
  6 16  1  0  0  0  0
  7  6  1  0  0  0  0
  8  7  1  0  0  0  0
  8  9  1  0  0  0  0
 10 15  2  0  0  0  0
 10 11  1  0  0  0  0
 11 12  2  0  0  0  0
 12 13  1  0  0  0  0
 14 13  2  0  0  0  0
 15 14  1  0  0  0  0
 16 17  1  0  0  0  0
 16 21  1  0  0  0  0
 17 18  1  0  0  0  0
 18 19  1  0  0  0  0
 20 19  1  0  0  0  0
 21 20  1  0  0  0  0
 22 23  2  0  0  0  0
 23 24  1  0  0  0  0
 23  1  1  0  0  0  0
M  END
>  <minimizedAffinity>
-3.83601427

$$$$
