REMARK  Name = 
REMARK  7 active torsions:
REMARK  status: ('A' for Active; 'I' for Inactive)
REMARK    1  A    between atoms: C_2  and  C_4
REMARK    2  A    between atoms: C_4  and  C_5
REMARK    3  A    between atoms: C_4  and  N_12
REMARK    4  A    between atoms: C_5  and  C_6
REMARK    5  A    between atoms: N_12  and  C_13
REMARK    6  A    between atoms: C_13  and  C_14
REMARK    7  A    between atoms: C_20  and  C_22
REMARK                            x       y       z     vdW  Elec       q    Type
REMARK                         _______ _______ _______ _____ _____    ______ ____
ROOT
ATOM      1  N   UNL     1       2.369   2.432  -0.498  0.00  0.00    -0.284 N 
ATOM      2  C   UNL     1       1.056   2.822  -0.755  0.00  0.00    +0.249 C 
ATOM      3  O   UNL     1       0.155   2.074  -1.128  0.00  0.00    -0.270 OA
ENDROOT
BRANCH   2   4
ATOM      4  C   UNL     1       0.645   4.197  -0.430  0.00  0.00    +0.055 A 
ATOM      5  C   UNL     1       0.231   4.456   0.886  0.00  0.00    +0.016 A 
ATOM      6  C   UNL     1      -0.210   5.732   1.238  0.00  0.00    +0.021 A 
ATOM      7  C   UNL     1      -0.258   6.735   0.270  0.00  0.00    +0.042 A 
ATOM      8 CL   UNL     1      -0.796   8.311   0.706  0.00  0.00    -0.083 Cl
ATOM      9  C   UNL     1       0.122   6.473  -1.046  0.00  0.00    +0.040 A 
ATOM     10  C   UNL     1       0.565   5.196  -1.404  0.00  0.00    +0.054 A 
ATOM     11 CL   UNL     1       1.004   4.941  -3.050  0.00  0.00    -0.083 Cl
ENDBRANCH   2   4
BRANCH   1  12
ATOM     12  C   UNL     1       2.779   1.054  -0.932  0.00  0.00    +0.127 C 
BRANCH  12  14
ATOM     13  O   UNL     1       2.722   1.734  -3.243  0.00  0.00    -0.548 OA
ATOM     14  C   UNL     1       2.680   0.736  -2.465  0.00  0.00    +0.062 C 
ATOM     15  O   UNL     1       2.691  -0.496  -2.770  0.00  0.00    -0.548 OA
ENDBRANCH  12  14
BRANCH  12  16
ATOM     16  C   UNL     1       2.099  -0.024  -0.059  0.00  0.00    +0.063 C 
BRANCH  16  17
ATOM     17  C   UNL     1       3.083  -0.732   0.852  0.00  0.00    -0.045 A 
ATOM     18  C   UNL     1       3.206  -0.377   2.202  0.00  0.00    +0.004 A 
ATOM     19  C   UNL     1       4.131  -1.028   3.020  0.00  0.00    +0.000 A 
ATOM     20  C   UNL     1       4.943  -2.034   2.496  0.00  0.00    +0.000 A 
ATOM     21  C   UNL     1       4.831  -2.389   1.152  0.00  0.00    +0.000 A 
ATOM     22  C   UNL     1       3.906  -1.741   0.334  0.00  0.00    +0.004 A 
ENDBRANCH  16  17
ENDBRANCH  12  16
ENDBRANCH   1  12
BRANCH   1  23
ATOM     23  C   UNL     1       3.364   3.224   0.219  0.00  0.00    +0.151 C 
BRANCH  23  24
ATOM     24  C   UNL     1       4.043   4.249  -0.638  0.00  0.00    +0.008 A 
ATOM     25  C   UNL     1       3.908   5.627  -0.593  0.00  0.00    +0.014 A 
ATOM     26  C   UNL     1       4.722   6.289  -1.560  0.00  0.00    +0.023 A 
ATOM     27  C   UNL     1       5.471   5.389  -2.272  0.00  0.00    +0.055 A 
ATOM     28 BR   UNL     1       6.670   5.885  -3.623  0.00  0.00    -0.043 Br
ATOM     29  S   UNL     1       5.229   3.786  -1.790  0.00  0.00    -0.085 S 
ENDBRANCH  23  24
ENDBRANCH   1  23
TORSDOF 7
