
 OpenBabel09132204463D

 29 31  0  0  1  0  0  0  0  0999 V2000
    9.9490   -1.2200    2.6860 N   0  0  0  0  0  0  0  0  0  0  0  0
    9.5040   -0.0150    2.1470 C   0  0  0  0  0  0  0  0  0  0  0  0
    8.7170    0.0940    1.2100 O   0  0  0  0  0  0  0  0  0  0  0  0
    9.8730    1.2430    2.8160 C   0  0  0  0  0  0  0  0  0  0  0  0
    9.6010    1.3520    4.1880 C   0  0  0  0  0  3  0  0  0  0  0  0
    9.8900    2.5380    4.8630 C   0  0  0  0  0  3  0  0  0  0  0  0
   10.4260    3.6170    4.1600 C   0  0  0  0  0  0  0  0  0  0  0  0
   10.7890    5.0790    4.9930 Cl  0  0  0  0  0  0  0  0  0  0  0  0
   10.6680    3.5240    2.7890 C   0  0  0  0  0  3  0  0  0  0  0  0
   10.3810    2.3370    2.1090 C   0  0  0  0  0  0  0  0  0  0  0  0
   10.6910    2.2980    0.4150 Cl  0  0  0  0  0  0  0  0  0  0  0  0
    9.6370   -2.4760    1.9240 C   0  0  2  0  0  3  0  0  0  0  0  0
   10.7990   -3.9730    0.4360 O   0  0  0  0  0  1  0  0  0  0  0  0
   10.4990   -2.7610    0.6450 C   0  0  0  0  0  0  0  0  0  0  0  0
   10.7010   -1.7620   -0.1120 O   0  0  0  0  0  0  0  0  0  0  0  0
    8.1200   -2.5940    1.6540 C   0  0  0  0  0  2  0  0  0  0  0  0
    7.7450   -3.9350    1.0530 C   0  0  0  0  0  0  0  0  0  0  0  0
    7.8780   -4.1750   -0.3210 C   0  0  0  0  0  3  0  0  0  0  0  0
    7.5090   -5.4100   -0.8590 C   0  0  0  0  0  3  0  0  0  0  0  0
    7.0020   -6.4110   -0.0310 C   0  0  0  0  0  3  0  0  0  0  0  0
    6.8620   -6.1770    1.3370 C   0  0  0  0  0  3  0  0  0  0  0  0
    7.2310   -4.9450    1.8760 C   0  0  0  0  0  3  0  0  0  0  0  0
   10.6360   -1.3750    3.9650 C   0  0  0  0  0  2  0  0  0  0  0  0
    9.7190   -1.7290    5.0970 C   0  0  0  0  0  0  0  0  0  0  0  0
    9.7270   -1.2350    6.3910 C   0  0  0  0  0  3  0  0  0  0  0  0
    8.6940   -1.7970    7.1980 C   0  0  0  0  0  3  0  0  0  0  0  0
    7.9200   -2.6650    6.4740 C   0  0  0  0  0  0  0  0  0  0  0  0
    6.4570   -3.5880    7.1910 Br  0  0  0  0  0  0  0  0  0  0  0  0
    8.3970   -2.7980    4.8560 S   0  0  0  0  0  0  0  0  0  0  0  0
  1 23  1  0  0  0  0
  2  1  1  0  0  0  0
  2  4  1  0  0  0  0
  3  2  2  0  0  0  0
  4  5  1  0  0  0  0
  5  6  2  0  0  0  0
  7  6  1  0  0  0  0
  7  8  1  0  0  0  0
  9  7  2  0  0  0  0
 10  9  1  0  0  0  0
 10  4  2  0  0  0  0
 11 10  1  0  0  0  0
 12 16  1  6  0  0  0
 12  1  1  0  0  0  0
 13 14  1  0  0  0  0
 14 12  1  0  0  0  0
 15 14  2  0  0  0  0
 17 16  1  0  0  0  0
 17 22  1  0  0  0  0
 18 17  2  0  0  0  0
 19 18  1  0  0  0  0
 19 20  2  0  0  0  0
 20 21  1  0  0  0  0
 21 22  2  0  0  0  0
 23 24  1  0  0  0  0
 24 25  2  0  0  0  0
 25 26  1  0  0  0  0
 27 28  1  0  0  0  0
 27 26  2  0  0  0  0
 29 24  1  0  0  0  0
 29 27  1  0  0  0  0
M  END
>  <minimizedAffinity>
-2.35673332

$$$$
