
 OpenBabel09132204463D

 29 31  0  0  1  0  0  0  0  0999 V2000
    5.2090   -4.6170    4.7130 N   0  0  0  0  0  0  0  0  0  0  0  0
    4.1220   -3.9350    5.2550 C   0  0  0  0  0  0  0  0  0  0  0  0
    4.1280   -2.7580    5.6080 O   0  0  0  0  0  0  0  0  0  0  0  0
    2.8100   -4.6010    5.2920 C   0  0  0  0  0  0  0  0  0  0  0  0
    1.7860   -4.0590    4.5000 C   0  0  0  0  0  3  0  0  0  0  0  0
    0.5110   -4.6250    4.5300 C   0  0  0  0  0  3  0  0  0  0  0  0
    0.2590   -5.7120    5.3670 C   0  0  0  0  0  0  0  0  0  0  0  0
   -1.3120   -6.4140    5.3990 Cl  0  0  0  0  0  0  0  0  0  0  0  0
    1.2660   -6.2320    6.1800 C   0  0  0  0  0  3  0  0  0  0  0  0
    2.5460   -5.6690    6.1530 C   0  0  0  0  0  0  0  0  0  0  0  0
    3.7360   -6.3540    7.1940 Cl  0  0  0  0  0  0  0  0  0  0  0  0
    6.5510   -3.9450    4.7810 C   0  0  2  0  0  3  0  0  0  0  0  0
    7.2840   -2.1590    6.2230 O   0  0  0  0  0  0  0  0  0  0  0  0
    6.9950   -3.3920    6.1800 C   0  0  0  0  0  0  0  0  0  0  0  0
    6.9020   -4.2090    7.1460 O   0  0  0  0  0  1  0  0  0  0  0  0
    6.7000   -2.8980    3.6550 C   0  0  0  0  0  2  0  0  0  0  0  0
    8.0790   -2.9230    3.0240 C   0  0  0  0  0  0  0  0  0  0  0  0
    9.2370   -2.8620    3.8110 C   0  0  0  0  0  3  0  0  0  0  0  0
   10.4980   -2.8680    3.2100 C   0  0  0  0  0  3  0  0  0  0  0  0
   10.6110   -2.9290    1.8210 C   0  0  0  0  0  3  0  0  0  0  0  0
    9.4630   -2.9840    1.0310 C   0  0  0  0  0  3  0  0  0  0  0  0
    8.2030   -2.9800    1.6300 C   0  0  0  0  0  3  0  0  0  0  0  0
    5.1460   -5.9010    4.0220 C   0  0  0  0  0  2  0  0  0  0  0  0
    5.2730   -5.7860    2.5330 C   0  0  0  0  0  0  0  0  0  0  0  0
    4.2930   -5.4480    1.6150 C   0  0  0  0  0  3  0  0  0  0  0  0
    4.7810   -5.4280    0.2740 C   0  0  0  0  0  3  0  0  0  0  0  0
    6.1210   -5.7140    0.2340 C   0  0  0  0  0  0  0  0  0  0  0  0
    7.1170   -5.7710   -1.3510 Br  0  0  0  0  0  0  0  0  0  0  0  0
    6.7940   -5.9820    1.7620 S   0  0  0  0  0  0  0  0  0  0  0  0
  1 12  1  0  0  0  0
  1  2  1  0  0  0  0
  2  4  1  0  0  0  0
  2  3  2  0  0  0  0
  4 10  1  0  0  0  0
  5  6  1  0  0  0  0
  5  4  2  0  0  0  0
  6  7  2  0  0  0  0
  7  8  1  0  0  0  0
  7  9  1  0  0  0  0
 10  9  2  0  0  0  0
 10 11  1  0  0  0  0
 12 16  1  6  0  0  0
 12 14  1  0  0  0  0
 14 13  2  0  0  0  0
 14 15  1  0  0  0  0
 17 16  1  0  0  0  0
 17 18  1  0  0  0  0
 19 18  2  0  0  0  0
 20 19  1  0  0  0  0
 21 22  1  0  0  0  0
 21 20  2  0  0  0  0
 22 17  2  0  0  0  0
 23  1  1  0  0  0  0
 24 23  1  0  0  0  0
 25 24  2  0  0  0  0
 26 25  1  0  0  0  0
 27 26  2  0  0  0  0
 27 29  1  0  0  0  0
 28 27  1  0  0  0  0
 29 24  1  0  0  0  0
M  END
>  <minimizedAffinity>
-2.12543464

$$$$
