
 OpenBabel09132204463D

 29 31  0  0  1  0  0  0  0  0999 V2000
    9.9150    5.7090    1.0160 N   0  0  0  0  0  0  0  0  0  0  0  0
   10.4480    4.5940    1.6600 C   0  0  0  0  0  0  0  0  0  0  0  0
   10.8040    4.5580    2.8360 O   0  0  0  0  0  0  0  0  0  0  0  0
   10.4710    3.3050    0.9510 C   0  0  0  0  0  0  0  0  0  0  0  0
   10.7970    3.3220   -0.4140 C   0  0  0  0  0  3  0  0  0  0  0  0
   10.7910    2.1330   -1.1450 C   0  0  0  0  0  3  0  0  0  0  0  0
   10.4360    0.9400   -0.5160 C   0  0  0  0  0  0  0  0  0  0  0  0
   10.4350   -0.5270   -1.4160 Cl  0  0  0  0  0  0  0  0  0  0  0  0
   10.0810    0.9240    0.8330 C   0  0  0  0  0  3  0  0  0  0  0  0
   10.0850    2.1120    1.5700 C   0  0  0  0  0  0  0  0  0  0  0  0
    9.6210    2.0200    3.2260 Cl  0  0  0  0  0  0  0  0  0  0  0  0
    9.9980    7.0270    1.7320 C   0  0  2  0  0  3  0  0  0  0  0  0
   10.6740    8.0530    3.8040 O   0  0  0  0  0  0  0  0  0  0  0  0
   10.2640    6.9780    3.2770 C   0  0  0  0  0  0  0  0  0  0  0  0
    9.9250    5.9000    3.8570 O   0  0  0  0  0  1  0  0  0  0  0  0
    8.7980    7.9290    1.3670 C   0  0  0  0  0  2  0  0  0  0  0  0
    9.2110    9.3680    1.1270 C   0  0  0  0  0  0  0  0  0  0  0  0
   10.4540    9.8470    1.5610 C   0  0  0  0  0  3  0  0  0  0  0  0
   10.8090   11.1800    1.3470 C   0  0  0  0  0  3  0  0  0  0  0  0
    9.9240   12.0450    0.7030 C   0  0  0  0  0  3  0  0  0  0  0  0
    8.6830   11.5770    0.2730 C   0  0  0  0  0  3  0  0  0  0  0  0
    8.3280   10.2450    0.4840 C   0  0  0  0  0  3  0  0  0  0  0  0
    9.2210    5.6950   -0.2680 C   0  0  0  0  0  2  0  0  0  0  0  0
    9.5860    6.8440   -1.1580 C   0  0  0  0  0  0  0  0  0  0  0  0
   10.8090    7.4870   -1.2670 C   0  0  0  0  0  3  0  0  0  0  0  0
   10.7910    8.5390   -2.2300 C   0  0  0  0  0  3  0  0  0  0  0  0
    9.5670    8.6260   -2.8410 C   0  0  0  0  0  0  0  0  0  0  0  0
    9.1660    9.8810   -4.1720 Br  0  0  0  0  0  0  0  0  0  0  0  0
    8.4630    7.4670   -2.2970 S   0  0  0  0  0  0  0  0  0  0  0  0
  1  2  1  0  0  0  0
  1 12  1  0  0  0  0
  2  3  2  0  0  0  0
  4 10  1  0  0  0  0
  4  2  1  0  0  0  0
  5  4  2  0  0  0  0
  6  7  2  0  0  0  0
  6  5  1  0  0  0  0
  7  9  1  0  0  0  0
  8  7  1  0  0  0  0
  9 10  2  0  0  0  0
 10 11  1  0  0  0  0
 12 16  1  1  0  0  0
 12 14  1  0  0  0  0
 14 13  2  0  0  0  0
 14 15  1  0  0  0  0
 17 16  1  0  0  0  0
 17 18  1  0  0  0  0
 19 18  2  0  0  0  0
 20 19  1  0  0  0  0
 21 22  1  0  0  0  0
 21 20  2  0  0  0  0
 22 17  2  0  0  0  0
 23  1  1  0  0  0  0
 24 23  1  0  0  0  0
 25 24  2  0  0  0  0
 26 25  1  0  0  0  0
 27 29  1  0  0  0  0
 27 26  2  0  0  0  0
 28 27  1  0  0  0  0
 29 24  1  0  0  0  0
M  END
>  <minimizedAffinity>
-1.48188281

$$$$
