
 OpenBabel09132200373D

 29 31  0  0  1  0  0  0  0  0999 V2000
    9.9490   -1.2200    2.6860 N   0  0  0  0  0  0  0  0  0  0  0  0
    9.5040   -0.0150    2.1470 C   0  0  0  0  0  0  0  0  0  0  0  0
    8.7170    0.0940    1.2100 O   0  0  0  0  0  0  0  0  0  0  0  0
    9.8730    1.2430    2.8160 C   0  0  0  0  0  0  0  0  0  0  0  0
    9.6010    1.3520    4.1880 C   0  0  0  0  0  3  0  0  0  0  0  0
    9.8900    2.5380    4.8630 C   0  0  0  0  0  3  0  0  0  0  0  0
   10.4260    3.6170    4.1600 C   0  0  0  0  0  0  0  0  0  0  0  0
   10.7890    5.0790    4.9930 Cl  0  0  0  0  0  0  0  0  0  0  0  0
   10.6680    3.5240    2.7890 C   0  0  0  0  0  3  0  0  0  0  0  0
   10.3810    2.3370    2.1090 C   0  0  0  0  0  0  0  0  0  0  0  0
   10.6910    2.2980    0.4150 Cl  0  0  0  0  0  0  0  0  0  0  0  0
    9.6370   -2.4760    1.9240 C   0  0  2  0  0  3  0  0  0  0  0  0
   10.7990   -3.9730    0.4360 O   0  0  0  0  0  1  0  0  0  0  0  0
   10.4990   -2.7610    0.6450 C   0  0  0  0  0  0  0  0  0  0  0  0
   10.7010   -1.7620   -0.1120 O   0  0  0  0  0  0  0  0  0  0  0  0
    8.1200   -2.5940    1.6540 C   0  0  0  0  0  2  0  0  0  0  0  0
    7.7450   -3.9350    1.0530 C   0  0  0  0  0  0  0  0  0  0  0  0
    7.8780   -4.1750   -0.3210 C   0  0  0  0  0  3  0  0  0  0  0  0
    7.5090   -5.4100   -0.8590 C   0  0  0  0  0  3  0  0  0  0  0  0
    7.0020   -6.4110   -0.0310 C   0  0  0  0  0  3  0  0  0  0  0  0
    6.8620   -6.1770    1.3370 C   0  0  0  0  0  3  0  0  0  0  0  0
    7.2310   -4.9450    1.8760 C   0  0  0  0  0  3  0  0  0  0  0  0
   10.6360   -1.3750    3.9650 C   0  0  0  0  0  2  0  0  0  0  0  0
    9.7190   -1.7290    5.0970 C   0  0  0  0  0  0  0  0  0  0  0  0
    9.7270   -1.2350    6.3910 C   0  0  0  0  0  3  0  0  0  0  0  0
    8.6940   -1.7970    7.1980 C   0  0  0  0  0  3  0  0  0  0  0  0
    7.9200   -2.6650    6.4740 C   0  0  0  0  0  0  0  0  0  0  0  0
    6.4570   -3.5880    7.1910 Br  0  0  0  0  0  0  0  0  0  0  0  0
    8.3970   -2.7980    4.8560 S   0  0  0  0  0  0  0  0  0  0  0  0
  1 23  1  0  0  0  0
  2  1  1  0  0  0  0
  2  4  1  0  0  0  0
  3  2  2  0  0  0  0
  4  5  1  0  0  0  0
  5  6  2  0  0  0  0
  7  6  1  0  0  0  0
  7  8  1  0  0  0  0
  9  7  2  0  0  0  0
 10  9  1  0  0  0  0
 10  4  2  0  0  0  0
 11 10  1  0  0  0  0
 12 16  1  6  0  0  0
 12  1  1  0  0  0  0
 13 14  1  0  0  0  0
 14 12  1  0  0  0  0
 15 14  2  0  0  0  0
 17 16  1  0  0  0  0
 17 22  1  0  0  0  0
 18 17  2  0  0  0  0
 19 18  1  0  0  0  0
 19 20  2  0  0  0  0
 20 21  1  0  0  0  0
 21 22  2  0  0  0  0
 23 24  1  0  0  0  0
 24 25  2  0  0  0  0
 25 26  1  0  0  0  0
 27 28  1  0  0  0  0
 27 26  2  0  0  0  0
 29 24  1  0  0  0  0
 29 27  1  0  0  0  0
M  END
>  <minimizedAffinity>
-2.35673332

$$$$

 OpenBabel09132200373D

 29 31  0  0  1  0  0  0  0  0999 V2000
    5.2090   -4.6170    4.7130 N   0  0  0  0  0  0  0  0  0  0  0  0
    4.1220   -3.9350    5.2550 C   0  0  0  0  0  0  0  0  0  0  0  0
    4.1280   -2.7580    5.6080 O   0  0  0  0  0  0  0  0  0  0  0  0
    2.8100   -4.6010    5.2920 C   0  0  0  0  0  0  0  0  0  0  0  0
    1.7860   -4.0590    4.5000 C   0  0  0  0  0  3  0  0  0  0  0  0
    0.5110   -4.6250    4.5300 C   0  0  0  0  0  3  0  0  0  0  0  0
    0.2590   -5.7120    5.3670 C   0  0  0  0  0  0  0  0  0  0  0  0
   -1.3120   -6.4140    5.3990 Cl  0  0  0  0  0  0  0  0  0  0  0  0
    1.2660   -6.2320    6.1800 C   0  0  0  0  0  3  0  0  0  0  0  0
    2.5460   -5.6690    6.1530 C   0  0  0  0  0  0  0  0  0  0  0  0
    3.7360   -6.3540    7.1940 Cl  0  0  0  0  0  0  0  0  0  0  0  0
    6.5510   -3.9450    4.7810 C   0  0  2  0  0  3  0  0  0  0  0  0
    7.2840   -2.1590    6.2230 O   0  0  0  0  0  0  0  0  0  0  0  0
    6.9950   -3.3920    6.1800 C   0  0  0  0  0  0  0  0  0  0  0  0
    6.9020   -4.2090    7.1460 O   0  0  0  0  0  1  0  0  0  0  0  0
    6.7000   -2.8980    3.6550 C   0  0  0  0  0  2  0  0  0  0  0  0
    8.0790   -2.9230    3.0240 C   0  0  0  0  0  0  0  0  0  0  0  0
    9.2370   -2.8620    3.8110 C   0  0  0  0  0  3  0  0  0  0  0  0
   10.4980   -2.8680    3.2100 C   0  0  0  0  0  3  0  0  0  0  0  0
   10.6110   -2.9290    1.8210 C   0  0  0  0  0  3  0  0  0  0  0  0
    9.4630   -2.9840    1.0310 C   0  0  0  0  0  3  0  0  0  0  0  0
    8.2030   -2.9800    1.6300 C   0  0  0  0  0  3  0  0  0  0  0  0
    5.1460   -5.9010    4.0220 C   0  0  0  0  0  2  0  0  0  0  0  0
    5.2730   -5.7860    2.5330 C   0  0  0  0  0  0  0  0  0  0  0  0
    4.2930   -5.4480    1.6150 C   0  0  0  0  0  3  0  0  0  0  0  0
    4.7810   -5.4280    0.2740 C   0  0  0  0  0  3  0  0  0  0  0  0
    6.1210   -5.7140    0.2340 C   0  0  0  0  0  0  0  0  0  0  0  0
    7.1170   -5.7710   -1.3510 Br  0  0  0  0  0  0  0  0  0  0  0  0
    6.7940   -5.9820    1.7620 S   0  0  0  0  0  0  0  0  0  0  0  0
  1 12  1  0  0  0  0
  1  2  1  0  0  0  0
  2  4  1  0  0  0  0
  2  3  2  0  0  0  0
  4 10  1  0  0  0  0
  5  6  1  0  0  0  0
  5  4  2  0  0  0  0
  6  7  2  0  0  0  0
  7  8  1  0  0  0  0
  7  9  1  0  0  0  0
 10  9  2  0  0  0  0
 10 11  1  0  0  0  0
 12 16  1  6  0  0  0
 12 14  1  0  0  0  0
 14 13  2  0  0  0  0
 14 15  1  0  0  0  0
 17 16  1  0  0  0  0
 17 18  1  0  0  0  0
 19 18  2  0  0  0  0
 20 19  1  0  0  0  0
 21 22  1  0  0  0  0
 21 20  2  0  0  0  0
 22 17  2  0  0  0  0
 23  1  1  0  0  0  0
 24 23  1  0  0  0  0
 25 24  2  0  0  0  0
 26 25  1  0  0  0  0
 27 26  2  0  0  0  0
 27 29  1  0  0  0  0
 28 27  1  0  0  0  0
 29 24  1  0  0  0  0
M  END
>  <minimizedAffinity>
-2.12543464

$$$$

 OpenBabel09132200373D

 29 31  0  0  1  0  0  0  0  0999 V2000
    8.3730   -2.7810    1.9060 N   0  0  0  0  0  0  0  0  0  0  0  0
    7.7560   -3.9800    2.2560 C   0  0  0  0  0  0  0  0  0  0  0  0
    8.3090   -5.0770    2.2900 O   0  0  0  0  0  0  0  0  0  0  0  0
    6.3770   -3.9480    2.7670 C   0  0  0  0  0  0  0  0  0  0  0  0
    6.1590   -3.3250    4.0060 C   0  0  0  0  0  3  0  0  0  0  0  0
    4.8770   -3.3040    4.5580 C   0  0  0  0  0  3  0  0  0  0  0  0
    3.8270   -3.9260    3.8830 C   0  0  0  0  0  0  0  0  0  0  0  0
    2.2450   -3.8940    4.5610 Cl  0  0  0  0  0  0  0  0  0  0  0  0
    4.0460   -4.5740    2.6680 C   0  0  0  0  0  3  0  0  0  0  0  0
    5.3280   -4.5970    2.1100 C   0  0  0  0  0  0  0  0  0  0  0  0
    5.5270   -5.4290    0.6150 Cl  0  0  0  0  0  0  0  0  0  0  0  0
    9.7440   -2.8600    1.2960 C   0  0  2  0  0  3  0  0  0  0  0  0
   10.8120   -4.6500    0.0870 O   0  0  0  0  0  1  0  0  0  0  0  0
    9.9030   -3.7700    0.0290 C   0  0  0  0  0  0  0  0  0  0  0  0
    9.0260   -3.6090   -0.8740 O   0  0  0  0  0  0  0  0  0  0  0  0
   10.8100   -3.1550    2.3750 C   0  0  0  0  0  2  0  0  0  0  0  0
   10.4220   -2.6050    3.7340 C   0  0  0  0  0  0  0  0  0  0  0  0
    9.7760   -3.4090    4.6830 C   0  0  0  0  0  3  0  0  0  0  0  0
    9.4100   -2.8790    5.9220 C   0  0  0  0  0  3  0  0  0  0  0  0
    9.6820   -1.5430    6.2200 C   0  0  0  0  0  3  0  0  0  0  0  0
   10.3190   -0.7360    5.2780 C   0  0  0  0  0  3  0  0  0  0  0  0
   10.6860   -1.2640    4.0410 C   0  0  0  0  0  3  0  0  0  0  0  0
    7.8290   -1.4460    2.1420 C   0  0  0  0  0  2  0  0  0  0  0  0
    8.6830   -0.3460    1.5880 C   0  0  0  0  0  0  0  0  0  0  0  0
    9.3550   -0.3110    0.3770 C   0  0  0  0  0  3  0  0  0  0  0  0
   10.0650    0.9100    0.1800 C   0  0  0  0  0  3  0  0  0  0  0  0
    9.8710    1.7680    1.2310 C   0  0  0  0  0  0  0  0  0  0  0  0
   10.6350    3.4760    1.3230 Br  0  0  0  0  0  0  0  0  0  0  0  0
    8.8480    1.1450    2.4240 S   0  0  0  0  0  0  0  0  0  0  0  0
  1 23  1  0  0  0  0
  1  2  1  0  0  0  0
  2  3  2  0  0  0  0
  2  4  1  0  0  0  0
  4  5  1  0  0  0  0
  5  6  2  0  0  0  0
  7  6  1  0  0  0  0
  7  8  1  0  0  0  0
  9  7  2  0  0  0  0
 10  9  1  0  0  0  0
 10  4  2  0  0  0  0
 11 10  1  0  0  0  0
 12  1  1  0  0  0  0
 12 16  1  1  0  0  0
 14 13  1  0  0  0  0
 14 12  1  0  0  0  0
 15 14  2  0  0  0  0
 16 17  1  0  0  0  0
 17 22  2  0  0  0  0
 17 18  1  0  0  0  0
 18 19  2  0  0  0  0
 19 20  1  0  0  0  0
 21 20  2  0  0  0  0
 22 21  1  0  0  0  0
 24 23  1  0  0  0  0
 24 29  1  0  0  0  0
 25 24  2  0  0  0  0
 26 25  1  0  0  0  0
 26 27  2  0  0  0  0
 27 28  1  0  0  0  0
 27 29  1  0  0  0  0
M  END
>  <minimizedAffinity>
-2.00400066

$$$$

 OpenBabel09132200373D

 29 31  0  0  1  0  0  0  0  0999 V2000
    9.9150    5.7090    1.0160 N   0  0  0  0  0  0  0  0  0  0  0  0
   10.4480    4.5940    1.6600 C   0  0  0  0  0  0  0  0  0  0  0  0
   10.8040    4.5580    2.8360 O   0  0  0  0  0  0  0  0  0  0  0  0
   10.4710    3.3050    0.9510 C   0  0  0  0  0  0  0  0  0  0  0  0
   10.7970    3.3220   -0.4140 C   0  0  0  0  0  3  0  0  0  0  0  0
   10.7910    2.1330   -1.1450 C   0  0  0  0  0  3  0  0  0  0  0  0
   10.4360    0.9400   -0.5160 C   0  0  0  0  0  0  0  0  0  0  0  0
   10.4350   -0.5270   -1.4160 Cl  0  0  0  0  0  0  0  0  0  0  0  0
   10.0810    0.9240    0.8330 C   0  0  0  0  0  3  0  0  0  0  0  0
   10.0850    2.1120    1.5700 C   0  0  0  0  0  0  0  0  0  0  0  0
    9.6210    2.0200    3.2260 Cl  0  0  0  0  0  0  0  0  0  0  0  0
    9.9980    7.0270    1.7320 C   0  0  2  0  0  3  0  0  0  0  0  0
   10.6740    8.0530    3.8040 O   0  0  0  0  0  0  0  0  0  0  0  0
   10.2640    6.9780    3.2770 C   0  0  0  0  0  0  0  0  0  0  0  0
    9.9250    5.9000    3.8570 O   0  0  0  0  0  1  0  0  0  0  0  0
    8.7980    7.9290    1.3670 C   0  0  0  0  0  2  0  0  0  0  0  0
    9.2110    9.3680    1.1270 C   0  0  0  0  0  0  0  0  0  0  0  0
   10.4540    9.8470    1.5610 C   0  0  0  0  0  3  0  0  0  0  0  0
   10.8090   11.1800    1.3470 C   0  0  0  0  0  3  0  0  0  0  0  0
    9.9240   12.0450    0.7030 C   0  0  0  0  0  3  0  0  0  0  0  0
    8.6830   11.5770    0.2730 C   0  0  0  0  0  3  0  0  0  0  0  0
    8.3280   10.2450    0.4840 C   0  0  0  0  0  3  0  0  0  0  0  0
    9.2210    5.6950   -0.2680 C   0  0  0  0  0  2  0  0  0  0  0  0
    9.5860    6.8440   -1.1580 C   0  0  0  0  0  0  0  0  0  0  0  0
   10.8090    7.4870   -1.2670 C   0  0  0  0  0  3  0  0  0  0  0  0
   10.7910    8.5390   -2.2300 C   0  0  0  0  0  3  0  0  0  0  0  0
    9.5670    8.6260   -2.8410 C   0  0  0  0  0  0  0  0  0  0  0  0
    9.1660    9.8810   -4.1720 Br  0  0  0  0  0  0  0  0  0  0  0  0
    8.4630    7.4670   -2.2970 S   0  0  0  0  0  0  0  0  0  0  0  0
  1  2  1  0  0  0  0
  1 12  1  0  0  0  0
  2  3  2  0  0  0  0
  4 10  1  0  0  0  0
  4  2  1  0  0  0  0
  5  4  2  0  0  0  0
  6  7  2  0  0  0  0
  6  5  1  0  0  0  0
  7  9  1  0  0  0  0
  8  7  1  0  0  0  0
  9 10  2  0  0  0  0
 10 11  1  0  0  0  0
 12 16  1  1  0  0  0
 12 14  1  0  0  0  0
 14 13  2  0  0  0  0
 14 15  1  0  0  0  0
 17 16  1  0  0  0  0
 17 18  1  0  0  0  0
 19 18  2  0  0  0  0
 20 19  1  0  0  0  0
 21 22  1  0  0  0  0
 21 20  2  0  0  0  0
 22 17  2  0  0  0  0
 23  1  1  0  0  0  0
 24 23  1  0  0  0  0
 25 24  2  0  0  0  0
 26 25  1  0  0  0  0
 27 29  1  0  0  0  0
 27 26  2  0  0  0  0
 28 27  1  0  0  0  0
 29 24  1  0  0  0  0
M  END
>  <minimizedAffinity>
-1.48188281

$$$$

 OpenBabel09132200373D

 29 31  0  0  1  0  0  0  0  0999 V2000
    7.5180   -3.9210    3.2540 N   0  0  0  0  0  0  0  0  0  0  0  0
    7.2070   -3.4660    4.5340 C   0  0  0  0  0  0  0  0  0  0  0  0
    6.2690   -3.8670    5.2200 O   0  0  0  0  0  0  0  0  0  0  0  0
    8.1320   -2.5380    5.2050 C   0  0  0  0  0  0  0  0  0  0  0  0
    7.5710   -1.4960    5.9590 C   0  0  0  0  0  3  0  0  0  0  0  0
    8.4010   -0.5620    6.5800 C   0  0  0  0  0  3  0  0  0  0  0  0
    9.7830   -0.6600    6.4260 C   0  0  0  0  0  0  0  0  0  0  0  0
   10.8080    0.4880    7.1980 Cl  0  0  0  0  0  0  0  0  0  0  0  0
   10.3430   -1.6750    5.6510 C   0  0  0  0  0  3  0  0  0  0  0  0
    9.5160   -2.6140    5.0260 C   0  0  0  0  0  0  0  0  0  0  0  0
   10.2750   -3.8310    4.0730 Cl  0  0  0  0  0  0  0  0  0  0  0  0
    6.5050   -4.7880    2.5630 C   0  0  2  0  0  3  0  0  0  0  0  0
    8.1060   -6.2480    1.5080 O   0  0  0  0  0  1  0  0  0  0  0  0
    7.0120   -5.6320    1.3420 C   0  0  0  0  0  0  0  0  0  0  0  0
    6.2130   -5.7070    0.3590 O   0  0  0  0  0  0  0  0  0  0  0  0
    5.2250   -3.9870    2.2380 C   0  0  0  0  0  2  0  0  0  0  0  0
    4.1110   -4.2530    3.2320 C   0  0  0  0  0  0  0  0  0  0  0  0
    3.3480   -3.2060    3.7640 C   0  0  0  0  0  3  0  0  0  0  0  0
    2.3400   -3.4700    4.6930 C   0  0  0  0  0  3  0  0  0  0  0  0
    2.0890   -4.7800    5.1000 C   0  0  0  0  0  3  0  0  0  0  0  0
    2.8470   -5.8280    4.5790 C   0  0  0  0  0  3  0  0  0  0  0  0
    3.8540   -5.5660    3.6500 C   0  0  0  0  0  3  0  0  0  0  0  0
    8.7760   -3.6830    2.5520 C   0  0  0  0  0  2  0  0  0  0  0  0
    8.8560   -2.3310    1.9110 C   0  0  0  0  0  0  0  0  0  0  0  0
    8.1570   -1.1820    2.2450 C   0  0  0  0  0  3  0  0  0  0  0  0
    8.5000   -0.0720    1.4180 C   0  0  0  0  0  3  0  0  0  0  0  0
    9.4740   -0.4120    0.5160 C   0  0  0  0  0  0  0  0  0  0  0  0
   10.1900    0.7880   -0.7320 Br  0  0  0  0  0  0  0  0  0  0  0  0
    9.9890   -2.0170    0.6590 S   0  0  0  0  0  0  0  0  0  0  0  0
  1  2  1  0  0  0  0
  2  4  1  0  0  0  0
  2  3  2  0  0  0  0
  4  5  1  0  0  0  0
  5  6  2  0  0  0  0
  7  6  1  0  0  0  0
  7  8  1  0  0  0  0
  9  7  2  0  0  0  0
 10  4  2  0  0  0  0
 10  9  1  0  0  0  0
 11 10  1  0  0  0  0
 12 16  1  6  0  0  0
 12  1  1  0  0  0  0
 14 13  1  0  0  0  0
 14 12  1  0  0  0  0
 15 14  2  0  0  0  0
 16 17  1  0  0  0  0
 17 22  2  0  0  0  0
 17 18  1  0  0  0  0
 18 19  2  0  0  0  0
 19 20  1  0  0  0  0
 21 20  2  0  0  0  0
 22 21  1  0  0  0  0
 23  1  1  0  0  0  0
 24 25  2  0  0  0  0
 24 23  1  0  0  0  0
 26 25  1  0  0  0  0
 27 29  1  0  0  0  0
 27 26  2  0  0  0  0
 28 27  1  0  0  0  0
 29 24  1  0  0  0  0
M  END
>  <minimizedAffinity>
-0.584636986

$$$$

 OpenBabel09132200373D

 29 31  0  0  1  0  0  0  0  0999 V2000
    9.3080    7.7550    0.5100 N   0  0  0  0  0  0  0  0  0  0  0  0
    9.8750    8.9270    0.0130 C   0  0  0  0  0  0  0  0  0  0  0  0
   10.6430    9.6610    0.6320 O   0  0  0  0  0  0  0  0  0  0  0  0
    9.6740    9.2700   -1.4040 C   0  0  0  0  0  0  0  0  0  0  0  0
   10.1450    8.3610   -2.3640 C   0  0  0  0  0  3  0  0  0  0  0  0
   10.0200    8.6560   -3.7220 C   0  0  0  0  0  3  0  0  0  0  0  0
    9.4470    9.8660   -4.1130 C   0  0  0  0  0  0  0  0  0  0  0  0
    9.2860   10.2270   -5.7890 Cl  0  0  0  0  0  0  0  0  0  0  0  0
    9.0070   10.7860   -3.1620 C   0  0  0  0  0  3  0  0  0  0  0  0
    9.1300   10.4950   -1.8000 C   0  0  0  0  0  0  0  0  0  0  0  0
    8.5790   11.6840   -0.6820 Cl  0  0  0  0  0  0  0  0  0  0  0  0
    9.4510    7.4870    1.9810 C   0  0  2  0  0  3  0  0  0  0  0  0
    7.9470    9.0400    3.0440 O   0  0  0  0  0  0  0  0  0  0  0  0
    9.1580    8.6850    2.9500 C   0  0  0  0  0  0  0  0  0  0  0  0
   10.1490    9.0930    3.6310 O   0  0  0  0  0  1  0  0  0  0  0  0
   10.7970    6.7940    2.2870 C   0  0  0  0  0  2  0  0  0  0  0  0
   10.6800    5.7770    3.4060 C   0  0  0  0  0  0  0  0  0  0  0  0
   10.5400    4.4100    3.1320 C   0  0  0  0  0  3  0  0  0  0  0  0
   10.4150    3.4920    4.1750 C   0  0  0  0  0  3  0  0  0  0  0  0
   10.4240    3.9310    5.4990 C   0  0  0  0  0  3  0  0  0  0  0  0
   10.5580    5.2910    5.7800 C   0  0  0  0  0  3  0  0  0  0  0  0
   10.6850    6.2090    4.7390 C   0  0  0  0  0  3  0  0  0  0  0  0
    8.6450    6.7290   -0.2890 C   0  0  0  0  0  2  0  0  0  0  0  0
    9.2750    5.3740   -0.1650 C   0  0  0  0  0  0  0  0  0  0  0  0
   10.5340    4.9750   -0.5820 C   0  0  0  0  0  3  0  0  0  0  0  0
   10.7990    3.6040   -0.2870 C   0  0  0  0  0  3  0  0  0  0  0  0
    9.7470    3.0310    0.3770 C   0  0  0  0  0  0  0  0  0  0  0  0
    9.7330    1.2440    0.9410 Br  0  0  0  0  0  0  0  0  0  0  0  0
    8.4710    4.1040    0.6640 S   0  0  0  0  0  0  0  0  0  0  0  0
  1 12  1  0  0  0  0
  2  1  1  0  0  0  0
  2  3  2  0  0  0  0
  4  2  1  0  0  0  0
  5  4  2  0  0  0  0
  6  5  1  0  0  0  0
  7  6  2  0  0  0  0
  7  9  1  0  0  0  0
  8  7  1  0  0  0  0
  9 10  2  0  0  0  0
 10  4  1  0  0  0  0
 10 11  1  0  0  0  0
 12 16  1  6  0  0  0
 12 14  1  0  0  0  0
 14 13  2  0  0  0  0
 14 15  1  0  0  0  0
 16 17  1  0  0  0  0
 17 22  1  0  0  0  0
 18 17  2  0  0  0  0
 18 19  1  0  0  0  0
 19 20  2  0  0  0  0
 20 21  1  0  0  0  0
 22 21  2  0  0  0  0
 23 24  1  0  0  0  0
 23  1  1  0  0  0  0
 24 29  1  0  0  0  0
 25 26  1  0  0  0  0
 25 24  2  0  0  0  0
 26 27  2  0  0  0  0
 27 29  1  0  0  0  0
 27 28  1  0  0  0  0
M  END
>  <minimizedAffinity>
-0.298054367

$$$$
