REMARK  Name = 
REMARK  10 active torsions:
REMARK  status: ('A' for Active; 'I' for Inactive)
REMARK    1  A    between atoms: C_1  and  C_2
REMARK    2  A    between atoms: C_2  and  C_3
REMARK    3  A    between atoms: C_2  and  C_4
REMARK    4  A    between atoms: C_4  and  C_5
REMARK    5  A    between atoms: C_5  and  N_6
REMARK    6  A    between atoms: C_9  and  C_10
REMARK    7  A    between atoms: C_17  and  N_18
REMARK    8  A    between atoms: N_18  and  S_19
REMARK    9  A    between atoms: S_19  and  C_20
REMARK   10  A    between atoms: C_27  and  O_28
REMARK                            x       y       z     vdW  Elec       q    Type
REMARK                         _______ _______ _______ _____ _____    ______ ____
ROOT
ATOM      1  C   UNL     1      -1.873  -2.788  -1.822  0.00  0.00    +0.308 C 
ATOM      2  N   UNL     1      -2.007  -3.156  -0.571  0.00  0.00    -0.131 N 
ATOM      3  S   UNL     1      -3.389  -3.296   0.228  0.00  0.00    +0.141 S 
ATOM      4  O   UNL     1      -3.837  -4.674   0.199  0.00  0.00    -0.129 OA
ATOM      5  O   UNL     1      -3.270  -2.608   1.498  0.00  0.00    -0.129 OA
ATOM      6  C   UNL     1      -4.579  -2.397  -0.706  0.00  0.00    +0.176 A 
ATOM      7  C   UNL     1      -5.778  -2.006  -0.103  0.00  0.00    +0.059 A 
ATOM      8  C   UNL     1      -6.694  -1.280  -0.854  0.00  0.00    +0.050 A 
ATOM      9  C   UNL     1      -6.417  -0.959  -2.183  0.00  0.00    +0.028 A 
ATOM     10  C   UNL     1      -5.211  -1.364  -2.768  0.00  0.00    +0.053 A 
ATOM     11  C   UNL     1      -4.266  -2.071  -2.021  0.00  0.00    +0.148 A 
ATOM     12  N   UNL     1      -3.013  -2.366  -2.548  0.00  0.00    -0.200 N 
ATOM     13  H   UNL     1      -1.169  -3.410  -0.056  0.00  0.00    +0.339 HD
ATOM     14  H   UNL     1      -2.826  -2.109  -3.519  0.00  0.00    +0.298 HD
ENDROOT
BRANCH   1  18
ATOM     15  N   UNL     1       1.936  -2.932  -2.097  0.00  0.00    -0.292 N 
ATOM     16  C   UNL     1       0.665  -3.062  -1.586  0.00  0.00    +0.271 A 
ATOM     17  O   UNL     1       0.435  -3.408  -0.423  0.00  0.00    -0.267 OA
ATOM     18  C   UNL     1      -0.505  -2.749  -2.465  0.00  0.00    +0.170 A 
ATOM     19  C   UNL     1      -0.277  -2.414  -3.748  0.00  0.00    +0.148 A 
ATOM     20  C   UNL     1       1.093  -2.264  -4.270  0.00  0.00    +0.060 A 
ATOM     21  C   UNL     1       1.380  -1.803  -5.564  0.00  0.00    +0.016 A 
ATOM     22  C   UNL     1       2.701  -1.659  -5.981  0.00  0.00    +0.021 A 
ATOM     23  C   UNL     1       3.703  -1.965  -5.085  0.00  0.00    +0.113 A 
ATOM     24  N   UNL     1       3.468  -2.386  -3.827  0.00  0.00    -0.237 NA
ATOM     25  C   UNL     1       2.181  -2.526  -3.429  0.00  0.00    +0.147 A 
BRANCH  19  26
ATOM     26  O   UNL     1      -1.333  -2.193  -4.621  0.00  0.00    -0.505 OA
ATOM     27  H   UNL     1      -1.056  -2.447  -5.521  0.00  0.00    +0.292 HD
ENDBRANCH  19  26
BRANCH  15  28
ATOM     28  C   UNL     1       3.078  -3.122  -1.197  0.00  0.00    +0.127 C 
BRANCH  28  29
ATOM     29  C   UNL     1       3.412  -1.820  -0.455  0.00  0.00    +0.025 C 
BRANCH  29  31
ATOM     30  C   UNL     1       5.727  -2.520   0.339  0.00  0.00    +0.007 C 
ATOM     31  C   UNL     1       4.343  -2.025   0.753  0.00  0.00    -0.016 C 
ATOM     32  C   UNL     1       4.468  -0.718   1.539  0.00  0.00    +0.007 C 
ENDBRANCH  29  31
ENDBRANCH  28  29
ENDBRANCH  15  28
ENDBRANCH   1  18
BRANCH   8  33
ATOM     33  N   UNL     1      -7.852  -0.735  -0.228  0.00  0.00    -0.221 N 
ATOM     34  H   UNL     1      -8.290  -1.339   0.474  0.00  0.00    +0.173 HD
BRANCH  33  35
ATOM     35  S   UNL     1      -7.652   0.805   0.476  0.00  0.00    +0.040 S 
ATOM     36  C   UNL     1      -8.680   1.792  -0.588  0.00  0.00    +0.218 C 
ATOM     37  O   UNL     1      -8.295   0.719   1.769  0.00  0.00    -0.155 OA
ATOM     38  O   UNL     1      -6.280   1.239   0.334  0.00  0.00    -0.155 OA
ENDBRANCH  33  35
ENDBRANCH   8  33
TORSDOF 7
