
 OpenBabel09122220383D

 38 41  0  0  1  0  0  0  0  0999 V2000
    3.7910   -4.7800    3.7060 C   0  0  1  0  0  3  0  0  0  0  0  0
    2.7790   -3.9470    3.7050 N   0  0  0  0  0  0  0  0  0  0  0  0
    1.3940   -4.1450    4.4870 S   0  0  0  0  0  0  0  0  0  0  0  0
    1.4420   -3.4480    5.7570 O   0  0  0  0  0  0  0  0  0  0  0  0
    0.2980   -3.8940    3.5730 O   0  0  0  0  0  0  0  0  0  0  0  0
    1.3100   -5.8550    4.8930 C   0  0  0  0  0  0  0  0  0  0  0  0
    0.0800   -6.4240    5.2360 C   0  0  0  0  0  3  0  0  0  0  0  0
    0.0350   -7.7800    5.5340 C   0  0  0  0  0  0  0  0  0  0  0  0
    1.1990   -8.5480    5.4960 C   0  0  0  0  0  3  0  0  0  0  0  0
    2.4210   -7.9570    5.1530 C   0  0  0  0  0  3  0  0  0  0  0  0
    2.4820   -6.6010    4.8240 C   0  0  0  0  0  0  0  0  0  0  0  0
    3.6610   -6.0300    4.3570 N   0  0  0  0  0  0  0  0  0  0  0  0
    2.8780   -3.0760    3.1920 H   0  0  0  0  0  0  0  0  0  0  0  0
    4.4990   -6.6150    4.3230 H   0  0  0  0  0  0  0  0  0  0  0  0
    6.7950   -5.2510    1.3900 N   0  0  0  0  0  0  0  0  0  0  0  0
    5.5850   -5.4680    2.0080 C   0  0  0  0  0  0  0  0  0  0  0  0
    4.9080   -6.4860    1.8320 O   0  0  0  0  0  0  0  0  0  0  0  0
    5.0620   -4.4390    2.9610 C   0  0  0  0  0  0  0  0  0  0  0  0
    5.7630   -3.3030    3.1320 C   0  0  0  0  0  0  0  0  0  0  0  0
    7.0650   -3.0990    2.4740 C   0  0  0  0  0  0  0  0  0  0  0  0
    7.8850   -1.9850    2.7140 C   0  0  0  0  0  3  0  0  0  0  0  0
    9.1180   -1.8710    2.0760 C   0  0  0  0  0  3  0  0  0  0  0  0
    9.5070   -2.8840    1.2260 C   0  0  0  0  0  3  0  0  0  0  0  0
    8.7600   -3.9800    0.9890 N   0  0  0  0  0  0  0  0  0  0  0  0
    7.5610   -4.0830    1.6110 C   0  0  0  0  0  0  0  0  0  0  0  0
    5.2780   -2.2870    3.9440 O   0  0  0  0  0  0  0  0  0  0  0  0
    5.5910   -1.4310    3.5970 H   0  0  0  0  0  0  0  0  0  0  0  0
    7.3580   -6.3150    0.5530 C   0  0  0  0  0  2  0  0  0  0  0  0
    6.8940   -6.1690   -0.9030 C   0  0  0  0  0  2  0  0  0  0  0  0
    5.3330   -8.1330   -0.4720 C   0  0  0  0  0  1  0  0  0  0  0  0
    5.5100   -6.7870   -1.1700 C   0  0  0  0  0  3  0  0  0  0  0  0
    4.4140   -5.8170   -0.7210 C   0  0  0  0  0  1  0  0  0  0  0  0
   -1.2220   -8.4210    5.7360 N   0  0  0  0  0  0  0  0  0  0  0  0
   -1.4930   -8.5430    6.7160 H   0  0  0  0  0  0  0  0  0  0  0  0
   -2.5450   -7.7170    4.9230 S   0  0  0  0  0  0  0  0  0  0  0  0
   -3.9030   -8.5270    5.7380 C   0  0  0  0  0  1  0  0  0  0  0  0
   -2.5440   -6.3270    5.3240 O   0  0  0  0  0  0  0  0  0  0  0  0
   -2.5350   -8.1090    3.5310 O   0  0  0  0  0  0  0  0  0  0  0  0
  1 18  1  6  0  0  0
  1 12  1  0  0  0  0
  2  1  1  0  0  0  0
  2  3  1  0  0  0  0
  3  6  1  0  0  0  0
  3  4  2  0  0  0  0
  5  3  2  0  0  0  0
  6  7  1  0  0  0  0
  7  8  2  0  0  0  0
  8 33  1  0  0  0  0
  9  8  1  0  0  0  0
 10  9  2  0  0  0  0
 11  6  2  0  0  0  0
 11 10  1  0  0  0  0
 12 11  1  0  0  0  0
 13  2  1  0  0  0  0
 14 12  1  0  0  0  0
 15 25  1  0  0  0  0
 15 16  1  0  0  0  0
 16 18  1  0  0  0  0
 17 16  2  0  0  0  0
 18 19  2  0  0  0  0
 19 26  1  0  0  0  0
 20 21  1  0  0  0  0
 20 19  1  0  0  0  0
 22 21  2  0  0  0  0
 23 22  1  0  0  0  0
 24 23  2  0  0  0  0
 24 25  1  0  0  0  0
 25 20  2  0  0  0  0
 27 26  1  0  0  0  0
 28 15  1  0  0  0  0
 29 28  1  0  0  0  0
 31 29  1  0  0  0  0
 31 32  1  0  0  0  0
 31 30  1  0  0  0  0
 33 34  1  0  0  0  0
 35 37  2  0  0  0  0
 35 33  1  0  0  0  0
 35 36  1  0  0  0  0
 38 35  2  0  0  0  0
M  END
>  <minimizedAffinity>
3.25048375

$$$$
