REMARK  Name = 
REMARK  3 active torsions:
REMARK  status: ('A' for Active; 'I' for Inactive)
REMARK    1  A    between atoms: N_1  and  N_2
REMARK    2  A    between atoms: C_6  and  C_7
REMARK    3  A    between atoms: C_10  and  N_11
REMARK                            x       y       z     vdW  Elec       q    Type
REMARK                         _______ _______ _______ _____ _____    ______ ____
ROOT
ATOM      1  N   UNL     1       0.642   1.053   0.981  0.00  0.00    -0.189 N 
ATOM      2  C   UNL     1      -0.701   1.382   0.845  0.00  0.00    +0.272 C 
ATOM      3  O   UNL     1      -1.632   0.589   0.775  0.00  0.00    -0.268 OA
ATOM      4  C   UNL     1      -0.841   2.862   0.772  0.00  0.00    +0.078 C 
ATOM      5  C   UNL     1      -2.041   3.446   0.660  0.00  0.00    +0.028 C 
ATOM      6  S   UNL     1       0.704   3.619   0.876  0.00  0.00    -0.060 S 
ATOM      7  C   UNL     1       1.564   2.086   1.006  0.00  0.00    +0.135 C 
ATOM      8  S   UNL     1       3.226   1.976   1.106  0.00  0.00    -0.026 S 
ENDROOT
BRANCH   5   9
ATOM      9  C   UNL     1      -2.296   4.889   0.592  0.00  0.00    -0.023 A 
ATOM     10  C   UNL     1      -3.023   5.504   1.621  0.00  0.00    +0.014 A 
ATOM     11  C   UNL     1      -3.294   6.875   1.575  0.00  0.00    +0.085 A 
ATOM     12  C   UNL     1      -2.841   7.632   0.487  0.00  0.00    +0.273 A 
ATOM     13  C   UNL     1      -2.124   7.025  -0.552  0.00  0.00    +0.085 A 
ATOM     14  C   UNL     1      -1.858   5.654  -0.497  0.00  0.00    +0.014 A 
BRANCH  12  15
ATOM     15  N   UNL     1      -3.125   9.071   0.432  0.00  0.00    +0.080 N 
ATOM     16  O   UNL     1      -3.764   9.569   1.371  0.00  0.00    +0.041 OA
ATOM     17  O   UNL     1      -2.712   9.704  -0.550  0.00  0.00    -0.576 OA
ENDBRANCH  12  15
ENDBRANCH   5   9
BRANCH   1  18
ATOM     18  N   UNL     1       1.014  -0.316   1.103  0.00  0.00    -0.246 NA
ATOM     19  H   UNL     1       0.148  -0.867   1.071  0.00  0.00    +0.141 HD
ATOM     20  H   UNL     1       1.535  -0.573   0.263  0.00  0.00    +0.141 HD
ENDBRANCH   1  18
TORSDOF 3
