REMARK  Name = 
REMARK  9 active torsions:
REMARK  status: ('A' for Active; 'I' for Inactive)
REMARK    1  A    between atoms: C_1  and  C_2
REMARK    2  A    between atoms: C_2  and  C_3
REMARK    3  A    between atoms: C_2  and  N_4
REMARK    4  A    between atoms: N_4  and  C_5
REMARK    5  A    between atoms: C_6  and  C_8
REMARK    6  A    between atoms: C_8  and  N_9
REMARK    7  A    between atoms: C_10  and  C_11
REMARK    8  A    between atoms: C_17  and  C_18
REMARK    9  A    between atoms: C_27  and  C_28
REMARK                            x       y       z     vdW  Elec       q    Type
REMARK                         _______ _______ _______ _____ _____    ______ ____
ROOT
ATOM      1  N   UNL     1      -3.642  -0.792   0.682  0.00  0.00    -0.331 N 
ATOM      2  C   UNL     1      -4.756  -0.905  -0.127  0.00  0.00    +0.054 A 
ATOM      3  C   UNL     1      -4.907  -2.255  -0.448  0.00  0.00    -0.011 A 
ATOM      4  C   UNL     1      -3.844  -2.969   0.207  0.00  0.00    +0.004 A 
ATOM      5  C   UNL     1      -3.464  -4.327   0.290  0.00  0.00    +0.011 A 
ATOM      6  C   UNL     1      -2.347  -4.703   1.052  0.00  0.00    +0.010 A 
ATOM      7  C   UNL     1      -1.583  -3.757   1.742  0.00  0.00    -0.001 A 
ATOM      8  C   UNL     1      -1.952  -2.405   1.654  0.00  0.00    +0.036 A 
ATOM      9  C   UNL     1      -3.075  -2.033   0.895  0.00  0.00    +0.051 A 
ENDROOT
BRANCH   2  10
ATOM     10  C   UNL     1      -5.586   0.231  -0.523  0.00  0.00    -0.001 A 
ATOM     11  C   UNL     1      -6.844   0.422   0.060  0.00  0.00    +0.010 A 
ATOM     12  C   UNL     1      -7.640   1.504  -0.319  0.00  0.00    +0.001 A 
ATOM     13  C   UNL     1      -7.183   2.401  -1.285  0.00  0.00    +0.000 A 
ATOM     14  C   UNL     1      -5.933   2.215  -1.873  0.00  0.00    +0.001 A 
ATOM     15  C   UNL     1      -5.138   1.131  -1.495  0.00  0.00    +0.010 A 
ENDBRANCH   2  10
BRANCH   3  16
ATOM     16  C   UNL     1      -6.001  -2.836  -1.317  0.00  0.00    +0.022 C 
ATOM     17  C   UNL     1      -5.456  -3.535  -2.574  0.00  0.00    +0.008 C 
ATOM     18  C   UNL     1      -6.585  -4.088  -3.441  0.00  0.00    +0.001 C 
ATOM     19  C   UNL     1      -7.509  -5.006  -2.646  0.00  0.00    +0.000 C 
ATOM     20  C   UNL     1      -8.061  -4.311  -1.405  0.00  0.00    +0.001 C 
ATOM     21  C   UNL     1      -6.942  -3.759  -0.524  0.00  0.00    +0.008 C 
ENDBRANCH   3  16
BRANCH   7  22
ATOM     22  C   UNL     1      -0.384  -4.166   2.579  0.00  0.00    +0.072 C 
ATOM     23  O   UNL     1       0.229  -3.240   3.203  0.00  0.00    -0.545 OA
ATOM     24  O   UNL     1      -0.084  -5.401   2.603  0.00  0.00    -0.545 OA
ENDBRANCH   7  22
BRANCH   1  25
ATOM     25  C   UNL     1      -3.177   0.419   1.358  0.00  0.00    +0.218 C 
BRANCH  25  28
ATOM     26  N   UNL     1      -0.802   1.244   1.464  0.00  0.00    -0.301 N 
ATOM     27  C   UNL     1      -0.758   1.142   2.919  0.00  0.00    +0.132 C 
ATOM     28  C   UNL     1      -1.944   1.014   0.691  0.00  0.00    +0.235 C 
ATOM     29  O   UNL     1      -1.971   1.296  -0.512  0.00  0.00    -0.274 OA
BRANCH  26  31
ATOM     30  C   UNL     1       0.918   0.423  -0.160  0.00  0.00    +0.028 C 
ATOM     31  C   UNL     1       0.487   1.529   0.807  0.00  0.00    +0.070 C 
ATOM     32  C   UNL     1       0.512   2.908   0.146  0.00  0.00    +0.028 C 
ENDBRANCH  26  31
ENDBRANCH  25  28
ENDBRANCH   1  25
TORSDOF 6
