REMARK  Name = 
REMARK  8 active torsions:
REMARK  status: ('A' for Active; 'I' for Inactive)
REMARK    1  A    between atoms: C_2  and  C_4
REMARK    2  A    between atoms: C_4  and  C_5
REMARK    3  A    between atoms: C_5  and  C_6
REMARK    4  A    between atoms: N_8  and  CA_9
REMARK    5  A    between atoms: CA_9  and  C_25
REMARK    6  A    between atoms: C_10  and  C_11
REMARK    7  A    between atoms: C_14  and  O_15
REMARK    8  A    between atoms: O_15  and  C_16
REMARK                            x       y       z     vdW  Elec       q    Type
REMARK                         _______ _______ _______ _____ _____    ______ ____
ROOT
ATOM      1  CA  UNL     1       0.771   1.023  -2.009  0.00  0.00    +0.057 C 
ATOM      2  C   UNL     1      -0.203   0.683  -2.881  0.00  0.00    +0.033 C 
ENDROOT
BRANCH   2   3
ATOM      3  C   UNL     1      -1.633   0.555  -2.583  0.00  0.00    -0.023 A 
ATOM      4  C   UNL     1      -2.094  -0.368  -1.636  0.00  0.00    +0.011 A 
ATOM      5  C   UNL     1      -3.458  -0.471  -1.358  0.00  0.00    +0.047 A 
ATOM      6  C   UNL     1      -4.362   0.359  -2.019  0.00  0.00    +0.129 A 
ATOM      7  C   UNL     1      -3.918   1.256  -2.994  0.00  0.00    +0.047 A 
ATOM      8  C   UNL     1      -2.553   1.354  -3.271  0.00  0.00    +0.011 A 
BRANCH   6   9
ATOM      9  O   UNL     1      -5.697   0.224  -1.711  0.00  0.00    -0.455 OA
BRANCH   9  10
ATOM     10  C   UNL     1      -6.360   1.374  -1.334  0.00  0.00    +0.141 A 
ATOM     11  C   UNL     1      -5.830   2.219  -0.350  0.00  0.00    +0.047 A 
ATOM     12  C   UNL     1      -6.527   3.361   0.047  0.00  0.00    +0.004 A 
ATOM     13  C   UNL     1      -7.763   3.657  -0.524  0.00  0.00    +0.001 A 
ATOM     14  C   UNL     1      -8.309   2.808  -1.489  0.00  0.00    +0.018 A 
ATOM     15  C   UNL     1      -7.612   1.662  -1.889  0.00  0.00    +0.056 A 
ATOM     16  I   UNL     1      -8.493   0.433  -3.337  0.00  0.00    -0.040 I 
ENDBRANCH   9  10
ENDBRANCH   6   9
ENDBRANCH   2   3
BRANCH   1  19
ATOM     17  C   UNL     1       1.249   1.598   0.401  0.00  0.00    +0.218 C 
ATOM     18  O   UNL     1       0.729   2.191   1.355  0.00  0.00    -0.275 OA
ATOM     19  N   UNL     1       0.466   1.385  -0.704  0.00  0.00    -0.284 N 
ATOM     20  H   UNL     1      -0.504   1.571  -0.499  0.00  0.00    +0.155 HD
BRANCH  17  21
ATOM     21  C   UNL     1       2.687   1.117   0.414  0.00  0.00    +0.102 C 
BRANCH  21  22
ATOM     22  C   UNL     1       3.289   1.071   1.817  0.00  0.00    +0.061 C 
BRANCH  22  24
ATOM     23  O   UNL     1       2.000  -0.889   2.264  0.00  0.00    -0.550 OA
ATOM     24  C   UNL     1       2.775  -0.023   2.753  0.00  0.00    +0.042 C 
ATOM     25  O   UNL     1       3.242   0.043   3.932  0.00  0.00    -0.550 OA
ENDBRANCH  22  24
ENDBRANCH  21  22
ENDBRANCH  17  21
ENDBRANCH   1  19
BRANCH   1  26
ATOM     26  C   UNL     1       2.184   1.108  -2.677  0.00  0.00    +0.086 C 
ATOM     27  O   UNL     1       2.723   2.254  -2.637  0.00  0.00    -0.543 OA
ATOM     28  OXT UNL     1       2.566   0.067  -3.290  0.00  0.00    -0.543 OA
ENDBRANCH   1  26
TORSDOF 8
