
 OpenBabel09122222393D

 28 29  0  0  0  0  0  0  0  0999 V2000
   -3.4730    0.8490    2.0990 C   0  0  0  0  0  0  0  0  0  0  0  0
   -2.1380    0.9110    2.2990 C   0  0  0  0  0  2  0  0  0  0  0  0
   -1.3330   -0.0180    3.0980 C   0  0  0  0  0  0  0  0  0  0  0  0
   -1.9380   -1.0080    3.8820 C   0  0  0  0  0  3  0  0  0  0  0  0
   -1.1560   -1.8900    4.6300 C   0  0  0  0  0  3  0  0  0  0  0  0
    0.2340   -1.7900    4.5850 C   0  0  0  0  0  0  0  0  0  0  0  0
    0.8470   -0.7810    3.8380 C   0  0  0  0  0  3  0  0  0  0  0  0
    0.0610    0.1010    3.0930 C   0  0  0  0  0  3  0  0  0  0  0  0
    0.9640   -2.6820    5.3370 O   0  0  0  0  0  0  0  0  0  0  0  0
    2.2660   -2.9030    4.9360 C   0  0  0  0  0  0  0  0  0  0  0  0
    2.5460   -3.6530    3.7860 C   0  0  0  0  0  3  0  0  0  0  0  0
    3.8670   -3.8980    3.4100 C   0  0  0  0  0  3  0  0  0  0  0  0
    4.9150   -3.4090    4.1870 C   0  0  0  0  0  3  0  0  0  0  0  0
    4.6450   -2.6800    5.3470 C   0  0  0  0  0  3  0  0  0  0  0  0
    3.3200   -2.4330    5.7270 C   0  0  0  0  0  0  0  0  0  0  0  0
    2.9900   -1.3370    7.4790 I   0  0  0  0  0  0  0  0  0  0  0  0
   -5.3770   -0.8050    2.1590 C   0  0  0  0  0  0  0  0  0  0  0  0
   -5.6550   -1.9140    2.6330 O   0  0  0  0  0  0  0  0  0  0  0  0
   -4.2190   -0.2120    2.5920 N   0  0  0  0  0  4  0  0  0  0  0  0
   -3.8530   -0.6880    3.4020 H   0  0  0  0  0  0  0  0  0  0  0  0
   -6.2520   -0.1020    1.1400 C   0  0  0  0  0  2  0  0  0  0  0  0
   -7.6640   -0.6790    1.0650 C   0  0  0  0  0  2  0  0  0  0  0  0
   -9.8870    0.1950    1.1010 O   0  0  0  0  0  1  0  0  0  0  0  0
   -8.7610    0.2470    0.5360 C   0  0  0  0  0  0  0  0  0  0  0  0
   -8.3830    1.0140   -0.4020 O   0  0  0  0  0  0  0  0  0  0  0  0
   -4.0000    1.9800    1.1540 C   0  0  0  0  0  0  0  0  0  0  0  0
   -3.2240    2.2790    0.1980 O   0  0  0  0  0  0  0  0  0  0  0  0
   -5.0690    2.5510    1.5240 O   0  0  0  0  0  1  0  0  0  0  0  0
  1  2  1  0  0  0  0
  1 19  2  0  0  0  0
  2  3  1  0  0  0  0
  3  4  1  0  0  0  0
  4  5  2  0  0  0  0
  6  5  1  0  0  0  0
  6  9  1  0  0  0  0
  7  6  2  0  0  0  0
  8  3  2  0  0  0  0
  8  7  1  0  0  0  0
 10  9  1  0  0  0  0
 10 15  1  0  0  0  0
 11 10  2  0  0  0  0
 12 11  1  0  0  0  0
 12 13  2  0  0  0  0
 13 14  1  0  0  0  0
 14 15  2  0  0  0  0
 15 16  1  0  0  0  0
 17 19  1  0  0  0  0
 17 18  2  0  0  0  0
 19 20  1  0  0  0  0
 21 17  1  0  0  0  0
 22 21  1  0  0  0  0
 24 22  1  0  0  0  0
 24 23  1  0  0  0  0
 25 24  2  0  0  0  0
 26 28  1  0  0  0  0
 26  1  1  0  0  0  0
 27 26  2  0  0  0  0
M  END
>  <minimizedAffinity>
25.3619328

$$$$
