
 OpenBabel09122222393D

 28 29  0  0  0  0  0  0  0  0999 V2000
    2.0110   -1.5430    5.7370 C   0  0  0  0  0  0  0  0  0  0  0  0
    1.3160   -0.4560    5.3350 C   0  0  0  0  0  2  0  0  0  0  0  0
    0.2650   -0.4230    4.3130 C   0  0  0  0  0  0  0  0  0  0  0  0
   -1.0890   -0.4340    4.6690 C   0  0  0  0  0  3  0  0  0  0  0  0
   -2.0770   -0.3930    3.6840 C   0  0  0  0  0  3  0  0  0  0  0  0
   -1.7110   -0.3290    2.3410 C   0  0  0  0  0  0  0  0  0  0  0  0
   -0.3630   -0.3580    1.9720 C   0  0  0  0  0  3  0  0  0  0  0  0
    0.6220   -0.4010    2.9600 C   0  0  0  0  0  3  0  0  0  0  0  0
   -2.7190   -0.2880    1.4040 O   0  0  0  0  0  0  0  0  0  0  0  0
   -3.4490    0.8810    1.3380 C   0  0  0  0  0  0  0  0  0  0  0  0
   -2.8440    2.0840    0.9510 C   0  0  0  0  0  3  0  0  0  0  0  0
   -3.5850    3.2660    0.9210 C   0  0  0  0  0  3  0  0  0  0  0  0
   -4.9290    3.2570    1.2920 C   0  0  0  0  0  3  0  0  0  0  0  0
   -5.5330    2.0660    1.7000 C   0  0  0  0  0  3  0  0  0  0  0  0
   -4.7920    0.8790    1.7310 C   0  0  0  0  0  0  0  0  0  0  0  0
   -5.7620   -0.8680    2.3580 I   0  0  0  0  0  0  0  0  0  0  0  0
    2.3630   -3.6430    4.3840 C   0  0  0  0  0  0  0  0  0  0  0  0
    1.9960   -4.8250    4.3560 O   0  0  0  0  0  0  0  0  0  0  0  0
    1.7060   -2.8060    5.2480 N   0  0  0  0  0  4  0  0  0  0  0  0
    0.8660   -3.2390    5.6000 H   0  0  0  0  0  0  0  0  0  0  0  0
    3.4890   -3.1090    3.5210 C   0  0  0  0  0  2  0  0  0  0  0  0
    4.4530   -4.1980    3.0540 C   0  0  0  0  0  2  0  0  0  0  0  0
    5.9070   -4.1190    4.9470 O   0  0  0  0  0  1  0  0  0  0  0  0
    5.8430   -4.2090    3.6910 C   0  0  0  0  0  0  0  0  0  0  0  0
    6.7920   -4.3610    2.8610 O   0  0  0  0  0  0  0  0  0  0  0  0
    3.0300   -1.2250    6.8810 C   0  0  0  0  0  0  0  0  0  0  0  0
    4.1810   -1.7320    6.7250 O   0  0  0  0  0  0  0  0  0  0  0  0
    2.5570   -0.6150    7.8860 O   0  0  0  0  0  1  0  0  0  0  0  0
  1 26  1  0  0  0  0
  2  1  1  0  0  0  0
  3  4  1  0  0  0  0
  3  2  1  0  0  0  0
  5  4  2  0  0  0  0
  6  5  1  0  0  0  0
  7  6  2  0  0  0  0
  7  8  1  0  0  0  0
  8  3  2  0  0  0  0
  9  6  1  0  0  0  0
 10  9  1  0  0  0  0
 10 15  1  0  0  0  0
 11 10  2  0  0  0  0
 12 11  1  0  0  0  0
 12 13  2  0  0  0  0
 13 14  1  0  0  0  0
 14 15  2  0  0  0  0
 15 16  1  0  0  0  0
 17 19  1  0  0  0  0
 18 17  2  0  0  0  0
 19 20  1  0  0  0  0
 19  1  2  0  0  0  0
 21 17  1  0  0  0  0
 22 21  1  0  0  0  0
 22 24  1  0  0  0  0
 24 23  1  0  0  0  0
 25 24  2  0  0  0  0
 26 28  1  0  0  0  0
 27 26  2  0  0  0  0
M  END
>  <minimizedAffinity>
25.1239662

$$$$
