
 OpenBabel09122222393D

 28 29  0  0  0  0  0  0  0  0999 V2000
   -3.5810    0.9340    2.1390 C   0  0  0  0  0  0  0  0  0  0  0  0
   -2.2400    1.0310    2.2710 C   0  0  0  0  0  2  0  0  0  0  0  0
   -1.3610    0.0780    2.9550 C   0  0  0  0  0  0  0  0  0  0  0  0
   -1.8750   -0.8540    3.8660 C   0  0  0  0  0  3  0  0  0  0  0  0
   -1.0250   -1.7600    4.5030 C   0  0  0  0  0  3  0  0  0  0  0  0
    0.3400   -1.7430    4.2190 C   0  0  0  0  0  0  0  0  0  0  0  0
    0.8690   -0.7920    3.3420 C   0  0  0  0  0  3  0  0  0  0  0  0
    0.0160    0.1140    2.7100 C   0  0  0  0  0  3  0  0  0  0  0  0
    1.1390   -2.6560    4.8690 O   0  0  0  0  0  0  0  0  0  0  0  0
    2.0880   -2.1410    5.7280 C   0  0  0  0  0  0  0  0  0  0  0  0
    1.7570   -1.1330    6.6420 C   0  0  0  0  0  3  0  0  0  0  0  0
    2.7340   -0.5960    7.4820 C   0  0  0  0  0  3  0  0  0  0  0  0
    4.0480   -1.0510    7.4030 C   0  0  0  0  0  3  0  0  0  0  0  0
    4.3910   -2.0390    6.4780 C   0  0  0  0  0  3  0  0  0  0  0  0
    3.4140   -2.5800    5.6350 C   0  0  0  0  0  0  0  0  0  0  0  0
    4.0010   -4.0550    4.2700 I   0  0  0  0  0  0  0  0  0  0  0  0
   -5.3520   -0.8630    2.1050 C   0  0  0  0  0  0  0  0  0  0  0  0
   -5.5620   -1.9950    2.5600 O   0  0  0  0  0  0  0  0  0  0  0  0
   -4.2630   -0.1870    2.5920 N   0  0  0  0  0  4  0  0  0  0  0  0
   -3.8960   -0.6410    3.4140 H   0  0  0  0  0  0  0  0  0  0  0  0
   -6.2340   -0.2210    1.0530 C   0  0  0  0  0  2  0  0  0  0  0  0
   -7.7200   -0.5020    1.2650 C   0  0  0  0  0  2  0  0  0  0  0  0
   -9.8600    0.5140    0.9620 O   0  0  0  0  0  1  0  0  0  0  0  0
   -8.7060    0.3620    0.4780 C   0  0  0  0  0  0  0  0  0  0  0  0
   -8.2160    0.8780   -0.5740 O   0  0  0  0  0  0  0  0  0  0  0  0
   -4.1980    2.1080    1.3080 C   0  0  0  0  0  0  0  0  0  0  0  0
   -3.4780    2.5180    0.3490 O   0  0  0  0  0  0  0  0  0  0  0  0
   -5.2740    2.5980    1.7640 O   0  0  0  0  0  1  0  0  0  0  0  0
  1  2  1  0  0  0  0
  1 19  2  0  0  0  0
  2  3  1  0  0  0  0
  3  4  1  0  0  0  0
  4  5  2  0  0  0  0
  6  5  1  0  0  0  0
  6  9  1  0  0  0  0
  7  6  2  0  0  0  0
  8  3  2  0  0  0  0
  8  7  1  0  0  0  0
  9 10  1  0  0  0  0
 10 11  1  0  0  0  0
 11 12  2  0  0  0  0
 13 12  1  0  0  0  0
 14 13  2  0  0  0  0
 15 10  2  0  0  0  0
 15 14  1  0  0  0  0
 16 15  1  0  0  0  0
 17 18  2  0  0  0  0
 17 19  1  0  0  0  0
 19 20  1  0  0  0  0
 21 22  1  0  0  0  0
 21 17  1  0  0  0  0
 24 23  1  0  0  0  0
 24 22  1  0  0  0  0
 25 24  2  0  0  0  0
 26 28  1  0  0  0  0
 26  1  1  0  0  0  0
 27 26  2  0  0  0  0
M  END
>  <minimizedAffinity>
24.0185032

$$$$
