REMARK  Name = 
REMARK  11 active torsions:
REMARK  status: ('A' for Active; 'I' for Inactive)
REMARK    1  A    between atoms: C_1  and  C_2
REMARK    2  A    between atoms: C_2  and  C_3
REMARK    3  A    between atoms: C_3  and  O_4
REMARK    4  A    between atoms: O_4  and  C_5
REMARK    5  A    between atoms: C_15  and  C_16
REMARK    6  A    between atoms: C_17  and  O_18
REMARK    7  A    between atoms: N_25  and  C_26
REMARK    8  A    between atoms: C_26  and  C_27
REMARK    9  A    between atoms: C_27  and  C_28
REMARK   10  A    between atoms: C_28  and  C_29
REMARK   11  A    between atoms: C_28  and  C_30
REMARK                            x       y       z     vdW  Elec       q    Type
REMARK                         _______ _______ _______ _____ _____    ______ ____
ROOT
ATOM      1  C   UNL     1       1.212  -0.048  -0.040  0.00  0.00    +0.123 A 
ATOM      2  C   UNL     1       1.068   0.779   1.076  0.00  0.00    +0.050 A 
ATOM      3  C   UNL     1       1.382   0.317   2.360  0.00  0.00    +0.056 A 
ATOM      4  C   UNL     1       1.850  -0.985   2.553  0.00  0.00    +0.155 A 
ATOM      5  C   UNL     1       1.992  -1.784   1.433  0.00  0.00    +0.178 A 
ATOM      6  C   UNL     1       1.681  -1.343   0.138  0.00  0.00    +0.080 A 
ATOM      7  S   UNL     1       2.581  -3.406   1.669  0.00  0.00    +0.136 S 
ATOM      8  O   UNL     1       1.510  -4.275   1.238  0.00  0.00    -0.130 OA
ATOM      9  O   UNL     1       3.873  -3.446   1.021  0.00  0.00    -0.130 OA
ATOM     10  N   UNL     1       2.776  -3.551   3.241  0.00  0.00    -0.093 N 
ATOM     11  C   UNL     1       2.556  -2.608   4.119  0.00  0.00    +0.308 C 
ATOM     12  N   UNL     1       2.129  -1.393   3.816  0.00  0.00    -0.238 N 
ATOM     13  H   UNL     1       3.102  -4.457   3.572  0.00  0.00    +0.326 HD
ATOM     14  H   UNL     1       1.994  -0.747   4.599  0.00  0.00    +0.311 HD
ENDROOT
BRANCH  11  15
ATOM     15  C   UNL     1       2.788  -2.916   5.596  0.00  0.00    +0.170 A 
ATOM     16  C   UNL     1       2.613  -2.023   6.588  0.00  0.00    +0.148 A 
ATOM     17  C   UNL     1       2.785  -2.400   8.002  0.00  0.00    +0.060 A 
ATOM     18  C   UNL     1       2.505  -1.541   9.077  0.00  0.00    +0.016 A 
ATOM     19  C   UNL     1       2.699  -1.969  10.388  0.00  0.00    +0.021 A 
ATOM     20  C   UNL     1       3.159  -3.251  10.593  0.00  0.00    +0.113 A 
ATOM     21  N   UNL     1       3.411  -4.111   9.586  0.00  0.00    -0.237 NA
ATOM     22  C   UNL     1       3.215  -3.696   8.316  0.00  0.00    +0.147 A 
ATOM     23  N   UNL     1       3.432  -4.624   7.268  0.00  0.00    -0.292 N 
ATOM     24  C   UNL     1       3.245  -4.295   5.947  0.00  0.00    +0.271 A 
ATOM     25  O   UNL     1       3.436  -5.075   5.010  0.00  0.00    -0.267 OA
BRANCH  16  26
ATOM     26  O   UNL     1       2.278  -0.707   6.286  0.00  0.00    -0.505 OA
ATOM     27  H   UNL     1       2.526  -0.132   7.038  0.00  0.00    +0.292 HD
ENDBRANCH  16  26
BRANCH  23  28
ATOM     28  C   UNL     1       3.858  -5.990   7.607  0.00  0.00    +0.127 C 
BRANCH  28  29
ATOM     29  C   UNL     1       2.740  -7.033   7.445  0.00  0.00    +0.025 C 
BRANCH  29  30
ATOM     30  C   UNL     1       1.566  -6.901   8.433  0.00  0.00    -0.016 C 
ATOM     31  C   UNL     1       0.402  -7.784   7.973  0.00  0.00    +0.007 C 
ATOM     32  C   UNL     1       1.969  -7.293   9.856  0.00  0.00    +0.007 C 
ENDBRANCH  29  30
ENDBRANCH  28  29
ENDBRANCH  23  28
ENDBRANCH  11  15
BRANCH   1  33
ATOM     33  O   UNL     1       0.865   0.529  -1.224  0.00  0.00    -0.492 OA
BRANCH  33  34
ATOM     34  C   UNL     1       0.964  -0.266  -2.408  0.00  0.00    +0.229 C 
BRANCH  34  36
ATOM     35  C   UNL     1       1.424   1.766  -3.849  0.00  0.00    +0.007 C 
ATOM     36  C   UNL     1       0.514   0.570  -3.604  0.00  0.00    +0.038 C 
ENDBRANCH  34  36
ENDBRANCH  33  34
ENDBRANCH   1  33
TORSDOF 8
