
 OpenBabel09122222393D

 36 39  0  0  1  0  0  0  0  0999 V2000
    3.7150   -0.5700    8.8300 C   0  0  0  0  0  0  0  0  0  0  0  0
    2.5700   -1.0020    8.1570 C   0  0  0  0  0  3  0  0  0  0  0  0
    2.6530   -1.9470    7.1270 C   0  0  0  0  0  3  0  0  0  0  0  0
    3.8880   -2.4820    6.7510 C   0  0  0  0  0  0  0  0  0  0  0  0
    5.0070   -2.0460    7.4360 C   0  0  0  0  0  0  0  0  0  0  0  0
    4.9480   -1.0990    8.4690 C   0  0  0  0  0  3  0  0  0  0  0  0
    6.5470   -2.7160    6.9730 S   0  0  0  0  0  0  0  0  0  0  0  0
    7.3260   -1.6000    6.4870 O   0  0  0  0  0  0  0  0  0  0  0  0
    6.9910   -3.4870    8.1130 O   0  0  0  0  0  0  0  0  0  0  0  0
    6.2250   -3.7000    5.7660 N   0  0  0  0  0  0  0  0  0  0  0  0
    5.0330   -3.9400    5.2850 C   0  0  1  0  0  3  0  0  0  0  0  0
    3.9210   -3.3850    5.7390 N   0  0  0  0  0  0  0  0  0  0  0  0
    7.0220   -4.1740    5.3470 H   0  0  0  0  0  0  0  0  0  0  0  0
    3.0510   -3.6570    5.2730 H   0  0  0  0  0  0  0  0  0  0  0  0
    4.8990   -4.9110    4.1150 C   0  0  0  0  0  0  0  0  0  0  0  0
    5.4920   -4.7350    2.9190 C   0  0  0  0  0  0  0  0  0  0  0  0
    5.3830   -5.7430    1.8500 C   0  0  0  0  0  0  0  0  0  0  0  0
    6.0730   -5.6630    0.6300 C   0  0  0  0  0  3  0  0  0  0  0  0
    5.9120   -6.6550   -0.3350 C   0  0  0  0  0  3  0  0  0  0  0  0
    5.0720   -7.7090   -0.0520 C   0  0  0  0  0  3  0  0  0  0  0  0
    4.4160   -7.8310    1.1190 N   0  0  0  0  0  0  0  0  0  0  0  0
    4.5790   -6.8730    2.0560 C   0  0  0  0  0  0  0  0  0  0  0  0
    3.9280   -7.0380    3.3030 N   0  0  0  0  0  0  0  0  0  0  0  0
    4.0470   -6.1210    4.3200 C   0  0  0  0  0  0  0  0  0  0  0  0
    3.4840   -6.2290    5.4130 O   0  0  0  0  0  0  0  0  0  0  0  0
    6.2160   -3.5740    2.6670 O   0  0  0  0  0  0  0  0  0  0  0  0
    6.2760   -3.4370    1.7000 H   0  0  0  0  0  0  0  0  0  0  0  0
    3.1070   -8.2390    3.5210 C   0  0  0  0  0  2  0  0  0  0  0  0
    3.8780   -9.3870    4.1940 C   0  0  0  0  0  2  0  0  0  0  0  0
    3.6300  -10.7850    3.5990 C   0  0  0  0  0  3  0  0  0  0  0  0
    2.5880  -10.6940    2.4800 C   0  0  0  0  0  1  0  0  0  0  0  0
    4.9150  -11.4070    3.0470 C   0  0  0  0  0  1  0  0  0  0  0  0
    3.4880    0.3550    9.8040 O   0  0  0  0  0  0  0  0  0  0  0  0
    4.5330    0.5990   10.7490 C   0  0  0  0  0  2  0  0  0  0  0  0
    5.6720    2.4810   12.0040 C   0  0  0  0  0  1  0  0  0  0  0  0
    4.4360    2.0460   11.2290 C   0  0  0  0  0  2  0  0  0  0  0  0
  1 33  1  0  0  0  0
  2  1  2  0  0  0  0
  3  2  1  0  0  0  0
  4  3  2  0  0  0  0
  4  5  1  0  0  0  0
  5  6  2  0  0  0  0
  6  1  1  0  0  0  0
  7  5  1  0  0  0  0
  7  9  2  0  0  0  0
  8  7  2  0  0  0  0
 10  7  1  0  0  0  0
 11 15  1  6  0  0  0
 11 12  1  0  0  0  0
 11 10  1  0  0  0  0
 12  4  1  0  0  0  0
 13 10  1  0  0  0  0
 14 12  1  0  0  0  0
 15 24  1  0  0  0  0
 16 15  2  0  0  0  0
 17 22  1  0  0  0  0
 17 16  1  0  0  0  0
 18 17  2  0  0  0  0
 19 20  2  0  0  0  0
 19 18  1  0  0  0  0
 20 21  1  0  0  0  0
 21 22  2  0  0  0  0
 22 23  1  0  0  0  0
 23 28  1  0  0  0  0
 23 24  1  0  0  0  0
 24 25  2  0  0  0  0
 26 16  1  0  0  0  0
 27 26  1  0  0  0  0
 28 29  1  0  0  0  0
 30 29  1  0  0  0  0
 31 30  1  0  0  0  0
 32 30  1  0  0  0  0
 33 34  1  0  0  0  0
 34 36  1  0  0  0  0
 36 35  1  0  0  0  0
M  END
>  <minimizedAffinity>
-7.40517998

$$$$
