
 OpenBabel09122222393D

 36 39  0  0  1  0  0  0  0  0999 V2000
    5.6520   -0.4100    8.8850 C   0  0  0  0  0  0  0  0  0  0  0  0
    6.7470   -0.7930    8.1060 C   0  0  0  0  0  3  0  0  0  0  0  0
    6.6030   -1.7200    7.0670 C   0  0  0  0  0  3  0  0  0  0  0  0
    5.3560   -2.2830    6.7840 C   0  0  0  0  0  0  0  0  0  0  0  0
    4.2850   -1.8850    7.5630 C   0  0  0  0  0  0  0  0  0  0  0  0
    4.4070   -0.9590    8.6100 C   0  0  0  0  0  3  0  0  0  0  0  0
    2.7270   -2.5800    7.2090 S   0  0  0  0  0  0  0  0  0  0  0  0
    2.3550   -3.3210    8.3920 O   0  0  0  0  0  0  0  0  0  0  0  0
    1.9130   -1.4830    6.7350 O   0  0  0  0  0  0  0  0  0  0  0  0
    2.9900   -3.5950    6.0130 N   0  0  0  0  0  0  0  0  0  0  0  0
    4.1450   -3.8000    5.4360 C   0  0  1  0  0  3  0  0  0  0  0  0
    5.2670   -3.1870    5.7770 N   0  0  0  0  0  0  0  0  0  0  0  0
    2.1810   -4.1180    5.6810 H   0  0  0  0  0  0  0  0  0  0  0  0
    6.1050   -3.4390    5.2460 H   0  0  0  0  0  0  0  0  0  0  0  0
    4.2250   -4.8180    4.3020 C   0  0  0  0  0  0  0  0  0  0  0  0
    4.4040   -4.4920    3.0080 C   0  0  0  0  0  0  0  0  0  0  0  0
    4.5440   -5.5250    1.9660 C   0  0  0  0  0  0  0  0  0  0  0  0
    4.8460   -5.2420    0.6240 C   0  0  0  0  0  3  0  0  0  0  0  0
    4.9560   -6.2740   -0.3040 C   0  0  0  0  0  3  0  0  0  0  0  0
    4.7720   -7.5660    0.1340 C   0  0  0  0  0  3  0  0  0  0  0  0
    4.5090   -7.8760    1.4200 N   0  0  0  0  0  0  0  0  0  0  0  0
    4.4100   -6.8740    2.3190 C   0  0  0  0  0  0  0  0  0  0  0  0
    4.1870   -7.2130    3.6760 N   0  0  0  0  0  0  0  0  0  0  0  0
    4.0860   -6.2620    4.6630 C   0  0  0  0  0  0  0  0  0  0  0  0
    3.8800   -6.5220    5.8510 O   0  0  0  0  0  0  0  0  0  0  0  0
    4.4450   -3.1540    2.6290 O   0  0  0  0  0  0  0  0  0  0  0  0
    4.2300   -3.0840    1.6770 H   0  0  0  0  0  0  0  0  0  0  0  0
    4.0740   -8.6320    4.0430 C   0  0  0  0  0  2  0  0  0  0  0  0
    2.6500   -9.1900    3.8820 C   0  0  0  0  0  2  0  0  0  0  0  0
    2.5560  -10.5800    3.2250 C   0  0  0  0  0  3  0  0  0  0  0  0
    2.0390  -10.4400    1.7900 C   0  0  0  0  0  1  0  0  0  0  0  0
    3.9070  -11.2980    3.2100 C   0  0  0  0  0  1  0  0  0  0  0  0
    5.9380    0.4940    9.8620 O   0  0  0  0  0  0  0  0  0  0  0  0
    5.0190    0.6120   10.9510 C   0  0  0  0  0  2  0  0  0  0  0  0
    5.6050    2.7580   12.1620 C   0  0  0  0  0  1  0  0  0  0  0  0
    4.6810    2.0870   11.1550 C   0  0  0  0  0  2  0  0  0  0  0  0
  1 33  1  0  0  0  0
  2  1  2  0  0  0  0
  3  2  1  0  0  0  0
  4  3  2  0  0  0  0
  4  5  1  0  0  0  0
  5  6  2  0  0  0  0
  6  1  1  0  0  0  0
  7  5  1  0  0  0  0
  7  8  2  0  0  0  0
  9  7  2  0  0  0  0
 10  7  1  0  0  0  0
 11 15  1  1  0  0  0
 11 12  1  0  0  0  0
 11 10  1  0  0  0  0
 12  4  1  0  0  0  0
 13 10  1  0  0  0  0
 14 12  1  0  0  0  0
 15 24  1  0  0  0  0
 16 15  2  0  0  0  0
 17 22  1  0  0  0  0
 17 16  1  0  0  0  0
 18 17  2  0  0  0  0
 19 20  2  0  0  0  0
 19 18  1  0  0  0  0
 20 21  1  0  0  0  0
 21 22  2  0  0  0  0
 22 23  1  0  0  0  0
 23 28  1  0  0  0  0
 23 24  1  0  0  0  0
 24 25  2  0  0  0  0
 26 16  1  0  0  0  0
 27 26  1  0  0  0  0
 29 28  1  0  0  0  0
 30 29  1  0  0  0  0
 31 30  1  0  0  0  0
 32 30  1  0  0  0  0
 33 34  1  0  0  0  0
 34 36  1  0  0  0  0
 36 35  1  0  0  0  0
M  END
>  <minimizedAffinity>
-7.3116889

$$$$
