
 OpenBabel09122222393D

 36 39  0  0  1  0  0  0  0  0999 V2000
    2.6020   -1.5210    8.4900 C   0  0  0  0  0  0  0  0  0  0  0  0
    2.3330   -1.1060    7.1840 C   0  0  0  0  0  3  0  0  0  0  0  0
    2.5590   -1.9590    6.0960 C   0  0  0  0  0  3  0  0  0  0  0  0
    3.0560   -3.2490    6.2950 C   0  0  0  0  0  0  0  0  0  0  0  0
    3.3070   -3.6420    7.5970 C   0  0  0  0  0  0  0  0  0  0  0  0
    3.0920   -2.8040    8.7010 C   0  0  0  0  0  3  0  0  0  0  0  0
    3.9210   -5.2520    7.8490 S   0  0  0  0  0  0  0  0  0  0  0  0
    5.2310   -5.0810    8.4350 O   0  0  0  0  0  0  0  0  0  0  0  0
    2.8780   -5.9570    8.5600 O   0  0  0  0  0  0  0  0  0  0  0  0
    4.0740   -5.8700    6.3910 N   0  0  0  0  0  0  0  0  0  0  0  0
    3.7580   -5.2630    5.2770 C   0  0  1  0  0  3  0  0  0  0  0  0
    3.2700   -4.0350    5.2100 N   0  0  0  0  0  0  0  0  0  0  0  0
    4.4450   -6.8170    6.3400 H   0  0  0  0  0  0  0  0  0  0  0  0
    3.0660   -3.6740    4.2740 H   0  0  0  0  0  0  0  0  0  0  0  0
    3.9730   -5.9990    3.9570 C   0  0  0  0  0  0  0  0  0  0  0  0
    4.5070   -5.4340    2.8580 C   0  0  0  0  0  0  0  0  0  0  0  0
    4.7550   -6.2160    1.6340 C   0  0  0  0  0  0  0  0  0  0  0  0
    5.4120   -5.7050    0.5030 C   0  0  0  0  0  3  0  0  0  0  0  0
    5.6040   -6.5060   -0.6200 C   0  0  0  0  0  3  0  0  0  0  0  0
    5.1430   -7.8030   -0.5810 C   0  0  0  0  0  3  0  0  0  0  0  0
    4.5330   -8.3340    0.4970 N   0  0  0  0  0  0  0  0  0  0  0  0
    4.3550   -7.5580    1.5880 C   0  0  0  0  0  0  0  0  0  0  0  0
    3.7610   -8.1410    2.7340 N   0  0  0  0  0  0  0  0  0  0  0  0
    3.5530   -7.4320    3.8930 C   0  0  0  0  0  0  0  0  0  0  0  0
    3.0280   -7.9060    4.9050 O   0  0  0  0  0  0  0  0  0  0  0  0
    4.8230   -4.0790    2.8580 O   0  0  0  0  0  0  0  0  0  0  0  0
    4.8600   -3.7590    1.9340 H   0  0  0  0  0  0  0  0  0  0  0  0
    3.3670   -9.5570    2.6870 C   0  0  0  0  0  2  0  0  0  0  0  0
    4.5260  -10.5200    2.9910 C   0  0  0  0  0  2  0  0  0  0  0  0
    4.4010  -11.3100    4.3070 C   0  0  0  0  0  3  0  0  0  0  0  0
    5.2670  -10.6540    5.3870 C   0  0  0  0  0  1  0  0  0  0  0  0
    2.9520  -11.3840    4.7940 C   0  0  0  0  0  1  0  0  0  0  0  0
    2.3420   -0.5890    9.4480 O   0  0  0  0  0  0  0  0  0  0  0  0
    3.1910   -0.5590   10.5980 C   0  0  0  0  0  2  0  0  0  0  0  0
    4.3430    1.6470   11.0660 C   0  0  0  0  0  1  0  0  0  0  0  0
    4.3950    0.3320   10.3010 C   0  0  0  0  0  2  0  0  0  0  0  0
  1  6  1  0  0  0  0
  1 33  1  0  0  0  0
  2  1  2  0  0  0  0
  3  4  2  0  0  0  0
  3  2  1  0  0  0  0
  4  5  1  0  0  0  0
  5  7  1  0  0  0  0
  5  6  2  0  0  0  0
  7  8  2  0  0  0  0
  7  9  2  0  0  0  0
 10  7  1  0  0  0  0
 11 15  1  6  0  0  0
 11 10  1  0  0  0  0
 12 11  1  0  0  0  0
 12  4  1  0  0  0  0
 13 10  1  0  0  0  0
 14 12  1  0  0  0  0
 16 15  2  0  0  0  0
 17 16  1  0  0  0  0
 18 17  2  0  0  0  0
 19 20  2  0  0  0  0
 19 18  1  0  0  0  0
 20 21  1  0  0  0  0
 21 22  2  0  0  0  0
 22 17  1  0  0  0  0
 22 23  1  0  0  0  0
 23 24  1  0  0  0  0
 24 15  1  0  0  0  0
 24 25  2  0  0  0  0
 26 16  1  0  0  0  0
 27 26  1  0  0  0  0
 28 23  1  0  0  0  0
 28 29  1  0  0  0  0
 29 30  1  0  0  0  0
 30 32  1  0  0  0  0
 30 31  1  0  0  0  0
 33 34  1  0  0  0  0
 36 34  1  0  0  0  0
 36 35  1  0  0  0  0
M  END
>  <minimizedAffinity>
-7.43082666

$$$$
