
 OpenBabel09122222393D

 36 39  0  0  1  0  0  0  0  0999 V2000
    2.7870   -1.3950    8.7400 C   0  0  0  0  0  0  0  0  0  0  0  0
    2.7990   -1.1300    7.3690 C   0  0  0  0  0  3  0  0  0  0  0  0
    2.8810   -2.1710    6.4360 C   0  0  0  0  0  3  0  0  0  0  0  0
    2.9500   -3.5010    6.8570 C   0  0  0  0  0  0  0  0  0  0  0  0
    2.9290   -3.7400    8.2190 C   0  0  0  0  0  0  0  0  0  0  0  0
    2.8500   -2.7130    9.1720 C   0  0  0  0  0  3  0  0  0  0  0  0
    3.0080   -5.3970    8.7490 S   0  0  0  0  0  0  0  0  0  0  0  0
    4.2370   -5.5070    9.5010 O   0  0  0  0  0  0  0  0  0  0  0  0
    1.7320   -5.6660    9.3730 O   0  0  0  0  0  0  0  0  0  0  0  0
    3.1310   -6.2530    7.4130 N   0  0  0  0  0  0  0  0  0  0  0  0
    3.1340   -5.7640    6.2010 C   0  0  1  0  0  3  0  0  0  0  0  0
    3.0410   -4.4750    5.9180 N   0  0  0  0  0  0  0  0  0  0  0  0
    3.2100   -7.2610    7.5310 H   0  0  0  0  0  0  0  0  0  0  0  0
    3.0570   -4.2220    4.9260 H   0  0  0  0  0  0  0  0  0  0  0  0
    3.2670   -6.7270    5.0250 C   0  0  0  0  0  0  0  0  0  0  0  0
    2.4840   -7.8080    4.8440 C   0  0  0  0  0  0  0  0  0  0  0  0
    2.6140   -8.6620    3.6500 C   0  0  0  0  0  0  0  0  0  0  0  0
    1.7510   -9.7300    3.3580 C   0  0  0  0  0  3  0  0  0  0  0  0
    1.9430  -10.4960    2.2110 C   0  0  0  0  0  3  0  0  0  0  0  0
    2.9890  -10.1680    1.3770 C   0  0  0  0  0  3  0  0  0  0  0  0
    3.8190   -9.1330    1.6120 N   0  0  0  0  0  0  0  0  0  0  0  0
    3.6260   -8.3870    2.7210 C   0  0  0  0  0  0  0  0  0  0  0  0
    4.4710   -7.2700    2.9310 N   0  0  0  0  0  0  0  0  0  0  0  0
    4.3410   -6.4470    4.0240 C   0  0  0  0  0  0  0  0  0  0  0  0
    5.0670   -5.4730    4.2430 O   0  0  0  0  0  0  0  0  0  0  0  0
    1.5370   -8.1470    5.8050 O   0  0  0  0  0  0  0  0  0  0  0  0
    1.3130   -9.0960    5.7140 H   0  0  0  0  0  0  0  0  0  0  0  0
    5.5150   -6.9730    1.9390 C   0  0  0  0  0  2  0  0  0  0  0  0
    5.1260   -5.8460    0.9670 C   0  0  0  0  0  2  0  0  0  0  0  0
    5.4550   -6.1080   -0.5140 C   0  0  0  0  0  3  0  0  0  0  0  0
    6.8230   -5.5090   -0.8540 C   0  0  0  0  0  1  0  0  0  0  0  0
    5.4600   -7.6030   -0.8430 C   0  0  0  0  0  1  0  0  0  0  0  0
    2.7100   -0.2890    9.5320 O   0  0  0  0  0  0  0  0  0  0  0  0
    3.4960   -0.2670   10.7260 C   0  0  0  0  0  2  0  0  0  0  0  0
    4.4330    2.0100   11.3190 C   0  0  0  0  0  1  0  0  0  0  0  0
    4.6470    0.7190   10.5410 C   0  0  0  0  0  2  0  0  0  0  0  0
  1  6  1  0  0  0  0
  1 33  1  0  0  0  0
  2  1  2  0  0  0  0
  3  4  2  0  0  0  0
  3  2  1  0  0  0  0
  4  5  1  0  0  0  0
  5  7  1  0  0  0  0
  5  6  2  0  0  0  0
  7  9  2  0  0  0  0
  7  8  2  0  0  0  0
 10 13  1  0  0  0  0
 10  7  1  0  0  0  0
 11 15  1  1  0  0  0
 11 10  1  0  0  0  0
 12 11  1  0  0  0  0
 12  4  1  0  0  0  0
 14 12  1  0  0  0  0
 16 15  2  0  0  0  0
 16 26  1  0  0  0  0
 17 16  1  0  0  0  0
 18 17  1  0  0  0  0
 19 18  2  0  0  0  0
 20 21  2  0  0  0  0
 20 19  1  0  0  0  0
 21 22  1  0  0  0  0
 22 23  1  0  0  0  0
 22 17  2  0  0  0  0
 23 24  1  0  0  0  0
 24 25  2  0  0  0  0
 24 15  1  0  0  0  0
 27 26  1  0  0  0  0
 28 23  1  0  0  0  0
 29 28  1  0  0  0  0
 30 29  1  0  0  0  0
 31 30  1  0  0  0  0
 32 30  1  0  0  0  0
 33 34  1  0  0  0  0
 36 34  1  0  0  0  0
 36 35  1  0  0  0  0
M  END
>  <minimizedAffinity>
-7.61328268

$$$$
