
 OpenBabel09122222393D

 36 39  0  0  1  0  0  0  0  0999 V2000
    2.5010   -2.6010   10.5710 C   0  0  0  0  0  0  0  0  0  0  0  0
    2.4420   -3.9790   10.7860 C   0  0  0  0  0  3  0  0  0  0  0  0
    2.5910   -4.8810    9.7250 C   0  0  0  0  0  3  0  0  0  0  0  0
    2.8050   -4.4190    8.4240 C   0  0  0  0  0  0  0  0  0  0  0  0
    2.8680   -3.0510    8.2350 C   0  0  0  0  0  0  0  0  0  0  0  0
    2.7190   -2.1290    9.2830 C   0  0  0  0  0  3  0  0  0  0  0  0
    3.1400   -2.4710    6.6150 S   0  0  0  0  0  0  0  0  0  0  0  0
    1.9580   -1.7160    6.2680 O   0  0  0  0  0  0  0  0  0  0  0  0
    4.4400   -1.8390    6.6450 O   0  0  0  0  0  0  0  0  0  0  0  0
    3.2120   -3.7800    5.7140 N   0  0  0  0  0  0  0  0  0  0  0  0
    3.1130   -5.0070    6.1550 C   0  0  1  0  0  3  0  0  0  0  0  0
    2.9310   -5.3290    7.4250 N   0  0  0  0  0  0  0  0  0  0  0  0
    3.3500   -3.6320    4.7160 H   0  0  0  0  0  0  0  0  0  0  0  0
    2.8680   -6.3280    7.6390 H   0  0  0  0  0  0  0  0  0  0  0  0
    3.1980   -6.1540    5.1520 C   0  0  0  0  0  0  0  0  0  0  0  0
    2.3560   -7.2040    5.1350 C   0  0  0  0  0  0  0  0  0  0  0  0
    2.4440   -8.2450    4.0970 C   0  0  0  0  0  0  0  0  0  0  0  0
    1.5230   -9.2970    3.9670 C   0  0  0  0  0  3  0  0  0  0  0  0
    1.6780  -10.2480    2.9620 C   0  0  0  0  0  3  0  0  0  0  0  0
    2.7460  -10.1180    2.1020 C   0  0  0  0  0  3  0  0  0  0  0  0
    3.6330   -9.1060    2.1800 N   0  0  0  0  0  0  0  0  0  0  0  0
    3.4770   -8.1810    3.1510 C   0  0  0  0  0  0  0  0  0  0  0  0
    4.3830   -7.0930    3.1920 N   0  0  0  0  0  0  0  0  0  0  0  0
    4.2930   -6.0980    4.1350 C   0  0  0  0  0  0  0  0  0  0  0  0
    5.0720   -5.1440    4.2060 O   0  0  0  0  0  0  0  0  0  0  0  0
    1.3850   -7.3300    6.1240 O   0  0  0  0  0  0  0  0  0  0  0  0
    1.1080   -8.2670    6.1830 H   0  0  0  0  0  0  0  0  0  0  0  0
    5.4470   -7.0190    2.1800 C   0  0  0  0  0  2  0  0  0  0  0  0
    5.2530   -5.8700    1.1770 C   0  0  0  0  0  2  0  0  0  0  0  0
    5.3690   -6.2640   -0.3080 C   0  0  0  0  0  3  0  0  0  0  0  0
    6.6310   -5.6410   -0.9110 C   0  0  0  0  0  1  0  0  0  0  0  0
    5.4120   -7.7820   -0.4950 C   0  0  0  0  0  1  0  0  0  0  0  0
    2.3350   -1.8430   11.6900 O   0  0  0  0  0  0  0  0  0  0  0  0
    2.1300   -2.5220   12.9310 C   0  0  0  0  0  2  0  0  0  0  0  0
    1.2280   -0.3700   13.9170 C   0  0  0  0  0  1  0  0  0  0  0  0
    0.9780   -1.8520   13.6770 C   0  0  0  0  0  2  0  0  0  0  0  0
  1  2  1  0  0  0  0
  1 33  1  0  0  0  0
  3  2  2  0  0  0  0
  4  3  1  0  0  0  0
  5  4  2  0  0  0  0
  5  6  1  0  0  0  0
  6  1  2  0  0  0  0
  7  9  2  0  0  0  0
  7  5  1  0  0  0  0
  8  7  2  0  0  0  0
 10 11  1  0  0  0  0
 10  7  1  0  0  0  0
 11 15  1  6  0  0  0
 11 12  1  0  0  0  0
 12 14  1  0  0  0  0
 12  4  1  0  0  0  0
 13 10  1  0  0  0  0
 16 15  2  0  0  0  0
 16 26  1  0  0  0  0
 17 16  1  0  0  0  0
 18 17  1  0  0  0  0
 19 18  2  0  0  0  0
 20 21  2  0  0  0  0
 20 19  1  0  0  0  0
 21 22  1  0  0  0  0
 22 23  1  0  0  0  0
 22 17  2  0  0  0  0
 23 24  1  0  0  0  0
 24 25  2  0  0  0  0
 24 15  1  0  0  0  0
 26 27  1  0  0  0  0
 28 23  1  0  0  0  0
 29 28  1  0  0  0  0
 30 29  1  0  0  0  0
 31 30  1  0  0  0  0
 32 30  1  0  0  0  0
 33 34  1  0  0  0  0
 34 36  1  0  0  0  0
 36 35  1  0  0  0  0
M  END
>  <minimizedAffinity>
-7.31825399

$$$$
