
 OpenBabel09122222393D

 36 39  0  0  1  0  0  0  0  0999 V2000
    5.3240   -7.4470    1.9180 C   0  0  0  0  0  0  0  0  0  0  0  0
    4.5600   -8.6070    2.0700 C   0  0  0  0  0  3  0  0  0  0  0  0
    3.5360   -8.6750    3.0220 C   0  0  0  0  0  3  0  0  0  0  0  0
    3.2540   -7.5800    3.8430 C   0  0  0  0  0  0  0  0  0  0  0  0
    4.0170   -6.4400    3.6700 C   0  0  0  0  0  0  0  0  0  0  0  0
    5.0490   -6.3510    2.7240 C   0  0  0  0  0  3  0  0  0  0  0  0
    3.6640   -5.0710    4.6870 S   0  0  0  0  0  0  0  0  0  0  0  0
    4.8570   -4.8520    5.4730 O   0  0  0  0  0  0  0  0  0  0  0  0
    3.1650   -4.0470    3.7970 O   0  0  0  0  0  0  0  0  0  0  0  0
    2.4870   -5.5570    5.6410 N   0  0  0  0  0  0  0  0  0  0  0  0
    1.9220   -6.7350    5.6030 C   0  0  1  0  0  3  0  0  0  0  0  0
    2.2610   -7.6970    4.7600 N   0  0  0  0  0  0  0  0  0  0  0  0
    2.1580   -4.8820    6.3290 H   0  0  0  0  0  0  0  0  0  0  0  0
    1.7410   -8.5760    4.8350 H   0  0  0  0  0  0  0  0  0  0  0  0
    0.8060   -7.0430    6.5980 C   0  0  0  0  0  0  0  0  0  0  0  0
   -0.4540   -7.3550    6.2430 C   0  0  0  0  0  0  0  0  0  0  0  0
   -1.4710   -7.7110    7.2480 C   0  0  0  0  0  0  0  0  0  0  0  0
   -2.7640   -8.1530    6.9250 C   0  0  0  0  0  3  0  0  0  0  0  0
   -3.6730   -8.4660    7.9330 C   0  0  0  0  0  3  0  0  0  0  0  0
   -3.2620   -8.3390    9.2420 C   0  0  0  0  0  3  0  0  0  0  0  0
   -2.0200   -7.9450    9.5870 N   0  0  0  0  0  0  0  0  0  0  0  0
   -1.1390   -7.6490    8.6070 C   0  0  0  0  0  0  0  0  0  0  0  0
    0.1790   -7.2870    8.9800 N   0  0  0  0  0  0  0  0  0  0  0  0
    1.1460   -6.9830    8.0520 C   0  0  0  0  0  0  0  0  0  0  0  0
    2.2990   -6.6530    8.3430 O   0  0  0  0  0  0  0  0  0  0  0  0
   -0.8240   -7.3280    4.9020 O   0  0  0  0  0  0  0  0  0  0  0  0
   -1.7960   -7.2290    4.8390 H   0  0  0  0  0  0  0  0  0  0  0  0
    0.5280   -7.2500   10.4080 C   0  0  0  0  0  2  0  0  0  0  0  0
    0.4430   -5.8410   11.0170 C   0  0  0  0  0  2  0  0  0  0  0  0
    1.4280   -5.5590   12.1680 C   0  0  0  0  0  3  0  0  0  0  0  0
    2.8600   -5.5210   11.6240 C   0  0  0  0  0  1  0  0  0  0  0  0
    1.1180   -4.2390   12.8760 C   0  0  0  0  0  1  0  0  0  0  0  0
    6.2880   -7.5230    0.9590 O   0  0  0  0  0  0  0  0  0  0  0  0
    5.9090   -7.2460   -0.3920 C   0  0  0  0  0  2  0  0  0  0  0  0
    7.6580   -5.4430   -0.0620 C   0  0  0  0  0  1  0  0  0  0  0  0
    6.3560   -5.8310   -0.7500 C   0  0  0  0  0  2  0  0  0  0  0  0
  1  2  2  0  0  0  0
  1  6  1  0  0  0  0
  2  3  1  0  0  0  0
  3  4  2  0  0  0  0
  4 12  1  0  0  0  0
  5  4  1  0  0  0  0
  5  7  1  0  0  0  0
  6  5  2  0  0  0  0
  7  8  2  0  0  0  0
  7 10  1  0  0  0  0
  9  7  2  0  0  0  0
 10 13  1  0  0  0  0
 11 10  1  0  0  0  0
 11 15  1  1  0  0  0
 12 14  1  0  0  0  0
 12 11  1  0  0  0  0
 15 24  1  0  0  0  0
 16 15  2  0  0  0  0
 16 17  1  0  0  0  0
 17 22  1  0  0  0  0
 18 17  2  0  0  0  0
 18 19  1  0  0  0  0
 19 20  2  0  0  0  0
 20 21  1  0  0  0  0
 22 23  1  0  0  0  0
 22 21  2  0  0  0  0
 23 28  1  0  0  0  0
 24 25  2  0  0  0  0
 24 23  1  0  0  0  0
 26 16  1  0  0  0  0
 27 26  1  0  0  0  0
 28 29  1  0  0  0  0
 29 30  1  0  0  0  0
 30 32  1  0  0  0  0
 31 30  1  0  0  0  0
 33  1  1  0  0  0  0
 34 33  1  0  0  0  0
 36 34  1  0  0  0  0
 36 35  1  0  0  0  0
M  END
>  <minimizedAffinity>
-6.94938517

$$$$
