REMARK  Name = 
REMARK  5 active torsions:
REMARK  status: ('A' for Active; 'I' for Inactive)
REMARK    1  A    between atoms: C_1  and  C_2
REMARK    2  A    between atoms: C_4  and  C_5
REMARK    3  A    between atoms: C_7  and  C_8
REMARK    4  A    between atoms: C_8  and  C_10
REMARK    5  A    between atoms: C_13  and  C_14
REMARK                            x       y       z     vdW  Elec       q    Type
REMARK                         _______ _______ _______ _____ _____    ______ ____
ROOT
ATOM      1  C   UNL     1      -1.081   2.582  -0.977  0.00  0.00    -0.094 C 
ATOM      2  O   UNL     1      -0.775   2.811  -2.181  0.00  0.00    -0.873 OA
ATOM      3  C   UNL     1      -1.902   3.209  -0.101  0.00  0.00    +0.045 C 
ENDROOT
BRANCH   1   7
ATOM      4  C   UNL     1       2.423  -0.883   0.323  0.00  0.00    +0.086 C 
ATOM      5  C   UNL     1       1.224  -0.076   0.049  0.00  0.00    +0.103 A 
ATOM      6  C   UNL     1       1.028   1.164  -0.515  0.00  0.00    +0.052 A 
ATOM      7  C   UNL     1      -0.376   1.401  -0.510  0.00  0.00    +0.008 A 
ATOM      8  C   UNL     1      -0.943   0.270   0.056  0.00  0.00    +0.109 A 
ATOM      9  C   UNL     1      -2.336  -0.131   0.336  0.00  0.00    +0.087 C 
ATOM     10  O   UNL     1       0.029  -0.629   0.404  0.00  0.00    -0.465 OA
ENDBRANCH   1   7
BRANCH   3  11
ATOM     11  C   UNL     1      -2.769   4.429  -0.266  0.00  0.00    +0.201 C 
ATOM     12  O   UNL     1      -2.822   5.156  -1.256  0.00  0.00    -0.286 OA
BRANCH  11  13
ATOM     13  C   UNL     1      -3.690   4.833   0.930  0.00  0.00    +0.111 C 
ATOM     14  O   UNL     1      -3.749   4.019   1.919  0.00  0.00    -0.541 OA
ATOM     15  O   UNL     1      -4.327   5.940   0.869  0.00  0.00    -0.541 OA
ENDBRANCH  11  13
ENDBRANCH   3  11
TORSDOF 3
