REMARK  Name = 
REMARK  10 active torsions:
REMARK  status: ('A' for Active; 'I' for Inactive)
REMARK    1  A    between atoms: C_1  and  C_2
REMARK    2  A    between atoms: C_2  and  C_3
REMARK    3  A    between atoms: C_2  and  C_4
REMARK    4  A    between atoms: C_4  and  C_5
REMARK    5  A    between atoms: C_5  and  N_6
REMARK    6  A    between atoms: C_9  and  C_10
REMARK    7  A    between atoms: C_17  and  N_18
REMARK    8  A    between atoms: N_18  and  S_19
REMARK    9  A    between atoms: S_19  and  N_20
REMARK   10  A    between atoms: C_27  and  O_28
REMARK                            x       y       z     vdW  Elec       q    Type
REMARK                         _______ _______ _______ _____ _____    ______ ____
ROOT
ATOM      1  C   UNL     1      -2.142  -1.262   4.927  0.00  0.00    +0.308 C 
ATOM      2  N   UNL     1      -2.400  -2.478   4.449  0.00  0.00    -0.131 N 
ATOM      3  S   UNL     1      -2.709  -2.672   2.843  0.00  0.00    +0.141 S 
ATOM      4  O   UNL     1      -2.067  -3.878   2.370  0.00  0.00    -0.129 OA
ATOM      5  O   UNL     1      -4.095  -2.408   2.522  0.00  0.00    -0.129 OA
ATOM      6  C   UNL     1      -1.784  -1.300   2.207  0.00  0.00    +0.176 A 
ATOM      7  C   UNL     1      -0.298  -1.388   1.174  0.00  0.00    +0.059 A 
ATOM      8  C   UNL     1       0.726   0.083   0.959  0.00  0.00    +0.051 A 
ATOM      9  C   UNL     1       0.207   1.679   1.706  0.00  0.00    +0.028 A 
ATOM     10  C   UNL     1      -1.198   1.710   2.859  0.00  0.00    +0.053 A 
ATOM     11  C   UNL     1      -2.194   0.215   3.083  0.00  0.00    +0.148 A 
ATOM     12  N   UNL     1      -2.784  -0.098   4.363  0.00  0.00    -0.200 N 
ATOM     13  H   UNL     1      -1.829  -3.241   4.783  0.00  0.00    +0.339 HD
ATOM     14  H   UNL     1      -2.878   0.712   4.974  0.00  0.00    +0.298 HD
ENDROOT
BRANCH   1  18
ATOM     15  N   UNL     1      -0.150  -0.077   2.831  0.00  0.00    -0.292 N 
ATOM     16  C   UNL     1       0.012  -1.286   3.779  0.00  0.00    +0.271 A 
ATOM     17  O   UNL     1       0.300  -2.450   3.528  0.00  0.00    -0.267 OA
ATOM     18  C   UNL     1      -0.669  -0.974   5.103  0.00  0.00    +0.170 A 
ATOM     19  C   UNL     1      -0.152   0.115   5.687  0.00  0.00    +0.148 A 
ATOM     20  C   UNL     1       1.034   0.704   5.062  0.00  0.00    +0.060 A 
ATOM     21  C   UNL     1       2.088   1.235   5.808  0.00  0.00    +0.016 A 
ATOM     22  C   UNL     1       3.211   1.709   5.143  0.00  0.00    +0.021 A 
ATOM     23  C   UNL     1       3.243   1.628   3.762  0.00  0.00    +0.113 A 
ATOM     24  N   UNL     1       2.233   1.133   3.009  0.00  0.00    -0.237 NA
ATOM     25  C   UNL     1       1.105   0.701   3.641  0.00  0.00    +0.147 A 
BRANCH  19  26
ATOM     26  O   UNL     1      -0.815   0.823   6.663  0.00  0.00    -0.505 OA
ATOM     27  H   UNL     1      -0.301   1.620   6.892  0.00  0.00    +0.292 HD
ENDBRANCH  19  26
BRANCH  15  28
ATOM     28  C   UNL     1      -1.325   0.470   1.166  0.00  0.00    +0.127 C 
BRANCH  28  29
ATOM     29  C   UNL     1      -2.723   1.538   0.966  0.00  0.00    +0.025 C 
BRANCH  29  31
ATOM     30  C   UNL     1      -1.938   2.813  -1.129  0.00  0.00    +0.007 C 
ATOM     31  C   UNL     1      -2.456   2.920   0.308  0.00  0.00    -0.016 C 
ATOM     32  C   UNL     1      -3.756   3.734   0.310  0.00  0.00    +0.007 C 
ENDBRANCH  29  31
ENDBRANCH  28  29
ENDBRANCH  15  28
ENDBRANCH   1  18
BRANCH   8  33
ATOM     33  N   UNL     1       1.847   0.150   0.075  0.00  0.00    -0.207 N 
ATOM     34  H   UNL     1       2.557   0.753   0.499  0.00  0.00    +0.175 HD
BRANCH  33  35
ATOM     35  S   UNL     1       2.582  -1.277  -0.366  0.00  0.00    +0.107 S 
ATOM     36  O   UNL     1       3.375  -1.779   0.723  0.00  0.00    -0.138 OA
ATOM     37  O   UNL     1       1.671  -2.087  -1.133  0.00  0.00    -0.138 OA
BRANCH  35  38
ATOM     38  N   UNL     1       3.636  -0.622  -1.482  0.00  0.00    -0.191 NA
ATOM     39  H   UNL     1       4.366  -1.308  -1.682  0.00  0.00    +0.146 HD
ATOM     40  H   UNL     1       3.112  -0.408  -2.332  0.00  0.00    +0.146 HD
ENDBRANCH  35  38
ENDBRANCH  33  35
ENDBRANCH   8  33
TORSDOF 8
