
 OpenBabel09122220053D

 40 42  0  0  1  0  0  0  0  0999 V2000
    5.7280   -2.8130    6.5770 C   0  0  2  0  0  3  0  0  0  0  0  0
    6.7270   -3.3380    7.2840 N   0  0  0  0  0  0  0  0  0  0  0  0
    6.7940   -3.0840    8.9100 S   0  0  0  0  0  0  0  0  0  0  0  0
    7.2150   -4.2980    9.5720 O   0  0  0  0  0  0  0  0  0  0  0  0
    7.4200   -1.8200    9.2350 O   0  0  0  0  0  0  0  0  0  0  0  0
    5.0650   -2.8780    9.2380 C   0  0  0  0  0  0  0  0  0  0  0  0
    4.0120   -3.9920   10.2050 C   0  0  0  0  0  3  0  0  0  0  0  0
    2.2160   -3.8370   10.0980 C   0  0  0  0  0  0  0  0  0  0  0  0
    1.4700   -2.4950    9.0890 C   0  0  0  0  0  3  0  0  0  0  0  0
    2.5350   -1.4910    8.0110 C   0  0  0  0  0  3  0  0  0  0  0  0
    4.3320   -1.6830    8.1130 C   0  0  0  0  0  0  0  0  0  0  0  0
    5.1620   -1.5350    6.9410 N   0  0  0  0  0  0  0  0  0  0  0  0
    6.9970   -4.2890    7.0740 H   0  0  0  0  0  0  0  0  0  0  0  0
    4.7150   -1.0050    6.1940 H   0  0  0  0  0  0  0  0  0  0  0  0
    5.1650   -4.3660    3.9240 N   0  0  0  0  0  0  0  0  0  0  0  0
    4.1980   -3.5790    4.8370 C   0  0  0  0  0  0  0  0  0  0  0  0
    3.4330   -2.6610    4.5670 O   0  0  0  0  0  0  0  0  0  0  0  0
    4.6070   -3.7840    6.2870 C   0  0  1  0  0  3  0  0  0  0  0  0
    4.5860   -5.0770    6.6360 C   0  0  1  0  0  3  0  0  0  0  0  0
    4.0440   -6.0200    5.6550 C   0  0  1  0  0  3  0  0  0  0  0  0
    3.2580   -7.1140    6.0230 C   0  0  0  0  0  3  0  0  0  0  0  0
    2.7210   -7.9200    5.0290 C   0  0  0  0  0  3  0  0  0  0  0  0
    2.9810   -7.6010    3.7080 C   0  0  0  0  0  3  0  0  0  0  0  0
    3.7500   -6.5580    3.3180 N   0  0  0  0  0  0  0  0  0  0  0  0
    4.3210   -5.7790    4.2800 C   0  0  0  0  0  0  0  0  0  0  0  0
    5.2620   -5.5650    7.7310 O   0  0  0  0  0  0  0  0  0  0  0  0
    5.1810   -6.5370    7.7560 H   0  0  0  0  0  0  0  0  0  0  0  0
    6.8120   -3.9700    2.6650 C   0  0  0  0  0  1  0  0  0  0  0  0
    7.5820   -4.8770    1.3540 C   0  0  0  0  0  2  0  0  0  0  0  0
    6.5230   -6.0190   -0.6960 C   0  0  0  0  0  1  0  0  0  0  0  0
    6.8050   -6.1060    0.8060 C   0  0  0  0  0  3  0  0  0  0  0  0
    7.6160   -7.3760    1.0890 C   0  0  0  0  0  1  0  0  0  0  0  0
    1.3030   -4.5840   10.9050 N   0  0  0  0  0  0  0  0  0  0  0  0
    0.4030   -4.0970   10.9100 H   0  0  0  0  0  0  0  0  0  0  0  0
    1.0240   -6.1750   10.5030 S   0  0  0  0  0  0  0  0  0  0  0  0
    2.1400   -6.9870   10.9050 O   0  0  0  0  0  0  0  0  0  0  0  0
   -0.3510   -6.5170   10.7620 O   0  0  0  0  0  0  0  0  0  0  0  0
    1.1250   -5.9830    8.8480 N   0  0  0  0  0  0  0  0  0  0  0  0
    1.2420   -6.9030    8.4200 H   0  0  0  0  0  0  0  0  0  0  0  0
    0.2600   -5.5500    8.5210 H   0  0  0  0  0  0  0  0  0  0  0  0
  1 12  1  1  0  0  0
  1  2  1  0  0  0  0
  2  3  1  0  0  0  0
  3  5  2  0  0  0  0
  3  6  1  0  0  0  0
  3  4  2  0  0  0  0
  6  7  1  0  0  0  0
  8  7  2  0  0  0  0
  8 33  1  0  0  0  0
  9  8  1  0  0  0  0
 10 11  1  0  0  0  0
 10  9  2  0  0  0  0
 11  6  2  0  0  0  0
 12 11  1  0  0  0  0
 13  2  1  0  0  0  0
 14 12  1  0  0  0  0
 15 25  2  0  0  0  0
 15 16  1  0  0  0  0
 17 16  2  0  0  0  0
 18 16  1  6  0  0  0
 18  1  1  0  0  0  0
 18 19  1  0  0  0  0
 19 26  1  6  0  0  0
 20 21  1  6  0  0  0
 20 19  1  0  0  0  0
 22 21  2  0  0  0  0
 23 22  1  0  0  0  0
 24 23  2  0  0  0  0
 24 25  1  0  0  0  0
 25 20  1  0  0  0  0
 26 27  1  0  0  0  0
 29 28  1  0  0  0  0
 30 31  1  0  0  0  0
 31 32  1  0  0  0  0
 31 29  1  0  0  0  0
 33 34  1  0  0  0  0
 35 37  2  0  0  0  0
 35 33  1  0  0  0  0
 35 36  2  0  0  0  0
 38 35  1  0  0  0  0
 39 38  1  0  0  0  0
 40 38  1  0  0  0  0
M  END
>  <minimizedAffinity>
-6.54630232

$$$$

 OpenBabel09122220053D

 40 42  0  0  1  0  0  0  0  0999 V2000
    2.1370   -4.2620    9.6120 C   0  0  2  0  0  3  0  0  0  0  0  0
    1.6510   -3.0890    9.2080 N   0  0  0  0  0  0  0  0  0  0  0  0
    2.4590   -1.7030    9.5800 S   0  0  0  0  0  0  0  0  0  0  0  0
    2.4240   -0.8050    8.4480 O   0  0  0  0  0  0  0  0  0  0  0  0
    2.1290   -1.2220   10.9050 O   0  0  0  0  0  0  0  0  0  0  0  0
    4.1050   -2.3520    9.6860 C   0  0  0  0  0  0  0  0  0  0  0  0
    5.4840   -1.9780    8.5720 C   0  0  0  0  0  3  0  0  0  0  0  0
    6.9550   -3.0250    8.5920 C   0  0  0  0  0  0  0  0  0  0  0  0
    7.0850   -4.4000    9.8040 C   0  0  0  0  0  3  0  0  0  0  0  0
    5.6350   -4.8500   10.8030 C   0  0  0  0  0  3  0  0  0  0  0  0
    4.1590   -3.8030   10.7450 C   0  0  0  0  0  0  0  0  0  0  0  0
    2.8390   -4.3750   10.8690 N   0  0  0  0  0  0  0  0  0  0  0  0
    1.2900   -3.0330    8.2670 H   0  0  0  0  0  0  0  0  0  0  0  0
    2.8360   -5.2920   11.3120 H   0  0  0  0  0  0  0  0  0  0  0  0
    1.2890   -6.8300    8.0460 N   0  0  0  0  0  0  0  0  0  0  0  0
    2.6300   -6.4840    8.7310 C   0  0  0  0  0  0  0  0  0  0  0  0
    3.2630   -7.1010    9.5790 O   0  0  0  0  0  0  0  0  0  0  0  0
    2.9140   -5.0010    8.5470 C   0  0  1  0  0  3  0  0  0  0  0  0
    2.9800   -4.6610    7.2530 C   0  0  1  0  0  3  0  0  0  0  0  0
    2.9300   -5.7510    6.2760 C   0  0  1  0  0  3  0  0  0  0  0  0
    3.6990   -5.7490    5.1120 C   0  0  0  0  0  3  0  0  0  0  0  0
    3.6510   -6.8530    4.2710 C   0  0  0  0  0  3  0  0  0  0  0  0
    2.8440   -7.9190    4.6290 C   0  0  0  0  0  3  0  0  0  0  0  0
    2.0750   -7.9470    5.7420 N   0  0  0  0  0  0  0  0  0  0  0  0
    2.0770   -6.8550    6.5580 C   0  0  0  0  0  0  0  0  0  0  0  0
    2.8400   -3.3640    6.8150 O   0  0  0  0  0  0  0  0  0  0  0  0
    2.8400   -3.3480    5.8400 H   0  0  0  0  0  0  0  0  0  0  0  0
   -0.7100   -7.2100    8.6050 C   0  0  0  0  0  1  0  0  0  0  0  0
   -2.1710   -7.6090    7.6880 C   0  0  0  0  0  2  0  0  0  0  0  0
   -2.1890   -7.6640    5.1130 C   0  0  0  0  0  1  0  0  0  0  0  0
   -2.4060   -6.8180    6.3710 C   0  0  0  0  0  3  0  0  0  0  0  0
   -3.8400   -6.2740    6.3640 C   0  0  0  0  0  1  0  0  0  0  0  0
    8.1390   -2.7490    7.8410 N   0  0  0  0  0  0  0  0  0  0  0  0
    8.7610   -3.5590    7.9090 H   0  0  0  0  0  0  0  0  0  0  0  0
    7.9720   -2.3620    6.2310 S   0  0  0  0  0  0  0  0  0  0  0  0
    8.3850   -1.0040    6.0050 O   0  0  0  0  0  0  0  0  0  0  0  0
    8.3850   -3.4710    5.4100 O   0  0  0  0  0  0  0  0  0  0  0  0
    6.3030   -2.3830    6.1930 N   0  0  0  0  0  0  0  0  0  0  0  0
    5.9910   -1.9100    5.3430 H   0  0  0  0  0  0  0  0  0  0  0  0
    5.9940   -3.3560    6.1870 H   0  0  0  0  0  0  0  0  0  0  0  0
  1  2  1  6  0  0  0
  1 12  1  0  0  0  0
  2  3  1  0  0  0  0
  3  6  1  0  0  0  0
  3  5  2  0  0  0  0
  4  3  2  0  0  0  0
  6 11  1  0  0  0  0
  7  8  1  0  0  0  0
  7  6  2  0  0  0  0
  8  9  2  0  0  0  0
  9 10  1  0  0  0  0
 11 10  2  0  0  0  0
 11 12  1  0  0  0  0
 12 14  1  0  0  0  0
 13  2  1  0  0  0  0
 15 16  1  0  0  0  0
 16 17  2  0  0  0  0
 18 16  1  6  0  0  0
 18  1  1  0  0  0  0
 19 26  1  6  0  0  0
 19 18  1  0  0  0  0
 20 21  1  1  0  0  0
 20 25  1  0  0  0  0
 20 19  1  0  0  0  0
 22 23  1  0  0  0  0
 22 21  2  0  0  0  0
 23 24  2  0  0  0  0
 24 25  1  0  0  0  0
 25 15  2  0  0  0  0
 27 26  1  0  0  0  0
 29 28  1  0  0  0  0
 30 31  1  0  0  0  0
 31 29  1  0  0  0  0
 32 31  1  0  0  0  0
 33 34  1  0  0  0  0
 33  8  1  0  0  0  0
 35 33  1  0  0  0  0
 36 35  2  0  0  0  0
 37 35  2  0  0  0  0
 38 35  1  0  0  0  0
 39 38  1  0  0  0  0
 40 38  1  0  0  0  0
M  END
>  <minimizedAffinity>
-6.54404306

$$$$

 OpenBabel09122220053D

 40 42  0  0  1  0  0  0  0  0999 V2000
    4.3780   -5.9740    7.7310 C   0  0  2  0  0  3  0  0  0  0  0  0
    3.4610   -6.3810    8.6070 N   0  0  0  0  0  0  0  0  0  0  0  0
    3.7520   -6.2240   10.2200 S   0  0  0  0  0  0  0  0  0  0  0  0
    2.5420   -5.8060   10.8910 O   0  0  0  0  0  0  0  0  0  0  0  0
    4.5310   -7.3270   10.7400 O   0  0  0  0  0  0  0  0  0  0  0  0
    4.8410   -4.8260   10.1800 C   0  0  0  0  0  0  0  0  0  0  0  0
    4.4960   -3.1720   10.8360 C   0  0  0  0  0  3  0  0  0  0  0  0
    5.5470   -1.7860   10.3530 C   0  0  0  0  0  0  0  0  0  0  0  0
    7.0100   -2.0740    9.2810 C   0  0  0  0  0  3  0  0  0  0  0  0
    7.2480   -3.7040    8.5140 C   0  0  0  0  0  3  0  0  0  0  0  0
    6.1650   -5.0740    8.9900 C   0  0  0  0  0  0  0  0  0  0  0  0
    5.7860   -6.0870    8.0320 N   0  0  0  0  0  0  0  0  0  0  0  0
    2.4970   -6.1580    8.4090 H   0  0  0  0  0  0  0  0  0  0  0  0
    6.4190   -6.1480    7.2370 H   0  0  0  0  0  0  0  0  0  0  0  0
    3.6870   -5.2320    4.7750 N   0  0  0  0  0  0  0  0  0  0  0  0
    4.6930   -4.5810    5.7510 C   0  0  0  0  0  0  0  0  0  0  0  0
    5.8920   -4.3670    5.6190 O   0  0  0  0  0  0  0  0  0  0  0  0
    4.1080   -4.6030    7.1550 C   0  0  1  0  0  3  0  0  0  0  0  0
    2.9420   -3.9460    7.2220 C   0  0  1  0  0  3  0  0  0  0  0  0
    2.5240   -3.2130    6.0250 C   0  0  1  0  0  3  0  0  0  0  0  0
    1.8910   -1.9710    6.0910 C   0  0  0  0  0  3  0  0  0  0  0  0
    1.5900   -1.3050    4.9100 C   0  0  0  0  0  3  0  0  0  0  0  0
    1.9400   -1.9000    3.7100 C   0  0  0  0  0  3  0  0  0  0  0  0
    2.5400   -3.1090    3.6110 N   0  0  0  0  0  0  0  0  0  0  0  0
    2.8050   -3.7970    4.7580 C   0  0  0  0  0  0  0  0  0  0  0  0
    2.0370   -4.1350    8.2410 O   0  0  0  0  0  0  0  0  0  0  0  0
    1.2280   -3.6230    8.0550 H   0  0  0  0  0  0  0  0  0  0  0  0
    3.4380   -7.0670    3.7640 C   0  0  0  0  0  1  0  0  0  0  0  0
    4.0790   -7.7120    2.2450 C   0  0  0  0  0  2  0  0  0  0  0  0
    6.2170   -6.5540    1.3960 C   0  0  0  0  0  1  0  0  0  0  0  0
    4.6970   -6.6840    1.2570 C   0  0  0  0  0  3  0  0  0  0  0  0
    4.3620   -7.1070   -0.1790 C   0  0  0  0  0  1  0  0  0  0  0  0
    5.4320   -0.4720   10.9030 N   0  0  0  0  0  0  0  0  0  0  0  0
    6.2870    0.0460   10.6820 H   0  0  0  0  0  0  0  0  0  0  0  0
    4.1330    0.4600   10.4410 S   0  0  0  0  0  0  0  0  0  0  0  0
    2.9100   -0.1380   10.9020 O   0  0  0  0  0  0  0  0  0  0  0  0
    4.4470    1.8580   10.5910 O   0  0  0  0  0  0  0  0  0  0  0  0
    4.2430    0.1570    8.8030 N   0  0  0  0  0  0  0  0  0  0  0  0
    3.3640    0.4340    8.3610 H   0  0  0  0  0  0  0  0  0  0  0  0
    5.0150    0.7080    8.4260 H   0  0  0  0  0  0  0  0  0  0  0  0
  1 12  1  1  0  0  0
  1  2  1  0  0  0  0
  2  3  1  0  0  0  0
  3  5  2  0  0  0  0
  3  4  2  0  0  0  0
  6  3  1  0  0  0  0
  6  7  1  0  0  0  0
  8  7  2  0  0  0  0
  8 33  1  0  0  0  0
  9  8  1  0  0  0  0
 10 11  1  0  0  0  0
 10  9  2  0  0  0  0
 11  6  2  0  0  0  0
 12 11  1  0  0  0  0
 13  2  1  0  0  0  0
 14 12  1  0  0  0  0
 15 16  1  0  0  0  0
 17 16  2  0  0  0  0
 18 16  1  6  0  0  0
 18 19  1  0  0  0  0
 18  1  1  0  0  0  0
 19 26  1  6  0  0  0
 20 21  1  6  0  0  0
 20 19  1  0  0  0  0
 22 21  2  0  0  0  0
 23 22  1  0  0  0  0
 24 23  2  0  0  0  0
 24 25  1  0  0  0  0
 25 15  2  0  0  0  0
 25 20  1  0  0  0  0
 27 26  1  0  0  0  0
 29 28  1  0  0  0  0
 31 30  1  0  0  0  0
 31 29  1  0  0  0  0
 32 31  1  0  0  0  0
 34 33  1  0  0  0  0
 35 37  2  0  0  0  0
 35 36  2  0  0  0  0
 35 33  1  0  0  0  0
 38 35  1  0  0  0  0
 39 38  1  0  0  0  0
 40 38  1  0  0  0  0
M  END
>  <minimizedAffinity>
-5.78229618

$$$$

 OpenBabel09122220053D

 40 42  0  0  1  0  0  0  0  0999 V2000
    2.5320   -4.5330    6.5180 C   0  0  2  0  0  3  0  0  0  0  0  0
    2.5720   -5.8510    6.7040 N   0  0  0  0  0  0  0  0  0  0  0  0
    2.6610   -6.8540    5.4010 S   0  0  0  0  0  0  0  0  0  0  0  0
    3.5660   -7.9440    5.6920 O   0  0  0  0  0  0  0  0  0  0  0  0
    1.3580   -7.1180    4.8300 O   0  0  0  0  0  0  0  0  0  0  0  0
    3.4890   -5.7730    4.2650 C   0  0  0  0  0  0  0  0  0  0  0  0
    5.1640   -5.9810    3.6050 C   0  0  0  0  0  3  0  0  0  0  0  0
    5.9780   -4.5920    2.7890 C   0  0  0  0  0  0  0  0  0  0  0  0
    5.0730   -3.0120    2.5460 C   0  0  0  0  0  3  0  0  0  0  0  0
    3.4580   -2.7760    3.3460 C   0  0  0  0  0  3  0  0  0  0  0  0
    2.6720   -4.1740    4.1860 C   0  0  0  0  0  0  0  0  0  0  0  0
    1.8660   -3.9720    5.3660 N   0  0  0  0  0  0  0  0  0  0  0  0
    3.1620   -6.1990    7.4460 H   0  0  0  0  0  0  0  0  0  0  0  0
    1.5180   -3.0190    5.4600 H   0  0  0  0  0  0  0  0  0  0  0  0
    3.4250   -2.6110    8.8140 N   0  0  0  0  0  0  0  0  0  0  0  0
    3.5980   -2.4750    7.2850 C   0  0  0  0  0  0  0  0  0  0  0  0
    3.2660   -1.5670    6.5330 O   0  0  0  0  0  0  0  0  0  0  0  0
    3.8690   -3.8500    6.6920 C   0  0  1  0  0  3  0  0  0  0  0  0
    4.9690   -4.4110    7.2120 C   0  0  1  0  0  3  0  0  0  0  0  0
    5.7800   -3.5800    8.1050 C   0  0  1  0  0  3  0  0  0  0  0  0
    7.1750   -3.6230    8.1050 C   0  0  0  0  0  3  0  0  0  0  0  0
    7.8740   -2.7510    8.9300 C   0  0  0  0  0  3  0  0  0  0  0  0
    7.1560   -1.8670    9.7150 C   0  0  0  0  0  3  0  0  0  0  0  0
    5.8040   -1.8110    9.7490 N   0  0  0  0  0  0  0  0  0  0  0  0
    5.0990   -2.6860    8.9780 C   0  0  0  0  0  0  0  0  0  0  0  0
    5.2190   -5.7620    7.1450 O   0  0  0  0  0  0  0  0  0  0  0  0
    6.0260   -5.9690    7.6520 H   0  0  0  0  0  0  0  0  0  0  0  0
    1.8540   -2.6310   10.2240 C   0  0  0  0  0  1  0  0  0  0  0  0
    0.8520   -3.9210   10.9050 C   0  0  0  0  0  2  0  0  0  0  0  0
    2.3180   -5.9060   10.1680 C   0  0  0  0  0  1  0  0  0  0  0  0
    0.9120   -5.3000   10.1920 C   0  0  0  0  0  3  0  0  0  0  0  0
   -0.0380   -6.2720   10.9030 C   0  0  0  0  0  1  0  0  0  0  0  0
    7.2450   -4.6860    2.1340 N   0  0  0  0  0  0  0  0  0  0  0  0
    7.9400   -4.9950    2.8180 H   0  0  0  0  0  0  0  0  0  0  0  0
    7.3640   -5.6730    0.7990 S   0  0  0  0  0  0  0  0  0  0  0  0
    6.0540   -6.0760    0.3660 O   0  0  0  0  0  0  0  0  0  0  0  0
    8.3850   -5.1820   -0.0900 O   0  0  0  0  0  0  0  0  0  0  0  0
    8.0490   -6.9800    1.5780 N   0  0  0  0  0  0  0  0  0  0  0  0
    7.9620   -7.8010    0.9760 H   0  0  0  0  0  0  0  0  0  0  0  0
    9.0350   -6.7720    1.7490 H   0  0  0  0  0  0  0  0  0  0  0  0
  1 12  1  6  0  0  0
  1 18  1  0  0  0  0
  1  2  1  0  0  0  0
  2 13  1  0  0  0  0
  3  4  2  0  0  0  0
  3  2  1  0  0  0  0
  5  3  2  0  0  0  0
  6  3  1  0  0  0  0
  7  6  2  0  0  0  0
  8  7  1  0  0  0  0
  9  8  2  0  0  0  0
  9 10  1  0  0  0  0
 10 11  2  0  0  0  0
 11  6  1  0  0  0  0
 11 12  1  0  0  0  0
 12 14  1  0  0  0  0
 15 25  2  0  0  0  0
 16 15  1  0  0  0  0
 17 16  2  0  0  0  0
 18 19  1  0  0  0  0
 18 16  1  1  0  0  0
 19 26  1  1  0  0  0
 19 20  1  0  0  0  0
 20 21  1  6  0  0  0
 20 25  1  0  0  0  0
 21 22  2  0  0  0  0
 22 23  1  0  0  0  0
 23 24  2  0  0  0  0
 25 24  1  0  0  0  0
 26 27  1  0  0  0  0
 28 29  1  0  0  0  0
 30 31  1  0  0  0  0
 31 32  1  0  0  0  0
 31 29  1  0  0  0  0
 33  8  1  0  0  0  0
 33 34  1  0  0  0  0
 35 38  1  0  0  0  0
 35 33  1  0  0  0  0
 36 35  2  0  0  0  0
 37 35  2  0  0  0  0
 38 40  1  0  0  0  0
 39 38  1  0  0  0  0
M  END
>  <minimizedAffinity>
-5.75902796

$$$$

 OpenBabel09122220053D

 40 42  0  0  1  0  0  0  0  0999 V2000
    3.5110   -4.8740    9.7840 C   0  0  2  0  0  3  0  0  0  0  0  0
    4.4420   -5.6550    9.2400 N   0  0  0  0  0  0  0  0  0  0  0  0
    4.2080   -7.2850    9.1880 S   0  0  0  0  0  0  0  0  0  0  0  0
    4.6750   -7.8000    7.9210 O   0  0  0  0  0  0  0  0  0  0  0  0
    4.5950   -7.9270   10.4260 O   0  0  0  0  0  0  0  0  0  0  0  0
    2.4360   -7.3160    9.1480 C   0  0  0  0  0  0  0  0  0  0  0  0
    1.3990   -7.8700    7.7690 C   0  0  0  0  0  3  0  0  0  0  0  0
   -0.3590   -7.4600    7.7550 C   0  0  0  0  0  0  0  0  0  0  0  0
   -1.1040   -6.5700    9.1790 C   0  0  0  0  0  3  0  0  0  0  0  0
   -0.0230   -5.8930   10.4730 C   0  0  0  0  0  3  0  0  0  0  0  0
    1.7430   -6.2920   10.4520 C   0  0  0  0  0  0  0  0  0  0  0  0
    2.7250   -5.3350   10.9040 N   0  0  0  0  0  0  0  0  0  0  0  0
    4.8690   -5.3430    8.3800 H   0  0  0  0  0  0  0  0  0  0  0  0
    2.3390   -4.6180   11.5170 H   0  0  0  0  0  0  0  0  0  0  0  0
    3.2160   -1.8310    9.1350 N   0  0  0  0  0  0  0  0  0  0  0  0
    2.1300   -2.9030    9.3740 C   0  0  0  0  0  0  0  0  0  0  0  0
    1.1970   -2.9160   10.1690 O   0  0  0  0  0  0  0  0  0  0  0  0
    2.5940   -4.2230    8.7750 C   0  0  1  0  0  3  0  0  0  0  0  0
    2.8290   -4.1200    7.4600 C   0  0  1  0  0  3  0  0  0  0  0  0
    2.4640   -2.8560    6.8170 C   0  0  1  0  0  3  0  0  0  0  0  0
    1.9100   -2.8000    5.5370 C   0  0  0  0  0  3  0  0  0  0  0  0
    1.5220   -1.5690    5.0250 C   0  0  0  0  0  3  0  0  0  0  0  0
    1.6940   -0.4430    5.8120 C   0  0  0  0  0  3  0  0  0  0  0  0
    2.2410   -0.4620    7.0500 N   0  0  0  0  0  0  0  0  0  0  0  0
    2.6660   -1.6550    7.5530 C   0  0  0  0  0  0  0  0  0  0  0  0
    3.6030   -5.0230    6.7690 O   0  0  0  0  0  0  0  0  0  0  0  0
    3.7120   -4.7190    5.8480 H   0  0  0  0  0  0  0  0  0  0  0  0
    4.7340   -0.8590   10.2310 C   0  0  0  0  0  1  0  0  0  0  0  0
    6.5000   -0.8420   10.1040 C   0  0  0  0  0  2  0  0  0  0  0  0
    8.1520   -1.1980    8.1610 C   0  0  0  0  0  1  0  0  0  0  0  0
    7.1380   -1.8480    9.1060 C   0  0  0  0  0  3  0  0  0  0  0  0
    7.8360   -2.9620    9.8970 C   0  0  0  0  0  1  0  0  0  0  0  0
   -1.2820   -7.9470    6.7790 N   0  0  0  0  0  0  0  0  0  0  0  0
   -2.1970   -8.0520    7.2240 H   0  0  0  0  0  0  0  0  0  0  0  0
   -1.4870   -7.0600    5.3850 S   0  0  0  0  0  0  0  0  0  0  0  0
   -0.4260   -6.0990    5.2520 O   0  0  0  0  0  0  0  0  0  0  0  0
   -1.9320   -7.9150    4.3150 O   0  0  0  0  0  0  0  0  0  0  0  0
   -2.8470   -6.2270    5.8780 N   0  0  0  0  0  0  0  0  0  0  0  0
   -2.9830   -5.4280    5.2550 H   0  0  0  0  0  0  0  0  0  0  0  0
   -3.6480   -6.8570    5.8210 H   0  0  0  0  0  0  0  0  0  0  0  0
  1  2  1  6  0  0  0
  1 12  1  0  0  0  0
  3  2  1  0  0  0  0
  3  5  2  0  0  0  0
  4  3  2  0  0  0  0
  6  3  1  0  0  0  0
  6 11  1  0  0  0  0
  7  6  2  0  0  0  0
  8  7  1  0  0  0  0
  8  9  2  0  0  0  0
  9 10  1  0  0  0  0
 11 10  2  0  0  0  0
 11 12  1  0  0  0  0
 12 14  1  0  0  0  0
 13  2  1  0  0  0  0
 15 16  1  0  0  0  0
 16 17  2  0  0  0  0
 18 16  1  1  0  0  0
 18  1  1  0  0  0  0
 19 26  1  1  0  0  0
 19 18  1  0  0  0  0
 20 21  1  1  0  0  0
 20 19  1  0  0  0  0
 20 25  1  0  0  0  0
 22 21  2  0  0  0  0
 22 23  1  0  0  0  0
 23 24  2  0  0  0  0
 24 25  1  0  0  0  0
 25 15  2  0  0  0  0
 27 26  1  0  0  0  0
 29 28  1  0  0  0  0
 30 31  1  0  0  0  0
 31 32  1  0  0  0  0
 31 29  1  0  0  0  0
 33 34  1  0  0  0  0
 33  8  1  0  0  0  0
 35 38  1  0  0  0  0
 35 33  1  0  0  0  0
 36 35  2  0  0  0  0
 37 35  2  0  0  0  0
 39 38  1  0  0  0  0
 40 38  1  0  0  0  0
M  END
>  <minimizedAffinity>
-4.9823451

$$$$

 OpenBabel09122220053D

 40 42  0  0  1  0  0  0  0  0999 V2000
    2.6540   -4.4010    7.1180 C   0  0  2  0  0  3  0  0  0  0  0  0
    2.7390   -5.4710    7.9070 N   0  0  0  0  0  0  0  0  0  0  0  0
    2.4250   -6.9650    7.2890 S   0  0  0  0  0  0  0  0  0  0  0  0
    3.3670   -7.9190    7.8290 O   0  0  0  0  0  0  0  0  0  0  0  0
    1.0080   -7.2610    7.2800 O   0  0  0  0  0  0  0  0  0  0  0  0
    2.8790   -6.6760    5.6000 C   0  0  0  0  0  0  0  0  0  0  0  0
    4.2770   -7.4190    4.7170 C   0  0  0  0  0  3  0  0  0  0  0  0
    4.8170   -6.7110    3.1470 C   0  0  0  0  0  0  0  0  0  0  0  0
    3.8920   -5.3070    2.4070 C   0  0  0  0  0  3  0  0  0  0  0  0
    2.5940   -4.4830    3.3780 C   0  0  0  0  0  3  0  0  0  0  0  0
    2.0880   -5.1920    4.9640 C   0  0  0  0  0  0  0  0  0  0  0  0
    1.6750   -4.3450    6.0580 N   0  0  0  0  0  0  0  0  0  0  0  0
    3.5220   -5.5210    8.5420 H   0  0  0  0  0  0  0  0  0  0  0  0
    1.3780   -3.4170    5.7600 H   0  0  0  0  0  0  0  0  0  0  0  0
    4.0290   -1.6300    7.5570 N   0  0  0  0  0  0  0  0  0  0  0  0
    3.8420   -2.4490    6.2610 C   0  0  0  0  0  0  0  0  0  0  0  0
    3.3330   -2.1280    5.1930 O   0  0  0  0  0  0  0  0  0  0  0  0
    3.9860   -3.9290    6.5830 C   0  0  1  0  0  3  0  0  0  0  0  0
    5.1830   -4.2110    7.1130 C   0  0  1  0  0  3  0  0  0  0  0  0
    6.1680   -3.1280    7.1450 C   0  0  1  0  0  3  0  0  0  0  0  0
    7.5260   -3.3430    6.9030 C   0  0  0  0  0  3  0  0  0  0  0  0
    8.3850   -2.2530    6.8780 C   0  0  0  0  0  3  0  0  0  0  0  0
    7.8570   -0.9910    7.0870 C   0  0  0  0  0  3  0  0  0  0  0  0
    6.5490   -0.7500    7.3390 N   0  0  0  0  0  0  0  0  0  0  0  0
    5.6960   -1.8110    7.4080 C   0  0  0  0  0  0  0  0  0  0  0  0
    5.4280   -5.3580    7.8320 O   0  0  0  0  0  0  0  0  0  0  0  0
    6.3330   -5.3280    8.1940 H   0  0  0  0  0  0  0  0  0  0  0  0
    2.8270   -0.6080    8.9590 C   0  0  0  0  0  1  0  0  0  0  0  0
    3.1640    0.1400   10.5280 C   0  0  0  0  0  2  0  0  0  0  0  0
    5.4600   -0.9770   10.8640 C   0  0  0  0  0  1  0  0  0  0  0  0
    4.6600    0.3280   10.9040 C   0  0  0  0  0  3  0  0  0  0  0  0
    5.2960    1.3330    9.9360 C   0  0  0  0  0  1  0  0  0  0  0  0
    5.8270   -7.2900    2.3190 N   0  0  0  0  0  0  0  0  0  0  0  0
    5.3750   -7.9180    1.6490 H   0  0  0  0  0  0  0  0  0  0  0  0
    6.8250   -6.2640    1.4690 S   0  0  0  0  0  0  0  0  0  0  0  0
    6.4760   -6.2820    0.0740 O   0  0  0  0  0  0  0  0  0  0  0  0
    7.0530   -5.0580    2.2220 O   0  0  0  0  0  0  0  0  0  0  0  0
    8.2230   -7.1600    1.6380 N   0  0  0  0  0  0  0  0  0  0  0  0
    8.9080   -6.8270    0.9570 H   0  0  0  0  0  0  0  0  0  0  0  0
    8.5780   -7.0270    2.5870 H   0  0  0  0  0  0  0  0  0  0  0  0
  1 12  1  6  0  0  0
  1  2  1  0  0  0  0
  2 13  1  0  0  0  0
  3  4  2  0  0  0  0
  3  2  1  0  0  0  0
  5  3  2  0  0  0  0
  6  3  1  0  0  0  0
  7  6  2  0  0  0  0
  8  7  1  0  0  0  0
  9  8  2  0  0  0  0
  9 10  1  0  0  0  0
 10 11  2  0  0  0  0
 11  6  1  0  0  0  0
 11 12  1  0  0  0  0
 14 12  1  0  0  0  0
 16 15  1  0  0  0  0
 17 16  2  0  0  0  0
 18 16  1  1  0  0  0
 18 19  1  0  0  0  0
 18  1  1  0  0  0  0
 19 20  1  0  0  0  0
 19 26  1  1  0  0  0
 20 21  1  6  0  0  0
 20 25  1  0  0  0  0
 22 21  2  0  0  0  0
 22 23  1  0  0  0  0
 23 24  2  0  0  0  0
 24 25  1  0  0  0  0
 25 15  2  0  0  0  0
 26 27  1  0  0  0  0
 28 29  1  0  0  0  0
 29 31  1  0  0  0  0
 30 31  1  0  0  0  0
 32 31  1  0  0  0  0
 33  8  1  0  0  0  0
 34 33  1  0  0  0  0
 35 38  1  0  0  0  0
 35 37  2  0  0  0  0
 35 33  1  0  0  0  0
 36 35  2  0  0  0  0
 38 40  1  0  0  0  0
 39 38  1  0  0  0  0
M  END
>  <minimizedAffinity>
-3.87014794

$$$$
