
 OpenBabel09122222393D

 40 42  0  0  1  0  0  0  0  0999 V2000
    2.1370   -4.2620    9.6120 C   0  0  2  0  0  3  0  0  0  0  0  0
    1.6510   -3.0890    9.2080 N   0  0  0  0  0  0  0  0  0  0  0  0
    2.4590   -1.7030    9.5800 S   0  0  0  0  0  0  0  0  0  0  0  0
    2.4240   -0.8050    8.4480 O   0  0  0  0  0  0  0  0  0  0  0  0
    2.1290   -1.2220   10.9050 O   0  0  0  0  0  0  0  0  0  0  0  0
    4.1050   -2.3520    9.6860 C   0  0  0  0  0  0  0  0  0  0  0  0
    5.4840   -1.9780    8.5720 C   0  0  0  0  0  3  0  0  0  0  0  0
    6.9550   -3.0250    8.5920 C   0  0  0  0  0  0  0  0  0  0  0  0
    7.0850   -4.4000    9.8040 C   0  0  0  0  0  3  0  0  0  0  0  0
    5.6350   -4.8500   10.8030 C   0  0  0  0  0  3  0  0  0  0  0  0
    4.1590   -3.8030   10.7450 C   0  0  0  0  0  0  0  0  0  0  0  0
    2.8390   -4.3750   10.8690 N   0  0  0  0  0  0  0  0  0  0  0  0
    1.2900   -3.0330    8.2670 H   0  0  0  0  0  0  0  0  0  0  0  0
    2.8360   -5.2920   11.3120 H   0  0  0  0  0  0  0  0  0  0  0  0
    1.2890   -6.8300    8.0460 N   0  0  0  0  0  0  0  0  0  0  0  0
    2.6300   -6.4840    8.7310 C   0  0  0  0  0  0  0  0  0  0  0  0
    3.2630   -7.1010    9.5790 O   0  0  0  0  0  0  0  0  0  0  0  0
    2.9140   -5.0010    8.5470 C   0  0  1  0  0  3  0  0  0  0  0  0
    2.9800   -4.6610    7.2530 C   0  0  1  0  0  3  0  0  0  0  0  0
    2.9300   -5.7510    6.2760 C   0  0  1  0  0  3  0  0  0  0  0  0
    3.6990   -5.7490    5.1120 C   0  0  0  0  0  3  0  0  0  0  0  0
    3.6510   -6.8530    4.2710 C   0  0  0  0  0  3  0  0  0  0  0  0
    2.8440   -7.9190    4.6290 C   0  0  0  0  0  3  0  0  0  0  0  0
    2.0750   -7.9470    5.7420 N   0  0  0  0  0  0  0  0  0  0  0  0
    2.0770   -6.8550    6.5580 C   0  0  0  0  0  0  0  0  0  0  0  0
    2.8400   -3.3640    6.8150 O   0  0  0  0  0  0  0  0  0  0  0  0
    2.8400   -3.3480    5.8400 H   0  0  0  0  0  0  0  0  0  0  0  0
   -0.7100   -7.2100    8.6050 C   0  0  0  0  0  1  0  0  0  0  0  0
   -2.1710   -7.6090    7.6880 C   0  0  0  0  0  2  0  0  0  0  0  0
   -2.1890   -7.6640    5.1130 C   0  0  0  0  0  1  0  0  0  0  0  0
   -2.4060   -6.8180    6.3710 C   0  0  0  0  0  3  0  0  0  0  0  0
   -3.8400   -6.2740    6.3640 C   0  0  0  0  0  1  0  0  0  0  0  0
    8.1390   -2.7490    7.8410 N   0  0  0  0  0  0  0  0  0  0  0  0
    8.7610   -3.5590    7.9090 H   0  0  0  0  0  0  0  0  0  0  0  0
    7.9720   -2.3620    6.2310 S   0  0  0  0  0  0  0  0  0  0  0  0
    8.3850   -1.0040    6.0050 O   0  0  0  0  0  0  0  0  0  0  0  0
    8.3850   -3.4710    5.4100 O   0  0  0  0  0  0  0  0  0  0  0  0
    6.3030   -2.3830    6.1930 N   0  0  0  0  0  0  0  0  0  0  0  0
    5.9910   -1.9100    5.3430 H   0  0  0  0  0  0  0  0  0  0  0  0
    5.9940   -3.3560    6.1870 H   0  0  0  0  0  0  0  0  0  0  0  0
  1  2  1  6  0  0  0
  1 12  1  0  0  0  0
  2  3  1  0  0  0  0
  3  6  1  0  0  0  0
  3  5  2  0  0  0  0
  4  3  2  0  0  0  0
  6 11  1  0  0  0  0
  7  8  1  0  0  0  0
  7  6  2  0  0  0  0
  8  9  2  0  0  0  0
  9 10  1  0  0  0  0
 11 10  2  0  0  0  0
 11 12  1  0  0  0  0
 12 14  1  0  0  0  0
 13  2  1  0  0  0  0
 15 16  1  0  0  0  0
 16 17  2  0  0  0  0
 18 16  1  6  0  0  0
 18  1  1  0  0  0  0
 19 26  1  6  0  0  0
 19 18  1  0  0  0  0
 20 21  1  1  0  0  0
 20 25  1  0  0  0  0
 20 19  1  0  0  0  0
 22 23  1  0  0  0  0
 22 21  2  0  0  0  0
 23 24  2  0  0  0  0
 24 25  1  0  0  0  0
 25 15  2  0  0  0  0
 27 26  1  0  0  0  0
 29 28  1  0  0  0  0
 30 31  1  0  0  0  0
 31 29  1  0  0  0  0
 32 31  1  0  0  0  0
 33 34  1  0  0  0  0
 33  8  1  0  0  0  0
 35 33  1  0  0  0  0
 36 35  2  0  0  0  0
 37 35  2  0  0  0  0
 38 35  1  0  0  0  0
 39 38  1  0  0  0  0
 40 38  1  0  0  0  0
M  END
>  <minimizedAffinity>
-6.54404306

$$$$
