
 OpenBabel09122222393D

 40 42  0  0  1  0  0  0  0  0999 V2000
    5.7280   -2.8130    6.5770 C   0  0  2  0  0  3  0  0  0  0  0  0
    6.7270   -3.3380    7.2840 N   0  0  0  0  0  0  0  0  0  0  0  0
    6.7940   -3.0840    8.9100 S   0  0  0  0  0  0  0  0  0  0  0  0
    7.2150   -4.2980    9.5720 O   0  0  0  0  0  0  0  0  0  0  0  0
    7.4200   -1.8200    9.2350 O   0  0  0  0  0  0  0  0  0  0  0  0
    5.0650   -2.8780    9.2380 C   0  0  0  0  0  0  0  0  0  0  0  0
    4.0120   -3.9920   10.2050 C   0  0  0  0  0  3  0  0  0  0  0  0
    2.2160   -3.8370   10.0980 C   0  0  0  0  0  0  0  0  0  0  0  0
    1.4700   -2.4950    9.0890 C   0  0  0  0  0  3  0  0  0  0  0  0
    2.5350   -1.4910    8.0110 C   0  0  0  0  0  3  0  0  0  0  0  0
    4.3320   -1.6830    8.1130 C   0  0  0  0  0  0  0  0  0  0  0  0
    5.1620   -1.5350    6.9410 N   0  0  0  0  0  0  0  0  0  0  0  0
    6.9970   -4.2890    7.0740 H   0  0  0  0  0  0  0  0  0  0  0  0
    4.7150   -1.0050    6.1940 H   0  0  0  0  0  0  0  0  0  0  0  0
    5.1650   -4.3660    3.9240 N   0  0  0  0  0  0  0  0  0  0  0  0
    4.1980   -3.5790    4.8370 C   0  0  0  0  0  0  0  0  0  0  0  0
    3.4330   -2.6610    4.5670 O   0  0  0  0  0  0  0  0  0  0  0  0
    4.6070   -3.7840    6.2870 C   0  0  1  0  0  3  0  0  0  0  0  0
    4.5860   -5.0770    6.6360 C   0  0  1  0  0  3  0  0  0  0  0  0
    4.0440   -6.0200    5.6550 C   0  0  1  0  0  3  0  0  0  0  0  0
    3.2580   -7.1140    6.0230 C   0  0  0  0  0  3  0  0  0  0  0  0
    2.7210   -7.9200    5.0290 C   0  0  0  0  0  3  0  0  0  0  0  0
    2.9810   -7.6010    3.7080 C   0  0  0  0  0  3  0  0  0  0  0  0
    3.7500   -6.5580    3.3180 N   0  0  0  0  0  0  0  0  0  0  0  0
    4.3210   -5.7790    4.2800 C   0  0  0  0  0  0  0  0  0  0  0  0
    5.2620   -5.5650    7.7310 O   0  0  0  0  0  0  0  0  0  0  0  0
    5.1810   -6.5370    7.7560 H   0  0  0  0  0  0  0  0  0  0  0  0
    6.8120   -3.9700    2.6650 C   0  0  0  0  0  1  0  0  0  0  0  0
    7.5820   -4.8770    1.3540 C   0  0  0  0  0  2  0  0  0  0  0  0
    6.5230   -6.0190   -0.6960 C   0  0  0  0  0  1  0  0  0  0  0  0
    6.8050   -6.1060    0.8060 C   0  0  0  0  0  3  0  0  0  0  0  0
    7.6160   -7.3760    1.0890 C   0  0  0  0  0  1  0  0  0  0  0  0
    1.3030   -4.5840   10.9050 N   0  0  0  0  0  0  0  0  0  0  0  0
    0.4030   -4.0970   10.9100 H   0  0  0  0  0  0  0  0  0  0  0  0
    1.0240   -6.1750   10.5030 S   0  0  0  0  0  0  0  0  0  0  0  0
    2.1400   -6.9870   10.9050 O   0  0  0  0  0  0  0  0  0  0  0  0
   -0.3510   -6.5170   10.7620 O   0  0  0  0  0  0  0  0  0  0  0  0
    1.1250   -5.9830    8.8480 N   0  0  0  0  0  0  0  0  0  0  0  0
    1.2420   -6.9030    8.4200 H   0  0  0  0  0  0  0  0  0  0  0  0
    0.2600   -5.5500    8.5210 H   0  0  0  0  0  0  0  0  0  0  0  0
  1 12  1  1  0  0  0
  1  2  1  0  0  0  0
  2  3  1  0  0  0  0
  3  5  2  0  0  0  0
  3  6  1  0  0  0  0
  3  4  2  0  0  0  0
  6  7  1  0  0  0  0
  8  7  2  0  0  0  0
  8 33  1  0  0  0  0
  9  8  1  0  0  0  0
 10 11  1  0  0  0  0
 10  9  2  0  0  0  0
 11  6  2  0  0  0  0
 12 11  1  0  0  0  0
 13  2  1  0  0  0  0
 14 12  1  0  0  0  0
 15 25  2  0  0  0  0
 15 16  1  0  0  0  0
 17 16  2  0  0  0  0
 18 16  1  6  0  0  0
 18  1  1  0  0  0  0
 18 19  1  0  0  0  0
 19 26  1  6  0  0  0
 20 21  1  6  0  0  0
 20 19  1  0  0  0  0
 22 21  2  0  0  0  0
 23 22  1  0  0  0  0
 24 23  2  0  0  0  0
 24 25  1  0  0  0  0
 25 20  1  0  0  0  0
 26 27  1  0  0  0  0
 29 28  1  0  0  0  0
 30 31  1  0  0  0  0
 31 32  1  0  0  0  0
 31 29  1  0  0  0  0
 33 34  1  0  0  0  0
 35 37  2  0  0  0  0
 35 33  1  0  0  0  0
 35 36  2  0  0  0  0
 38 35  1  0  0  0  0
 39 38  1  0  0  0  0
 40 38  1  0  0  0  0
M  END
>  <minimizedAffinity>
-6.54630232

$$$$
