MODEL 1
REMARK VINA RESULT:      -8.1      0.000      0.000
REMARK  Name = 
REMARK  7 active torsions:
REMARK  status: ('A' for Active; 'I' for Inactive)
REMARK    1  A    between atoms: C_6  and  C_10
REMARK    2  A    between atoms: N_17  and  C_20
REMARK    3  A    between atoms: C_19  and  C_21
REMARK    4  A    between atoms: C_20  and  C_22
REMARK    5  A    between atoms: C_21  and  C_23
REMARK    6  A    between atoms: C_21  and  C_24
REMARK    7  A    between atoms: C_21  and  C_25
REMARK                            x       y       z     vdW  Elec       q    Type
REMARK                         _______ _______ _______ _____ _____    ______ ____
ROOT
ATOM      1  C   UNL     1     -12.287  54.483  50.089  0.00  0.00    +0.000 C 
ATOM      2  C   UNL     1     -12.014  54.157  48.685  0.00  0.00    +0.000 C 
ATOM      3  C   UNL     1     -11.755  53.488  50.801  0.00  0.00    +0.000 C 
ATOM      4  O   UNL     1     -12.494  54.781  47.749  0.00  0.00    +0.000 OA
ATOM      5  N   UNL     1     -11.168  53.068  48.647  0.00  0.00    +0.000 N 
ATOM      6  O   UNL     1     -11.845  53.376  52.171  0.00  0.00    +0.000 OA
ATOM      7  C   UNL     1     -10.979  52.462  49.979  0.00  0.00    +0.000 C 
ENDROOT
BRANCH   1  13
ATOM      8  S   UNL     1     -14.435  56.892  52.273  0.00  0.00    +0.000 S 
ATOM      9  O   UNL     1     -13.609  57.364  53.368  0.00  0.00    +0.000 OA
ATOM     10  O   UNL     1     -15.829  56.554  52.506  0.00  0.00    +0.000 OA
ATOM     11  N   UNL     1     -13.715  55.586  51.624  0.00  0.00    +0.000 N 
ATOM     12  C   UNL     1     -14.437  58.173  51.071  0.00  0.00    +0.000 A 
ATOM     13  C   UNL     1     -13.017  55.706  50.535  0.00  0.00    +0.000 C 
ATOM     14  C   UNL     1     -13.633  58.002  49.955  0.00  0.00    +0.000 A 
ATOM     15  C   UNL     1     -15.222  59.312  51.260  0.00  0.00    +0.000 A 
ATOM     16  N   UNL     1     -12.880  56.847  49.781  0.00  0.00    +0.000 N 
ATOM     17  C   UNL     1     -13.627  59.011  48.985  0.00  0.00    +0.000 A 
ATOM     18  C   UNL     1     -15.207  60.312  50.287  0.00  0.00    +0.000 A 
ATOM     19  C   UNL     1     -14.413  60.159  49.150  0.00  0.00    +0.000 A 
ATOM     20  H   UNL     1     -13.807  54.706  52.055  0.00  0.00    +0.000 HD
ATOM     21  H   UNL     1     -12.201  56.846  49.068  0.00  0.00    +0.000 HD
ENDBRANCH   1  13
BRANCH   7  22
ATOM     22  C   UNL     1      -9.486  52.241  50.441  0.00  0.00    +0.000 C 
ATOM     23  C   UNL     1      -9.404  51.508  51.805  0.00  0.00    +0.000 C 
ATOM     24  C   UNL     1      -8.708  51.329  49.470  0.00  0.00    +0.000 C 
ATOM     25  C   UNL     1      -8.736  53.581  50.576  0.00  0.00    +0.000 C 
ENDBRANCH   7  22
BRANCH   5  26
ATOM     26  C   UNL     1     -10.826  52.477  47.362  0.00  0.00    +0.000 C 
BRANCH  26  27
ATOM     27  C   UNL     1      -9.771  53.220  46.589  0.00  0.00    +0.000 A 
ATOM     28  C   UNL     1      -9.533  52.903  45.244  0.00  0.00    +0.000 A 
ATOM     29  C   UNL     1      -9.063  54.282  47.170  0.00  0.00    +0.000 A 
ATOM     30  C   UNL     1      -8.595  53.620  44.501  0.00  0.00    +0.000 A 
ATOM     31  C   UNL     1      -8.127  54.999  46.423  0.00  0.00    +0.000 A 
ATOM     32  C   UNL     1      -7.892  54.666  45.091  0.00  0.00    +0.000 A 
ENDBRANCH  26  27
ENDBRANCH   5  26
TORSDOF 4
ENDMDL
MODEL 2
REMARK VINA RESULT:      -8.1      2.367      3.981
REMARK  Name = 
REMARK  7 active torsions:
REMARK  status: ('A' for Active; 'I' for Inactive)
REMARK    1  A    between atoms: C_6  and  C_10
REMARK    2  A    between atoms: N_17  and  C_20
REMARK    3  A    between atoms: C_19  and  C_21
REMARK    4  A    between atoms: C_20  and  C_22
REMARK    5  A    between atoms: C_21  and  C_23
REMARK    6  A    between atoms: C_21  and  C_24
REMARK    7  A    between atoms: C_21  and  C_25
REMARK                            x       y       z     vdW  Elec       q    Type
REMARK                         _______ _______ _______ _____ _____    ______ ____
ROOT
ATOM      1  C   UNL     1     -11.478  55.798  48.900  0.00  0.00    +0.000 C 
ATOM      2  C   UNL     1     -10.574  54.949  49.685  0.00  0.00    +0.000 C 
ATOM      3  C   UNL     1     -11.275  55.462  47.625  0.00  0.00    +0.000 C 
ATOM      4  O   UNL     1     -10.390  55.099  50.885  0.00  0.00    +0.000 OA
ATOM      5  N   UNL     1     -10.009  54.018  48.839  0.00  0.00    +0.000 N 
ATOM      6  O   UNL     1     -11.885  56.072  46.552  0.00  0.00    +0.000 OA
ATOM      7  C   UNL     1     -10.315  54.292  47.422  0.00  0.00    +0.000 C 
ENDROOT
BRANCH   1  13
ATOM      8  S   UNL     1     -13.481  59.101  49.418  0.00  0.00    +0.000 S 
ATOM      9  O   UNL     1     -14.574  59.118  48.465  0.00  0.00    +0.000 OA
ATOM     10  O   UNL     1     -12.740  60.320  49.697  0.00  0.00    +0.000 OA
ATOM     11  N   UNL     1     -12.409  57.976  48.936  0.00  0.00    +0.000 N 
ATOM     12  C   UNL     1     -14.170  58.585  50.948  0.00  0.00    +0.000 A 
ATOM     13  C   UNL     1     -12.405  56.805  49.497  0.00  0.00    +0.000 C 
ATOM     14  C   UNL     1     -13.946  57.273  51.339  0.00  0.00    +0.000 A 
ATOM     15  C   UNL     1     -14.915  59.478  51.720  0.00  0.00    +0.000 A 
ATOM     16  N   UNL     1     -13.179  56.412  50.563  0.00  0.00    +0.000 N 
ATOM     17  C   UNL     1     -14.484  56.847  52.558  0.00  0.00    +0.000 A 
ATOM     18  C   UNL     1     -15.447  59.041  52.933  0.00  0.00    +0.000 A 
ATOM     19  C   UNL     1     -15.229  57.729  53.352  0.00  0.00    +0.000 A 
ATOM     20  H   UNL     1     -11.765  58.181  48.221  0.00  0.00    +0.000 HD
ATOM     21  H   UNL     1     -13.192  55.454  50.792  0.00  0.00    +0.000 HD
ENDBRANCH   1  13
BRANCH   7  22
ATOM     22  C   UNL     1     -10.911  53.089  46.591  0.00  0.00    +0.000 C 
ATOM     23  C   UNL     1     -11.365  53.532  45.176  0.00  0.00    +0.000 C 
ATOM     24  C   UNL     1      -9.861  51.990  46.328  0.00  0.00    +0.000 C 
ATOM     25  C   UNL     1     -12.124  52.460  47.303  0.00  0.00    +0.000 C 
ENDBRANCH   7  22
BRANCH   5  26
ATOM     26  C   UNL     1      -8.988  53.117  49.353  0.00  0.00    +0.000 C 
BRANCH  26  27
ATOM     27  C   UNL     1      -7.577  53.618  49.211  0.00  0.00    +0.000 A 
ATOM     28  C   UNL     1      -6.991  54.366  50.241  0.00  0.00    +0.000 A 
ATOM     29  C   UNL     1      -6.803  53.288  48.088  0.00  0.00    +0.000 A 
ATOM     30  C   UNL     1      -5.666  54.791  50.144  0.00  0.00    +0.000 A 
ATOM     31  C   UNL     1      -5.476  53.713  47.996  0.00  0.00    +0.000 A 
ATOM     32  C   UNL     1      -4.910  54.467  49.023  0.00  0.00    +0.000 A 
ENDBRANCH  26  27
ENDBRANCH   5  26
TORSDOF 4
ENDMDL
MODEL 3
REMARK VINA RESULT:      -8.0      3.163      7.755
REMARK  Name = 
REMARK  7 active torsions:
REMARK  status: ('A' for Active; 'I' for Inactive)
REMARK    1  A    between atoms: C_6  and  C_10
REMARK    2  A    between atoms: N_17  and  C_20
REMARK    3  A    between atoms: C_19  and  C_21
REMARK    4  A    between atoms: C_20  and  C_22
REMARK    5  A    between atoms: C_21  and  C_23
REMARK    6  A    between atoms: C_21  and  C_24
REMARK    7  A    between atoms: C_21  and  C_25
REMARK                            x       y       z     vdW  Elec       q    Type
REMARK                         _______ _______ _______ _____ _____    ______ ____
ROOT
ATOM      1  C   UNL     1     -10.763  55.131  47.760  0.00  0.00    +0.000 C 
ATOM      2  C   UNL     1     -12.219  55.316  47.736  0.00  0.00    +0.000 C 
ATOM      3  C   UNL     1     -10.361  55.579  48.950  0.00  0.00    +0.000 C 
ATOM      4  O   UNL     1     -12.897  55.149  46.732  0.00  0.00    +0.000 OA
ATOM      5  N   UNL     1     -12.629  55.699  48.995  0.00  0.00    +0.000 N 
ATOM      6  O   UNL     1      -9.047  55.644  49.355  0.00  0.00    +0.000 OA
ATOM      7  C   UNL     1     -11.492  56.000  49.886  0.00  0.00    +0.000 C 
ENDROOT
BRANCH   1  13
ATOM      8  S   UNL     1      -7.836  54.463  45.276  0.00  0.00    +0.000 S 
ATOM      9  O   UNL     1      -6.823  53.691  45.971  0.00  0.00    +0.000 OA
ATOM     10  O   UNL     1      -7.443  55.528  44.370  0.00  0.00    +0.000 OA
ATOM     11  N   UNL     1      -8.832  55.107  46.389  0.00  0.00    +0.000 N 
ATOM     12  C   UNL     1      -8.754  53.316  44.314  0.00  0.00    +0.000 A 
ATOM     13  C   UNL     1      -9.978  54.547  46.633  0.00  0.00    +0.000 C 
ATOM     14  C   UNL     1     -10.001  52.938  44.790  0.00  0.00    +0.000 A 
ATOM     15  C   UNL     1      -8.225  52.814  43.124  0.00  0.00    +0.000 A 
ATOM     16  N   UNL     1     -10.514  53.471  45.966  0.00  0.00    +0.000 N 
ATOM     17  C   UNL     1     -10.747  52.028  44.033  0.00  0.00    +0.000 A 
ATOM     18  C   UNL     1      -8.978  51.907  42.378  0.00  0.00    +0.000 A 
ATOM     19  C   UNL     1     -10.239  51.518  42.831  0.00  0.00    +0.000 A 
ATOM     20  H   UNL     1      -8.567  55.919  46.877  0.00  0.00    +0.000 HD
ATOM     21  H   UNL     1     -11.317  53.048  46.349  0.00  0.00    +0.000 HD
ENDBRANCH   1  13
BRANCH   7  22
ATOM     22  C   UNL     1     -11.491  55.273  51.288  0.00  0.00    +0.000 C 
ATOM     23  C   UNL     1     -10.076  55.239  51.921  0.00  0.00    +0.000 C 
ATOM     24  C   UNL     1     -12.356  56.017  52.326  0.00  0.00    +0.000 C 
ATOM     25  C   UNL     1     -11.992  53.821  51.167  0.00  0.00    +0.000 C 
ENDBRANCH   7  22
BRANCH   5  26
ATOM     26  C   UNL     1     -14.025  56.050  49.213  0.00  0.00    +0.000 C 
BRANCH  26  27
ATOM     27  C   UNL     1     -14.257  57.476  49.633  0.00  0.00    +0.000 A 
ATOM     28  C   UNL     1     -14.996  57.755  50.791  0.00  0.00    +0.000 A 
ATOM     29  C   UNL     1     -13.683  58.541  48.923  0.00  0.00    +0.000 A 
ATOM     30  C   UNL     1     -15.173  59.070  51.221  0.00  0.00    +0.000 A 
ATOM     31  C   UNL     1     -13.860  59.856  49.358  0.00  0.00    +0.000 A 
ATOM     32  C   UNL     1     -14.607  60.119  50.504  0.00  0.00    +0.000 A 
ENDBRANCH  26  27
ENDBRANCH   5  26
TORSDOF 4
ENDMDL
MODEL 4
REMARK VINA RESULT:      -8.0      1.894      2.613
REMARK  Name = 
REMARK  7 active torsions:
REMARK  status: ('A' for Active; 'I' for Inactive)
REMARK    1  A    between atoms: C_6  and  C_10
REMARK    2  A    between atoms: N_17  and  C_20
REMARK    3  A    between atoms: C_19  and  C_21
REMARK    4  A    between atoms: C_20  and  C_22
REMARK    5  A    between atoms: C_21  and  C_23
REMARK    6  A    between atoms: C_21  and  C_24
REMARK    7  A    between atoms: C_21  and  C_25
REMARK                            x       y       z     vdW  Elec       q    Type
REMARK                         _______ _______ _______ _____ _____    ______ ____
ROOT
ATOM      1  C   UNL     1     -10.942  54.961  50.332  0.00  0.00    +0.000 C 
ATOM      2  C   UNL     1     -10.650  54.087  49.190  0.00  0.00    +0.000 C 
ATOM      3  C   UNL     1      -9.994  54.704  51.236  0.00  0.00    +0.000 C 
ATOM      4  O   UNL     1     -11.408  53.954  48.239  0.00  0.00    +0.000 OA
ATOM      5  N   UNL     1      -9.428  53.484  49.405  0.00  0.00    +0.000 N 
ATOM      6  O   UNL     1      -9.939  55.271  52.489  0.00  0.00    +0.000 OA
ATOM      7  C   UNL     1      -8.915  53.732  50.765  0.00  0.00    +0.000 C 
ENDROOT
BRANCH   1  13
ATOM      8  S   UNL     1     -13.759  57.387  49.165  0.00  0.00    +0.000 S 
ATOM      9  O   UNL     1     -14.848  56.590  48.635  0.00  0.00    +0.000 OA
ATOM     10  O   UNL     1     -13.375  58.624  48.506  0.00  0.00    +0.000 OA
ATOM     11  N   UNL     1     -12.436  56.444  49.247  0.00  0.00    +0.000 N 
ATOM     12  C   UNL     1     -14.223  57.828  50.801  0.00  0.00    +0.000 A 
ATOM     13  C   UNL     1     -12.088  55.915  50.381  0.00  0.00    +0.000 C 
ATOM     14  C   UNL     1     -13.631  57.129  51.842  0.00  0.00    +0.000 A 
ATOM     15  C   UNL     1     -15.157  58.842  51.017  0.00  0.00    +0.000 A 
ATOM     16  N   UNL     1     -12.685  56.141  51.599  0.00  0.00    +0.000 N 
ATOM     17  C   UNL     1     -13.986  57.471  53.152  0.00  0.00    +0.000 A 
ATOM     18  C   UNL     1     -15.504  59.173  52.327  0.00  0.00    +0.000 A 
ATOM     19  C   UNL     1     -14.916  58.490  53.392  0.00  0.00    +0.000 A 
ATOM     20  H   UNL     1     -11.901  56.274  48.440  0.00  0.00    +0.000 HD
ATOM     21  H   UNL     1     -12.424  55.561  52.351  0.00  0.00    +0.000 HD
ENDBRANCH   1  13
BRANCH   7  22
ATOM     22  C   UNL     1      -7.440  54.288  50.865  0.00  0.00    +0.000 C 
ATOM     23  C   UNL     1      -6.975  54.434  52.337  0.00  0.00    +0.000 C 
ATOM     24  C   UNL     1      -6.414  53.324  50.235  0.00  0.00    +0.000 C 
ATOM     25  C   UNL     1      -7.313  55.666  50.188  0.00  0.00    +0.000 C 
ENDBRANCH   7  22
BRANCH   5  26
ATOM     26  C   UNL     1      -8.954  52.482  48.462  0.00  0.00    +0.000 C 
BRANCH  26  27
ATOM     27  C   UNL     1      -8.676  53.001  47.078  0.00  0.00    +0.000 A 
ATOM     28  C   UNL     1      -9.254  52.377  45.964  0.00  0.00    +0.000 A 
ATOM     29  C   UNL     1      -7.900  54.153  46.881  0.00  0.00    +0.000 A 
ATOM     30  C   UNL     1      -9.047  52.882  44.680  0.00  0.00    +0.000 A 
ATOM     31  C   UNL     1      -7.697  54.657  45.595  0.00  0.00    +0.000 A 
ATOM     32  C   UNL     1      -8.269  54.019  44.496  0.00  0.00    +0.000 A 
ENDBRANCH  26  27
ENDBRANCH   5  26
TORSDOF 4
ENDMDL
MODEL 5
REMARK VINA RESULT:      -7.9      2.226      3.200
REMARK  Name = 
REMARK  7 active torsions:
REMARK  status: ('A' for Active; 'I' for Inactive)
REMARK    1  A    between atoms: C_6  and  C_10
REMARK    2  A    between atoms: N_17  and  C_20
REMARK    3  A    between atoms: C_19  and  C_21
REMARK    4  A    between atoms: C_20  and  C_22
REMARK    5  A    between atoms: C_21  and  C_23
REMARK    6  A    between atoms: C_21  and  C_24
REMARK    7  A    between atoms: C_21  and  C_25
REMARK                            x       y       z     vdW  Elec       q    Type
REMARK                         _______ _______ _______ _____ _____    ______ ____
ROOT
ATOM      1  C   UNL     1     -11.658  55.611  48.845  0.00  0.00    +0.000 C 
ATOM      2  C   UNL     1     -11.515  55.400  47.400  0.00  0.00    +0.000 C 
ATOM      3  C   UNL     1     -10.877  54.696  49.423  0.00  0.00    +0.000 C 
ATOM      4  O   UNL     1     -12.210  55.970  46.570  0.00  0.00    +0.000 OA
ATOM      5  N   UNL     1     -10.507  54.482  47.192  0.00  0.00    +0.000 N 
ATOM      6  O   UNL     1     -10.772  54.509  50.783  0.00  0.00    +0.000 OA
ATOM      7  C   UNL     1     -10.050  53.861  48.449  0.00  0.00    +0.000 C 
ENDROOT
BRANCH   1  13
ATOM      8  S   UNL     1     -13.474  59.015  49.392  0.00  0.00    +0.000 S 
ATOM      9  O   UNL     1     -14.573  59.095  48.450  0.00  0.00    +0.000 OA
ATOM     10  O   UNL     1     -12.666  60.191  49.668  0.00  0.00    +0.000 OA
ATOM     11  N   UNL     1     -12.469  57.836  48.897  0.00  0.00    +0.000 N 
ATOM     12  C   UNL     1     -14.176  58.532  50.927  0.00  0.00    +0.000 A 
ATOM     13  C   UNL     1     -12.523  56.664  49.454  0.00  0.00    +0.000 C 
ATOM     14  C   UNL     1     -14.020  57.208  51.311  0.00  0.00    +0.000 A 
ATOM     15  C   UNL     1     -14.865  59.460  51.708  0.00  0.00    +0.000 A 
ATOM     16  N   UNL     1     -13.308  56.310  50.526  0.00  0.00    +0.000 N 
ATOM     17  C   UNL     1     -14.569  56.808  52.534  0.00  0.00    +0.000 A 
ATOM     18  C   UNL     1     -15.409  59.049  52.925  0.00  0.00    +0.000 A 
ATOM     19  C   UNL     1     -15.258  57.725  53.338  0.00  0.00    +0.000 A 
ATOM     20  H   UNL     1     -11.822  58.009  48.176  0.00  0.00    +0.000 HD
ATOM     21  H   UNL     1     -13.371  55.354  50.751  0.00  0.00    +0.000 HD
ENDBRANCH   1  13
BRANCH   7  22
ATOM     22  C   UNL     1      -8.494  53.888  48.717  0.00  0.00    +0.000 C 
ATOM     23  C   UNL     1      -8.150  53.507  50.180  0.00  0.00    +0.000 C 
ATOM     24  C   UNL     1      -7.741  52.846  47.864  0.00  0.00    +0.000 C 
ATOM     25  C   UNL     1      -7.901  55.283  48.439  0.00  0.00    +0.000 C 
ENDBRANCH   7  22
BRANCH   5  26
ATOM     26  C   UNL     1     -10.236  54.018  45.840  0.00  0.00    +0.000 C 
BRANCH  26  27
ATOM     27  C   UNL     1     -10.658  52.601  45.564  0.00  0.00    +0.000 A 
ATOM     28  C   UNL     1      -9.774  51.715  44.933  0.00  0.00    +0.000 A 
ATOM     29  C   UNL     1     -11.904  52.122  45.994  0.00  0.00    +0.000 A 
ATOM     30  C   UNL     1     -10.134  50.384  44.719  0.00  0.00    +0.000 A 
ATOM     31  C   UNL     1     -12.260  50.789  45.782  0.00  0.00    +0.000 A 
ATOM     32  C   UNL     1     -11.376  49.922  45.142  0.00  0.00    +0.000 A 
ENDBRANCH  26  27
ENDBRANCH   5  26
TORSDOF 4
ENDMDL
MODEL 6
REMARK VINA RESULT:      -7.8      3.030      4.564
REMARK  Name = 
REMARK  7 active torsions:
REMARK  status: ('A' for Active; 'I' for Inactive)
REMARK    1  A    between atoms: C_6  and  C_10
REMARK    2  A    between atoms: N_17  and  C_20
REMARK    3  A    between atoms: C_19  and  C_21
REMARK    4  A    between atoms: C_20  and  C_22
REMARK    5  A    between atoms: C_21  and  C_23
REMARK    6  A    between atoms: C_21  and  C_24
REMARK    7  A    between atoms: C_21  and  C_25
REMARK                            x       y       z     vdW  Elec       q    Type
REMARK                         _______ _______ _______ _____ _____    ______ ____
ROOT
ATOM      1  C   UNL     1     -10.885  54.886  50.682  0.00  0.00    +0.000 C 
ATOM      2  C   UNL     1      -9.469  55.256  50.578  0.00  0.00    +0.000 C 
ATOM      3  C   UNL     1     -10.904  53.556  50.783  0.00  0.00    +0.000 C 
ATOM      4  O   UNL     1      -9.092  56.391  50.320  0.00  0.00    +0.000 OA
ATOM      5  N   UNL     1      -8.707  54.130  50.808  0.00  0.00    +0.000 N 
ATOM      6  O   UNL     1     -12.051  52.795  50.838  0.00  0.00    +0.000 OA
ATOM      7  C   UNL     1      -9.526  52.905  50.874  0.00  0.00    +0.000 C 
ENDROOT
BRANCH   1  13
ATOM      8  S   UNL     1     -13.523  57.440  49.379  0.00  0.00    +0.000 S 
ATOM      9  O   UNL     1     -14.578  56.699  48.715  0.00  0.00    +0.000 OA
ATOM     10  O   UNL     1     -13.050  58.694  48.816  0.00  0.00    +0.000 OA
ATOM     11  N   UNL     1     -12.237  56.457  49.537  0.00  0.00    +0.000 N 
ATOM     12  C   UNL     1     -14.125  57.821  50.984  0.00  0.00    +0.000 A 
ATOM     13  C   UNL     1     -12.008  55.869  50.671  0.00  0.00    +0.000 C 
ATOM     14  C   UNL     1     -13.649  57.060  52.041  0.00  0.00    +0.000 A 
ATOM     15  C   UNL     1     -15.051  58.850  51.162  0.00  0.00    +0.000 A 
ATOM     16  N   UNL     1     -12.709  56.057  51.839  0.00  0.00    +0.000 N 
ATOM     17  C   UNL     1     -14.115  57.353  53.328  0.00  0.00    +0.000 A 
ATOM     18  C   UNL     1     -15.509  59.132  52.449  0.00  0.00    +0.000 A 
ATOM     19  C   UNL     1     -15.039  58.386  53.530  0.00  0.00    +0.000 A 
ATOM     20  H   UNL     1     -11.633  56.308  48.774  0.00  0.00    +0.000 HD
ATOM     21  H   UNL     1     -12.533  55.436  52.584  0.00  0.00    +0.000 HD
ENDBRANCH   1  13
BRANCH   7  22
ATOM     22  C   UNL     1      -9.313  51.988  52.142  0.00  0.00    +0.000 C 
ATOM     23  C   UNL     1     -10.180  50.704  52.080  0.00  0.00    +0.000 C 
ATOM     24  C   UNL     1      -7.865  51.467  52.242  0.00  0.00    +0.000 C 
ATOM     25  C   UNL     1      -9.665  52.737  53.441  0.00  0.00    +0.000 C 
ENDBRANCH   7  22
BRANCH   5  26
ATOM     26  C   UNL     1      -7.261  54.207  50.659  0.00  0.00    +0.000 C 
BRANCH  26  27
ATOM     27  C   UNL     1      -6.508  54.457  51.936  0.00  0.00    +0.000 A 
ATOM     28  C   UNL     1      -5.155  54.108  52.034  0.00  0.00    +0.000 A 
ATOM     29  C   UNL     1      -7.120  55.106  53.019  0.00  0.00    +0.000 A 
ATOM     30  C   UNL     1      -4.432  54.384  53.195  0.00  0.00    +0.000 A 
ATOM     31  C   UNL     1      -6.393  55.384  54.179  0.00  0.00    +0.000 A 
ATOM     32  C   UNL     1      -5.051  55.019  54.266  0.00  0.00    +0.000 A 
ENDBRANCH  26  27
ENDBRANCH   5  26
TORSDOF 4
ENDMDL
MODEL 7
REMARK VINA RESULT:      -7.8      1.663      2.334
REMARK  Name = 
REMARK  7 active torsions:
REMARK  status: ('A' for Active; 'I' for Inactive)
REMARK    1  A    between atoms: C_6  and  C_10
REMARK    2  A    between atoms: N_17  and  C_20
REMARK    3  A    between atoms: C_19  and  C_21
REMARK    4  A    between atoms: C_20  and  C_22
REMARK    5  A    between atoms: C_21  and  C_23
REMARK    6  A    between atoms: C_21  and  C_24
REMARK    7  A    between atoms: C_21  and  C_25
REMARK                            x       y       z     vdW  Elec       q    Type
REMARK                         _______ _______ _______ _____ _____    ______ ____
ROOT
ATOM      1  C   UNL     1     -11.328  54.894  49.467  0.00  0.00    +0.000 C 
ATOM      2  C   UNL     1     -11.545  53.700  48.641  0.00  0.00    +0.000 C 
ATOM      3  C   UNL     1     -10.022  54.914  49.738  0.00  0.00    +0.000 C 
ATOM      4  O   UNL     1     -12.657  53.291  48.337  0.00  0.00    +0.000 OA
ATOM      5  N   UNL     1     -10.315  53.170  48.312  0.00  0.00    +0.000 N 
ATOM      6  O   UNL     1      -9.409  55.844  50.547  0.00  0.00    +0.000 OA
ATOM      7  C   UNL     1      -9.212  53.822  49.043  0.00  0.00    +0.000 C 
ENDROOT
BRANCH   1  13
ATOM      8  S   UNL     1     -14.687  56.235  50.920  0.00  0.00    +0.000 S 
ATOM      9  O   UNL     1     -14.588  56.222  52.367  0.00  0.00    +0.000 OA
ATOM     10  O   UNL     1     -15.926  55.839  50.272  0.00  0.00    +0.000 OA
ATOM     11  N   UNL     1     -13.500  55.296  50.324  0.00  0.00    +0.000 N 
ATOM     12  C   UNL     1     -14.381  57.890  50.421  0.00  0.00    +0.000 A 
ATOM     13  C   UNL     1     -12.412  55.839  49.869  0.00  0.00    +0.000 C 
ATOM     14  C   UNL     1     -13.130  58.178  49.896  0.00  0.00    +0.000 A 
ATOM     15  C   UNL     1     -15.373  58.862  50.563  0.00  0.00    +0.000 A 
ATOM     16  N   UNL     1     -12.169  57.186  49.743  0.00  0.00    +0.000 N 
ATOM     17  C   UNL     1     -12.871  59.492  49.489  0.00  0.00    +0.000 A 
ATOM     18  C   UNL     1     -15.103  60.168  50.155  0.00  0.00    +0.000 A 
ATOM     19  C   UNL     1     -13.855  60.481  49.616  0.00  0.00    +0.000 A 
ATOM     20  H   UNL     1     -13.605  54.317  50.309  0.00  0.00    +0.000 HD
ATOM     21  H   UNL     1     -11.249  57.467  49.531  0.00  0.00    +0.000 HD
ENDBRANCH   1  13
BRANCH   7  22
ATOM     22  C   UNL     1      -8.010  54.351  48.167  0.00  0.00    +0.000 C 
ATOM     23  C   UNL     1      -7.034  55.229  48.994  0.00  0.00    +0.000 C 
ATOM     24  C   UNL     1      -7.131  53.201  47.635  0.00  0.00    +0.000 C 
ATOM     25  C   UNL     1      -8.510  55.191  46.976  0.00  0.00    +0.000 C 
ENDBRANCH   7  22
BRANCH   5  26
ATOM     26  C   UNL     1     -10.255  51.914  47.580  0.00  0.00    +0.000 C 
BRANCH  26  27
ATOM     27  C   UNL     1     -10.106  52.060  46.090  0.00  0.00    +0.000 A 
ATOM     28  C   UNL     1      -9.184  51.265  45.395  0.00  0.00    +0.000 A 
ATOM     29  C   UNL     1     -10.930  52.933  45.364  0.00  0.00    +0.000 A 
ATOM     30  C   UNL     1      -9.074  51.353  44.007  0.00  0.00    +0.000 A 
ATOM     31  C   UNL     1     -10.819  53.017  43.975  0.00  0.00    +0.000 A 
ATOM     32  C   UNL     1      -9.890  52.229  43.299  0.00  0.00    +0.000 A 
ENDBRANCH  26  27
ENDBRANCH   5  26
TORSDOF 4
ENDMDL
MODEL 8
REMARK VINA RESULT:      -7.6      3.554      6.855
REMARK  Name = 
REMARK  7 active torsions:
REMARK  status: ('A' for Active; 'I' for Inactive)
REMARK    1  A    between atoms: C_6  and  C_10
REMARK    2  A    between atoms: N_17  and  C_20
REMARK    3  A    between atoms: C_19  and  C_21
REMARK    4  A    between atoms: C_20  and  C_22
REMARK    5  A    between atoms: C_21  and  C_23
REMARK    6  A    between atoms: C_21  and  C_24
REMARK    7  A    between atoms: C_21  and  C_25
REMARK                            x       y       z     vdW  Elec       q    Type
REMARK                         _______ _______ _______ _____ _____    ______ ____
ROOT
ATOM      1  C   UNL     1      -9.332  54.677  51.368  0.00  0.00    +0.000 C 
ATOM      2  C   UNL     1      -8.863  54.802  49.983  0.00  0.00    +0.000 C 
ATOM      3  C   UNL     1     -10.504  55.313  51.412  0.00  0.00    +0.000 C 
ATOM      4  O   UNL     1      -7.744  54.461  49.623  0.00  0.00    +0.000 OA
ATOM      5  N   UNL     1      -9.877  55.354  49.228  0.00  0.00    +0.000 N 
ATOM      6  O   UNL     1     -11.254  55.487  52.553  0.00  0.00    +0.000 OA
ATOM      7  C   UNL     1     -10.998  55.827  50.062  0.00  0.00    +0.000 C 
ENDROOT
BRANCH   1  13
ATOM      8  S   UNL     1      -6.431  53.602  53.738  0.00  0.00    +0.000 S 
ATOM      9  O   UNL     1      -6.263  54.636  54.741  0.00  0.00    +0.000 OA
ATOM     10  O   UNL     1      -5.266  52.959  53.154  0.00  0.00    +0.000 OA
ATOM     11  N   UNL     1      -7.313  54.220  52.518  0.00  0.00    +0.000 N 
ATOM     12  C   UNL     1      -7.366  52.325  54.499  0.00  0.00    +0.000 A 
ATOM     13  C   UNL     1      -8.582  53.960  52.441  0.00  0.00    +0.000 C 
ATOM     14  C   UNL     1      -8.711  52.239  54.176  0.00  0.00    +0.000 A 
ATOM     15  C   UNL     1      -6.755  51.447  55.397  0.00  0.00    +0.000 A 
ATOM     16  N   UNL     1      -9.288  53.111  53.260  0.00  0.00    +0.000 N 
ATOM     17  C   UNL     1      -9.469  51.224  54.770  0.00  0.00    +0.000 A 
ATOM     18  C   UNL     1      -7.521  50.440  55.984  0.00  0.00    +0.000 A 
ATOM     19  C   UNL     1      -8.875  50.327  55.668  0.00  0.00    +0.000 A 
ATOM     20  H   UNL     1      -6.885  54.790  51.840  0.00  0.00    +0.000 HD
ATOM     21  H   UNL     1     -10.271  53.122  53.194  0.00  0.00    +0.000 HD
ENDBRANCH   1  13
BRANCH   7  22
ATOM     22  C   UNL     1     -12.436  55.319  49.651  0.00  0.00    +0.000 C 
ATOM     23  C   UNL     1     -13.466  55.509  50.795  0.00  0.00    +0.000 C 
ATOM     24  C   UNL     1     -13.021  56.126  48.474  0.00  0.00    +0.000 C 
ATOM     25  C   UNL     1     -12.417  53.826  49.273  0.00  0.00    +0.000 C 
ENDBRANCH   7  22
BRANCH   5  26
ATOM     26  C   UNL     1      -9.627  55.681  47.832  0.00  0.00    +0.000 C 
BRANCH  26  27
ATOM     27  C   UNL     1     -10.042  54.618  46.853  0.00  0.00    +0.000 A 
ATOM     28  C   UNL     1      -9.382  53.382  46.837  0.00  0.00    +0.000 A 
ATOM     29  C   UNL     1     -11.134  54.813  45.994  0.00  0.00    +0.000 A 
ATOM     30  C   UNL     1      -9.791  52.369  45.970  0.00  0.00    +0.000 A 
ATOM     31  C   UNL     1     -11.543  53.796  45.130  0.00  0.00    +0.000 A 
ATOM     32  C   UNL     1     -10.870  52.577  45.117  0.00  0.00    +0.000 A 
ENDBRANCH  26  27
ENDBRANCH   5  26
TORSDOF 4
ENDMDL
MODEL 9
REMARK VINA RESULT:      -7.6      3.430      7.778
REMARK  Name = 
REMARK  7 active torsions:
REMARK  status: ('A' for Active; 'I' for Inactive)
REMARK    1  A    between atoms: C_6  and  C_10
REMARK    2  A    between atoms: N_17  and  C_20
REMARK    3  A    between atoms: C_19  and  C_21
REMARK    4  A    between atoms: C_20  and  C_22
REMARK    5  A    between atoms: C_21  and  C_23
REMARK    6  A    between atoms: C_21  and  C_24
REMARK    7  A    between atoms: C_21  and  C_25
REMARK                            x       y       z     vdW  Elec       q    Type
REMARK                         _______ _______ _______ _____ _____    ______ ____
ROOT
ATOM      1  C   UNL     1      -9.656  53.780  50.216  0.00  0.00    +0.000 C 
ATOM      2  C   UNL     1     -10.153  55.130  50.505  0.00  0.00    +0.000 C 
ATOM      3  C   UNL     1     -10.384  53.338  49.189  0.00  0.00    +0.000 C 
ATOM      4  O   UNL     1      -9.809  55.773  51.487  0.00  0.00    +0.000 OA
ATOM      5  N   UNL     1     -11.035  55.491  49.508  0.00  0.00    +0.000 N 
ATOM      6  O   UNL     1     -10.279  52.078  48.645  0.00  0.00    +0.000 OA
ATOM      7  C   UNL     1     -11.355  54.365  48.610  0.00  0.00    +0.000 C 
ENDROOT
BRANCH   1  13
ATOM      8  S   UNL     1      -7.689  51.126  52.284  0.00  0.00    +0.000 S 
ATOM      9  O   UNL     1      -7.299  50.056  51.387  0.00  0.00    +0.000 OA
ATOM     10  O   UNL     1      -8.150  50.818  53.627  0.00  0.00    +0.000 OA
ATOM     11  N   UNL     1      -8.852  51.998  51.554  0.00  0.00    +0.000 N 
ATOM     12  C   UNL     1      -6.273  52.148  52.475  0.00  0.00    +0.000 A 
ATOM     13  C   UNL     1      -8.551  53.119  50.971  0.00  0.00    +0.000 C 
ATOM     14  C   UNL     1      -6.250  53.343  51.772  0.00  0.00    +0.000 A 
ATOM     15  C   UNL     1      -5.224  51.747  53.303  0.00  0.00    +0.000 A 
ATOM     16  N   UNL     1      -7.319  53.729  50.973  0.00  0.00    +0.000 N 
ATOM     17  C   UNL     1      -5.131  54.171  51.917  0.00  0.00    +0.000 A 
ATOM     18  C   UNL     1      -4.114  52.581  53.439  0.00  0.00    +0.000 A 
ATOM     19  C   UNL     1      -4.069  53.792  52.748  0.00  0.00    +0.000 A 
ATOM     20  H   UNL     1      -9.782  51.678  51.553  0.00  0.00    +0.000 HD
ATOM     21  H   UNL     1      -7.185  54.493  50.365  0.00  0.00    +0.000 HD
ENDBRANCH   1  13
BRANCH   7  22
ATOM     22  C   UNL     1     -11.183  54.634  47.064  0.00  0.00    +0.000 C 
ATOM     23  C   UNL     1     -11.616  53.413  46.212  0.00  0.00    +0.000 C 
ATOM     24  C   UNL     1     -12.087  55.783  46.572  0.00  0.00    +0.000 C 
ATOM     25  C   UNL     1      -9.719  54.964  46.711  0.00  0.00    +0.000 C 
ENDBRANCH   7  22
BRANCH   5  26
ATOM     26  C   UNL     1     -11.753  56.753  49.616  0.00  0.00    +0.000 C 
BRANCH  26  27
ATOM     27  C   UNL     1     -13.095  56.657  50.290  0.00  0.00    +0.000 A 
ATOM     28  C   UNL     1     -13.195  56.803  51.680  0.00  0.00    +0.000 A 
ATOM     29  C   UNL     1     -14.269  56.495  49.540  0.00  0.00    +0.000 A 
ATOM     30  C   UNL     1     -14.439  56.769  52.310  0.00  0.00    +0.000 A 
ATOM     31  C   UNL     1     -15.513  56.465  50.173  0.00  0.00    +0.000 A 
ATOM     32  C   UNL     1     -15.596  56.598  51.558  0.00  0.00    +0.000 A 
ENDBRANCH  26  27
ENDBRANCH   5  26
TORSDOF 4
ENDMDL
