MODEL 1
REMARK VINA RESULT:      -7.9      0.000      0.000
REMARK  Name = 
REMARK  8 active torsions:
REMARK  status: ('A' for Active; 'I' for Inactive)
REMARK    1  A    between atoms: C_6  and  C_10
REMARK    2  A    between atoms: N_17  and  C_20
REMARK    3  A    between atoms: C_19  and  C_21
REMARK    4  A    between atoms: C_20  and  C_22
REMARK    5  A    between atoms: C_21  and  C_23
REMARK    6  A    between atoms: C_21  and  C_24
REMARK    7  A    between atoms: C_21  and  C_25
REMARK    8  A    between atoms: C_22  and  C_26
REMARK                            x       y       z     vdW  Elec       q    Type
REMARK                         _______ _______ _______ _____ _____    ______ ____
ROOT
ATOM      1  C   UNL     1     -10.727  55.255  47.778  0.00  0.00    +0.000 C 
ATOM      2  C   UNL     1     -12.115  55.702  47.633  0.00  0.00    +0.000 C 
ATOM      3  C   UNL     1     -10.353  55.607  49.014  0.00  0.00    +0.000 C 
ATOM      4  O   UNL     1     -12.750  55.586  46.596  0.00  0.00    +0.000 OA
ATOM      5  N   UNL     1     -12.519  56.261  48.827  0.00  0.00    +0.000 N 
ATOM      6  O   UNL     1      -9.094  55.430  49.537  0.00  0.00    +0.000 OA
ATOM      7  C   UNL     1     -11.462  56.229  49.854  0.00  0.00    +0.000 C 
ENDROOT
BRANCH   1  13
ATOM      8  S   UNL     1      -7.815  54.300  45.374  0.00  0.00    +0.000 S 
ATOM      9  O   UNL     1      -6.848  53.490  46.082  0.00  0.00    +0.000 OA
ATOM     10  O   UNL     1      -7.381  55.309  44.423  0.00  0.00    +0.000 OA
ATOM     11  N   UNL     1      -8.769  55.029  46.460  0.00  0.00    +0.000 N 
ATOM     12  C   UNL     1      -8.806  53.171  44.448  0.00  0.00    +0.000 A 
ATOM     13  C   UNL     1      -9.957  54.568  46.706  0.00  0.00    +0.000 C 
ATOM     14  C   UNL     1     -10.079  52.894  44.924  0.00  0.00    +0.000 A 
ATOM     15  C   UNL     1      -8.308  52.594  43.278  0.00  0.00    +0.000 A 
ATOM     16  N   UNL     1     -10.563  53.506  46.073  0.00  0.00    +0.000 N 
ATOM     17  C   UNL     1     -10.876  52.000  44.204  0.00  0.00    +0.000 A 
ATOM     18  C   UNL     1      -9.115  51.708  42.567  0.00  0.00    +0.000 A 
ATOM     19  C   UNL     1     -10.398  51.412  43.028  0.00  0.00    +0.000 A 
ATOM     20  H   UNL     1      -8.446  55.827  46.937  0.00  0.00    +0.000 HD
ATOM     21  H   UNL     1     -11.396  53.156  46.461  0.00  0.00    +0.000 HD
ENDBRANCH   1  13
BRANCH   7  22
ATOM     22  C   UNL     1     -11.798  55.434  51.175  0.00  0.00    +0.000 C 
ATOM     23  C   UNL     1     -10.556  55.306  52.097  0.00  0.00    +0.000 C 
ATOM     24  C   UNL     1     -12.846  56.166  52.039  0.00  0.00    +0.000 C 
ATOM     25  C   UNL     1     -12.298  54.010  50.866  0.00  0.00    +0.000 C 
ENDBRANCH   7  22
BRANCH   5  26
ATOM     26  C   UNL     1     -13.870  56.785  48.966  0.00  0.00    +0.000 C 
BRANCH  26  27
ATOM     27  C   UNL     1     -14.087  58.193  48.413  0.00  0.00    +0.000 C 
BRANCH  27  28
ATOM     28  C   UNL     1     -13.738  59.223  49.455  0.00  0.00    +0.000 C 
ATOM     29  C   UNL     1     -14.720  59.560  50.546  0.00  0.00    +0.000 C 
ATOM     30  C   UNL     1     -14.421  60.567  49.469  0.00  0.00    +0.000 C 
ENDBRANCH  27  28
ENDBRANCH  26  27
ENDBRANCH   5  26
TORSDOF 5
ENDMDL
MODEL 2
REMARK VINA RESULT:      -7.7      3.677      6.106
REMARK  Name = 
REMARK  8 active torsions:
REMARK  status: ('A' for Active; 'I' for Inactive)
REMARK    1  A    between atoms: C_6  and  C_10
REMARK    2  A    between atoms: N_17  and  C_20
REMARK    3  A    between atoms: C_19  and  C_21
REMARK    4  A    between atoms: C_20  and  C_22
REMARK    5  A    between atoms: C_21  and  C_23
REMARK    6  A    between atoms: C_21  and  C_24
REMARK    7  A    between atoms: C_21  and  C_25
REMARK    8  A    between atoms: C_22  and  C_26
REMARK                            x       y       z     vdW  Elec       q    Type
REMARK                         _______ _______ _______ _____ _____    ______ ____
ROOT
ATOM      1  C   UNL     1     -10.344  55.081  50.627  0.00  0.00    +0.000 C 
ATOM      2  C   UNL     1     -11.395  55.368  51.607  0.00  0.00    +0.000 C 
ATOM      3  C   UNL     1     -10.959  54.982  49.443  0.00  0.00    +0.000 C 
ATOM      4  O   UNL     1     -11.183  55.466  52.805  0.00  0.00    +0.000 OA
ATOM      5  N   UNL     1     -12.595  55.476  50.937  0.00  0.00    +0.000 N 
ATOM      6  O   UNL     1     -10.343  54.655  48.259  0.00  0.00    +0.000 OA
ATOM      7  C   UNL     1     -12.453  55.285  49.482  0.00  0.00    +0.000 C 
ENDROOT
BRANCH   1  13
ATOM      8  S   UNL     1      -6.528  54.387  50.268  0.00  0.00    +0.000 S 
ATOM      9  O   UNL     1      -5.885  55.525  49.648  0.00  0.00    +0.000 OA
ATOM     10  O   UNL     1      -6.129  53.033  49.924  0.00  0.00    +0.000 OA
ATOM     11  N   UNL     1      -8.124  54.503  50.024  0.00  0.00    +0.000 N 
ATOM     12  C   UNL     1      -6.226  54.546  51.999  0.00  0.00    +0.000 A 
ATOM     13  C   UNL     1      -8.904  54.931  50.971  0.00  0.00    +0.000 C 
ATOM     14  C   UNL     1      -7.274  54.983  52.796  0.00  0.00    +0.000 A 
ATOM     15  C   UNL     1      -4.973  54.229  52.526  0.00  0.00    +0.000 A 
ATOM     16  N   UNL     1      -8.521  55.259  52.251  0.00  0.00    +0.000 N 
ATOM     17  C   UNL     1      -7.052  55.116  54.169  0.00  0.00    +0.000 A 
ATOM     18  C   UNL     1      -4.765  54.362  53.898  0.00  0.00    +0.000 A 
ATOM     19  C   UNL     1      -5.804  54.803  54.719  0.00  0.00    +0.000 A 
ATOM     20  H   UNL     1      -8.506  54.248  49.154  0.00  0.00    +0.000 HD
ATOM     21  H   UNL     1      -9.177  55.722  52.821  0.00  0.00    +0.000 HD
ENDBRANCH   1  13
BRANCH   7  22
ATOM     22  C   UNL     1     -12.893  56.497  48.573  0.00  0.00    +0.000 C 
ATOM     23  C   UNL     1     -14.429  56.713  48.611  0.00  0.00    +0.000 C 
ATOM     24  C   UNL     1     -12.302  57.833  49.068  0.00  0.00    +0.000 C 
ATOM     25  C   UNL     1     -12.489  56.275  47.103  0.00  0.00    +0.000 C 
ENDBRANCH   7  22
BRANCH   5  26
ATOM     26  C   UNL     1     -13.817  55.767  51.673  0.00  0.00    +0.000 C 
BRANCH  26  27
ATOM     27  C   UNL     1     -13.814  57.079  52.457  0.00  0.00    +0.000 C 
BRANCH  27  28
ATOM     28  C   UNL     1     -15.053  57.877  52.144  0.00  0.00    +0.000 C 
ATOM     29  C   UNL     1     -14.946  59.179  51.396  0.00  0.00    +0.000 C 
ATOM     30  C   UNL     1     -15.328  59.180  52.851  0.00  0.00    +0.000 C 
ENDBRANCH  27  28
ENDBRANCH  26  27
ENDBRANCH   5  26
TORSDOF 5
ENDMDL
MODEL 3
REMARK VINA RESULT:      -7.4      3.062      7.876
REMARK  Name = 
REMARK  8 active torsions:
REMARK  status: ('A' for Active; 'I' for Inactive)
REMARK    1  A    between atoms: C_6  and  C_10
REMARK    2  A    between atoms: N_17  and  C_20
REMARK    3  A    between atoms: C_19  and  C_21
REMARK    4  A    between atoms: C_20  and  C_22
REMARK    5  A    between atoms: C_21  and  C_23
REMARK    6  A    between atoms: C_21  and  C_24
REMARK    7  A    between atoms: C_21  and  C_25
REMARK    8  A    between atoms: C_22  and  C_26
REMARK                            x       y       z     vdW  Elec       q    Type
REMARK                         _______ _______ _______ _____ _____    ______ ____
ROOT
ATOM      1  C   UNL     1     -11.501  55.857  48.831  0.00  0.00    +0.000 C 
ATOM      2  C   UNL     1     -10.541  55.061  49.601  0.00  0.00    +0.000 C 
ATOM      3  C   UNL     1     -11.330  55.508  47.552  0.00  0.00    +0.000 C 
ATOM      4  O   UNL     1     -10.393  55.174  50.808  0.00  0.00    +0.000 OA
ATOM      5  N   UNL     1      -9.873  54.227  48.730  0.00  0.00    +0.000 N 
ATOM      6  O   UNL     1     -11.992  56.069  46.486  0.00  0.00    +0.000 OA
ATOM      7  C   UNL     1     -10.323  54.383  47.336  0.00  0.00    +0.000 C 
ENDROOT
BRANCH   1  13
ATOM      8  S   UNL     1     -13.497  59.151  49.415  0.00  0.00    +0.000 S 
ATOM      9  O   UNL     1     -14.610  59.213  48.493  0.00  0.00    +0.000 OA
ATOM     10  O   UNL     1     -12.731  60.344  49.732  0.00  0.00    +0.000 OA
ATOM     11  N   UNL     1     -12.456  58.027  48.891  0.00  0.00    +0.000 N 
ATOM     12  C   UNL     1     -14.171  58.598  50.949  0.00  0.00    +0.000 A 
ATOM     13  C   UNL     1     -12.433  56.849  49.435  0.00  0.00    +0.000 C 
ATOM     14  C   UNL     1     -13.943  57.279  51.312  0.00  0.00    +0.000 A 
ATOM     15  C   UNL     1     -14.898  59.476  51.755  0.00  0.00    +0.000 A 
ATOM     16  N   UNL     1     -13.189  56.435  50.508  0.00  0.00    +0.000 N 
ATOM     17  C   UNL     1     -14.472  56.824  52.523  0.00  0.00    +0.000 A 
ATOM     18  C   UNL     1     -15.416  59.011  52.963  0.00  0.00    +0.000 A 
ATOM     19  C   UNL     1     -15.202  57.687  53.348  0.00  0.00    +0.000 A 
ATOM     20  H   UNL     1     -11.838  58.238  48.155  0.00  0.00    +0.000 HD
ATOM     21  H   UNL     1     -13.196  55.474  50.721  0.00  0.00    +0.000 HD
ENDBRANCH   1  13
BRANCH   7  22
ATOM     22  C   UNL     1     -10.925  53.097  46.648  0.00  0.00    +0.000 C 
ATOM     23  C   UNL     1     -11.495  53.415  45.240  0.00  0.00    +0.000 C 
ATOM     24  C   UNL     1      -9.849  52.021  46.396  0.00  0.00    +0.000 C 
ATOM     25  C   UNL     1     -12.066  52.491  47.487  0.00  0.00    +0.000 C 
ENDBRANCH   7  22
BRANCH   5  26
ATOM     26  C   UNL     1      -8.857  53.313  49.232  0.00  0.00    +0.000 C 
BRANCH  26  27
ATOM     27  C   UNL     1      -7.434  53.582  48.748  0.00  0.00    +0.000 C 
BRANCH  27  28
ATOM     28  C   UNL     1      -6.628  54.243  49.835  0.00  0.00    +0.000 C 
ATOM     29  C   UNL     1      -6.843  55.698  50.159  0.00  0.00    +0.000 C 
ATOM     30  C   UNL     1      -5.566  55.260  49.497  0.00  0.00    +0.000 C 
ENDBRANCH  27  28
ENDBRANCH  26  27
ENDBRANCH   5  26
TORSDOF 5
ENDMDL
MODEL 4
REMARK VINA RESULT:      -7.4      2.896      7.866
REMARK  Name = 
REMARK  8 active torsions:
REMARK  status: ('A' for Active; 'I' for Inactive)
REMARK    1  A    between atoms: C_6  and  C_10
REMARK    2  A    between atoms: N_17  and  C_20
REMARK    3  A    between atoms: C_19  and  C_21
REMARK    4  A    between atoms: C_20  and  C_22
REMARK    5  A    between atoms: C_21  and  C_23
REMARK    6  A    between atoms: C_21  and  C_24
REMARK    7  A    between atoms: C_21  and  C_25
REMARK    8  A    between atoms: C_22  and  C_26
REMARK                            x       y       z     vdW  Elec       q    Type
REMARK                         _______ _______ _______ _____ _____    ______ ____
ROOT
ATOM      1  C   UNL     1     -12.078  54.731  48.532  0.00  0.00    +0.000 C 
ATOM      2  C   UNL     1     -11.524  54.974  47.197  0.00  0.00    +0.000 C 
ATOM      3  C   UNL     1     -11.663  53.510  48.888  0.00  0.00    +0.000 C 
ATOM      4  O   UNL     1     -11.757  55.983  46.550  0.00  0.00    +0.000 OA
ATOM      5  N   UNL     1     -10.753  53.888  46.843  0.00  0.00    +0.000 N 
ATOM      6  O   UNL     1     -12.014  52.866  50.050  0.00  0.00    +0.000 OA
ATOM      7  C   UNL     1     -10.718  52.851  47.890  0.00  0.00    +0.000 C 
ENDROOT
BRANCH   1  13
ATOM      8  S   UNL     1     -14.866  56.159  50.848  0.00  0.00    +0.000 S 
ATOM      9  O   UNL     1     -14.460  56.030  52.231  0.00  0.00    +0.000 OA
ATOM     10  O   UNL     1     -16.244  55.917  50.455  0.00  0.00    +0.000 OA
ATOM     11  N   UNL     1     -13.925  55.201  49.944  0.00  0.00    +0.000 N 
ATOM     12  C   UNL     1     -14.532  57.832  50.400  0.00  0.00    +0.000 A 
ATOM     13  C   UNL     1     -12.937  55.700  49.266  0.00  0.00    +0.000 C 
ATOM     14  C   UNL     1     -13.417  58.075  49.610  0.00  0.00    +0.000 A 
ATOM     15  C   UNL     1     -15.376  58.857  50.829  0.00  0.00    +0.000 A 
ATOM     16  N   UNL     1     -12.612  57.034  49.169  0.00  0.00    +0.000 N 
ATOM     17  C   UNL     1     -13.137  59.396  49.248  0.00  0.00    +0.000 A 
ATOM     18  C   UNL     1     -15.088  60.170  50.457  0.00  0.00    +0.000 A 
ATOM     19  C   UNL     1     -13.971  60.439  49.666  0.00  0.00    +0.000 A 
ATOM     20  H   UNL     1     -14.101  54.233  49.909  0.00  0.00    +0.000 HD
ATOM     21  H   UNL     1     -11.748  57.267  48.758  0.00  0.00    +0.000 HD
ENDBRANCH   1  13
BRANCH   7  22
ATOM     22  C   UNL     1      -9.296  52.501  48.478  0.00  0.00    +0.000 C 
ATOM     23  C   UNL     1      -9.385  51.413  49.580  0.00  0.00    +0.000 C 
ATOM     24  C   UNL     1      -8.364  51.893  47.409  0.00  0.00    +0.000 C 
ATOM     25  C   UNL     1      -8.621  53.740  49.097  0.00  0.00    +0.000 C 
ENDBRANCH   7  22
BRANCH   5  26
ATOM     26  C   UNL     1     -10.072  53.867  45.556  0.00  0.00    +0.000 C 
BRANCH  26  27
ATOM     27  C   UNL     1     -10.721  52.993  44.484  0.00  0.00    +0.000 C 
BRANCH  27  28
ATOM     28  C   UNL     1      -9.673  52.197  43.753  0.00  0.00    +0.000 C 
ATOM     29  C   UNL     1      -9.269  52.581  42.354  0.00  0.00    +0.000 C 
ATOM     30  C   UNL     1     -10.047  51.315  42.588  0.00  0.00    +0.000 C 
ENDBRANCH  27  28
ENDBRANCH  26  27
ENDBRANCH   5  26
TORSDOF 5
ENDMDL
MODEL 5
REMARK VINA RESULT:      -7.3      2.527      3.385
REMARK  Name = 
REMARK  8 active torsions:
REMARK  status: ('A' for Active; 'I' for Inactive)
REMARK    1  A    between atoms: C_6  and  C_10
REMARK    2  A    between atoms: N_17  and  C_20
REMARK    3  A    between atoms: C_19  and  C_21
REMARK    4  A    between atoms: C_20  and  C_22
REMARK    5  A    between atoms: C_21  and  C_23
REMARK    6  A    between atoms: C_21  and  C_24
REMARK    7  A    between atoms: C_21  and  C_25
REMARK    8  A    between atoms: C_22  and  C_26
REMARK                            x       y       z     vdW  Elec       q    Type
REMARK                         _______ _______ _______ _____ _____    ______ ____
ROOT
ATOM      1  C   UNL     1     -10.438  55.758  48.520  0.00  0.00    +0.000 C 
ATOM      2  C   UNL     1     -11.625  56.028  47.705  0.00  0.00    +0.000 C 
ATOM      3  C   UNL     1     -10.745  56.150  49.762  0.00  0.00    +0.000 C 
ATOM      4  O   UNL     1     -11.668  55.835  46.500  0.00  0.00    +0.000 OA
ATOM      5  N   UNL     1     -12.612  56.529  48.528  0.00  0.00    +0.000 N 
ATOM      6  O   UNL     1      -9.881  56.131  50.831  0.00  0.00    +0.000 OA
ATOM      7  C   UNL     1     -12.183  56.627  49.934  0.00  0.00    +0.000 C 
ENDROOT
BRANCH   1  13
ATOM      8  S   UNL     1      -7.966  53.821  46.215  0.00  0.00    +0.000 S 
ATOM      9  O   UNL     1      -7.656  54.626  45.053  0.00  0.00    +0.000 OA
ATOM     10  O   UNL     1      -8.158  52.387  46.093  0.00  0.00    +0.000 OA
ATOM     11  N   UNL     1      -9.286  54.432  46.927  0.00  0.00    +0.000 N 
ATOM     12  C   UNL     1      -6.606  54.026  47.321  0.00  0.00    +0.000 A 
ATOM     13  C   UNL     1      -9.177  55.175  47.987  0.00  0.00    +0.000 C 
ATOM     14  C   UNL     1      -6.790  54.852  48.420  0.00  0.00    +0.000 A 
ATOM     15  C   UNL     1      -5.400  53.365  47.082  0.00  0.00    +0.000 A 
ATOM     16  N   UNL     1      -8.010  55.472  48.653  0.00  0.00    +0.000 N 
ATOM     17  C   UNL     1      -5.722  55.026  49.305  0.00  0.00    +0.000 A 
ATOM     18  C   UNL     1      -4.344  53.543  47.974  0.00  0.00    +0.000 A 
ATOM     19  C   UNL     1      -4.505  54.372  49.085  0.00  0.00    +0.000 A 
ATOM     20  H   UNL     1     -10.176  54.241  46.553  0.00  0.00    +0.000 HD
ATOM     21  H   UNL     1      -8.042  56.173  49.343  0.00  0.00    +0.000 HD
ENDBRANCH   1  13
BRANCH   7  22
ATOM     22  C   UNL     1     -13.021  55.793  50.979  0.00  0.00    +0.000 C 
ATOM     23  C   UNL     1     -12.983  56.440  52.389  0.00  0.00    +0.000 C 
ATOM     24  C   UNL     1     -14.519  55.749  50.614  0.00  0.00    +0.000 C 
ATOM     25  C   UNL     1     -12.487  54.354  51.111  0.00  0.00    +0.000 C 
ENDBRANCH   7  22
BRANCH   5  26
ATOM     26  C   UNL     1     -13.913  56.880  47.975  0.00  0.00    +0.000 C 
BRANCH  26  27
ATOM     27  C   UNL     1     -14.201  58.377  47.877  0.00  0.00    +0.000 C 
BRANCH  27  28
ATOM     28  C   UNL     1     -13.779  59.075  49.143  0.00  0.00    +0.000 C 
ATOM     29  C   UNL     1     -14.782  59.335  50.235  0.00  0.00    +0.000 C 
ATOM     30  C   UNL     1     -14.233  60.483  49.434  0.00  0.00    +0.000 C 
ENDBRANCH  27  28
ENDBRANCH  26  27
ENDBRANCH   5  26
TORSDOF 5
ENDMDL
MODEL 6
REMARK VINA RESULT:      -7.3      3.702      6.718
REMARK  Name = 
REMARK  8 active torsions:
REMARK  status: ('A' for Active; 'I' for Inactive)
REMARK    1  A    between atoms: C_6  and  C_10
REMARK    2  A    between atoms: N_17  and  C_20
REMARK    3  A    between atoms: C_19  and  C_21
REMARK    4  A    between atoms: C_20  and  C_22
REMARK    5  A    between atoms: C_21  and  C_23
REMARK    6  A    between atoms: C_21  and  C_24
REMARK    7  A    between atoms: C_21  and  C_25
REMARK    8  A    between atoms: C_22  and  C_26
REMARK                            x       y       z     vdW  Elec       q    Type
REMARK                         _______ _______ _______ _____ _____    ______ ____
ROOT
ATOM      1  C   UNL     1     -10.738  53.999  50.558  0.00  0.00    +0.000 C 
ATOM      2  C   UNL     1     -11.640  55.115  50.856  0.00  0.00    +0.000 C 
ATOM      3  C   UNL     1     -11.075  53.566  49.338  0.00  0.00    +0.000 C 
ATOM      4  O   UNL     1     -11.639  55.710  51.922  0.00  0.00    +0.000 OA
ATOM      5  N   UNL     1     -12.448  55.325  49.758  0.00  0.00    +0.000 N 
ATOM      6  O   UNL     1     -10.515  52.484  48.703  0.00  0.00    +0.000 OA
ATOM      7  C   UNL     1     -12.157  54.394  48.653  0.00  0.00    +0.000 C 
ENDROOT
BRANCH   1  13
ATOM      8  S   UNL     1      -8.621  51.587  52.765  0.00  0.00    +0.000 S 
ATOM      9  O   UNL     1      -7.710  50.837  51.928  0.00  0.00    +0.000 OA
ATOM     10  O   UNL     1      -9.293  50.949  53.884  0.00  0.00    +0.000 OA
ATOM     11  N   UNL     1      -9.760  52.248  51.824  0.00  0.00    +0.000 N 
ATOM     12  C   UNL     1      -7.667  52.894  53.468  0.00  0.00    +0.000 A 
ATOM     13  C   UNL     1      -9.692  53.502  51.493  0.00  0.00    +0.000 C 
ATOM     14  C   UNL     1      -7.837  54.167  52.944  0.00  0.00    +0.000 A 
ATOM     15  C   UNL     1      -6.784  52.633  54.518  0.00  0.00    +0.000 A 
ATOM     16  N   UNL     1      -8.746  54.405  51.922  0.00  0.00    +0.000 N 
ATOM     17  C   UNL     1      -7.087  55.213  53.488  0.00  0.00    +0.000 A 
ATOM     18  C   UNL     1      -6.045  53.687  55.055  0.00  0.00    +0.000 A 
ATOM     19  C   UNL     1      -6.198  54.976  54.542  0.00  0.00    +0.000 A 
ATOM     20  H   UNL     1     -10.507  51.697  51.499  0.00  0.00    +0.000 HD
ATOM     21  H   UNL     1      -8.710  55.280  51.473  0.00  0.00    +0.000 HD
ENDBRANCH   1  13
BRANCH   7  22
ATOM     22  C   UNL     1     -11.706  55.049  47.290  0.00  0.00    +0.000 C 
ATOM     23  C   UNL     1     -11.820  54.048  46.110  0.00  0.00    +0.000 C 
ATOM     24  C   UNL     1     -12.617  56.227  46.887  0.00  0.00    +0.000 C 
ATOM     25  C   UNL     1     -10.245  55.534  47.353  0.00  0.00    +0.000 C 
ENDBRANCH   7  22
BRANCH   5  26
ATOM     26  C   UNL     1     -13.443  56.388  49.779  0.00  0.00    +0.000 C 
BRANCH  26  27
ATOM     27  C   UNL     1     -14.781  56.022  50.419  0.00  0.00    +0.000 C 
BRANCH  27  28
ATOM     28  C   UNL     1     -15.312  57.183  51.218  0.00  0.00    +0.000 C 
ATOM     29  C   UNL     1     -14.396  57.963  52.123  0.00  0.00    +0.000 C 
ATOM     30  C   UNL     1     -15.462  57.084  52.715  0.00  0.00    +0.000 C 
ENDBRANCH  27  28
ENDBRANCH  26  27
ENDBRANCH   5  26
TORSDOF 5
ENDMDL
MODEL 7
REMARK VINA RESULT:      -7.2      1.282      1.449
REMARK  Name = 
REMARK  8 active torsions:
REMARK  status: ('A' for Active; 'I' for Inactive)
REMARK    1  A    between atoms: C_6  and  C_10
REMARK    2  A    between atoms: N_17  and  C_20
REMARK    3  A    between atoms: C_19  and  C_21
REMARK    4  A    between atoms: C_20  and  C_22
REMARK    5  A    between atoms: C_21  and  C_23
REMARK    6  A    between atoms: C_21  and  C_24
REMARK    7  A    between atoms: C_21  and  C_25
REMARK    8  A    between atoms: C_22  and  C_26
REMARK                            x       y       z     vdW  Elec       q    Type
REMARK                         _______ _______ _______ _____ _____    ______ ____
ROOT
ATOM      1  C   UNL     1     -10.663  54.434  48.105  0.00  0.00    +0.000 C 
ATOM      2  C   UNL     1     -11.976  55.024  47.834  0.00  0.00    +0.000 C 
ATOM      3  C   UNL     1     -10.277  54.920  49.291  0.00  0.00    +0.000 C 
ATOM      4  O   UNL     1     -12.595  54.832  46.799  0.00  0.00    +0.000 OA
ATOM      5  N   UNL     1     -12.334  55.803  48.913  0.00  0.00    +0.000 N 
ATOM      6  O   UNL     1      -9.066  54.668  49.890  0.00  0.00    +0.000 OA
ATOM      7  C   UNL     1     -11.317  55.796  49.980  0.00  0.00    +0.000 C 
ENDROOT
BRANCH   1  13
ATOM      8  S   UNL     1      -8.155  51.769  46.771  0.00  0.00    +0.000 S 
ATOM      9  O   UNL     1      -8.577  50.451  47.195  0.00  0.00    +0.000 OA
ATOM     10  O   UNL     1      -6.748  52.128  46.760  0.00  0.00    +0.000 OA
ATOM     11  N   UNL     1      -8.935  52.871  47.664  0.00  0.00    +0.000 N 
ATOM     12  C   UNL     1      -8.700  51.936  45.101  0.00  0.00    +0.000 A 
ATOM     13  C   UNL     1      -9.962  53.501  47.181  0.00  0.00    +0.000 C 
ATOM     14  C   UNL     1      -9.815  52.726  44.865  0.00  0.00    +0.000 A 
ATOM     15  C   UNL     1      -8.012  51.293  44.069  0.00  0.00    +0.000 A 
ATOM     16  N   UNL     1     -10.461  53.381  45.904  0.00  0.00    +0.000 N 
ATOM     17  C   UNL     1     -10.261  52.867  43.547  0.00  0.00    +0.000 A 
ATOM     18  C   UNL     1      -8.464  51.446  42.759  0.00  0.00    +0.000 A 
ATOM     19  C   UNL     1      -9.586  52.234  42.498  0.00  0.00    +0.000 A 
ATOM     20  H   UNL     1      -8.629  53.065  48.579  0.00  0.00    +0.000 HD
ATOM     21  H   UNL     1     -11.337  53.789  45.714  0.00  0.00    +0.000 HD
ENDBRANCH   1  13
BRANCH   7  22
ATOM     22  C   UNL     1     -11.786  55.259  51.388  0.00  0.00    +0.000 C 
ATOM     23  C   UNL     1     -10.616  55.225  52.406  0.00  0.00    +0.000 C 
ATOM     24  C   UNL     1     -12.836  56.185  52.038  0.00  0.00    +0.000 C 
ATOM     25  C   UNL     1     -12.359  53.833  51.286  0.00  0.00    +0.000 C 
ENDBRANCH   7  22
BRANCH   5  26
ATOM     26  C   UNL     1     -13.608  56.508  48.913  0.00  0.00    +0.000 C 
BRANCH  26  27
ATOM     27  C   UNL     1     -13.558  57.954  48.424  0.00  0.00    +0.000 C 
BRANCH  27  28
ATOM     28  C   UNL     1     -13.460  58.898  49.593  0.00  0.00    +0.000 C 
ATOM     29  C   UNL     1     -14.653  59.129  50.483  0.00  0.00    +0.000 C 
ATOM     30  C   UNL     1     -14.175  60.227  49.573  0.00  0.00    +0.000 C 
ENDBRANCH  27  28
ENDBRANCH  26  27
ENDBRANCH   5  26
TORSDOF 5
ENDMDL
MODEL 8
REMARK VINA RESULT:      -7.1      3.921      8.020
REMARK  Name = 
REMARK  8 active torsions:
REMARK  status: ('A' for Active; 'I' for Inactive)
REMARK    1  A    between atoms: C_6  and  C_10
REMARK    2  A    between atoms: N_17  and  C_20
REMARK    3  A    between atoms: C_19  and  C_21
REMARK    4  A    between atoms: C_20  and  C_22
REMARK    5  A    between atoms: C_21  and  C_23
REMARK    6  A    between atoms: C_21  and  C_24
REMARK    7  A    between atoms: C_21  and  C_25
REMARK    8  A    between atoms: C_22  and  C_26
REMARK                            x       y       z     vdW  Elec       q    Type
REMARK                         _______ _______ _______ _____ _____    ______ ____
ROOT
ATOM      1  C   UNL     1     -10.994  54.683  51.068  0.00  0.00    +0.000 C 
ATOM      2  C   UNL     1     -10.312  54.417  52.336  0.00  0.00    +0.000 C 
ATOM      3  C   UNL     1     -10.449  53.853  50.172  0.00  0.00    +0.000 C 
ATOM      4  O   UNL     1     -10.532  55.045  53.360  0.00  0.00    +0.000 OA
ATOM      5  N   UNL     1      -9.415  53.389  52.139  0.00  0.00    +0.000 N 
ATOM      6  O   UNL     1     -10.760  53.822  48.834  0.00  0.00    +0.000 OA
ATOM      7  C   UNL     1      -9.426  52.883  50.755  0.00  0.00    +0.000 C 
ENDROOT
BRANCH   1  13
ATOM      8  S   UNL     1     -13.361  57.287  49.397  0.00  0.00    +0.000 S 
ATOM      9  O   UNL     1     -14.416  56.597  48.686  0.00  0.00    +0.000 OA
ATOM     10  O   UNL     1     -12.748  58.479  48.837  0.00  0.00    +0.000 OA
ATOM     11  N   UNL     1     -12.177  56.230  49.713  0.00  0.00    +0.000 N 
ATOM     12  C   UNL     1     -14.066  57.793  50.934  0.00  0.00    +0.000 A 
ATOM     13  C   UNL     1     -12.062  55.706  50.896  0.00  0.00    +0.000 C 
ATOM     14  C   UNL     1     -13.721  57.071  52.067  0.00  0.00    +0.000 A 
ATOM     15  C   UNL     1     -14.930  58.889  50.984  0.00  0.00    +0.000 A 
ATOM     16  N   UNL     1     -12.834  56.006  51.995  0.00  0.00    +0.000 N 
ATOM     17  C   UNL     1     -14.272  57.458  53.292  0.00  0.00    +0.000 A 
ATOM     18  C   UNL     1     -15.469  59.267  52.212  0.00  0.00    +0.000 A 
ATOM     19  C   UNL     1     -15.139  58.554  53.366  0.00  0.00    +0.000 A 
ATOM     20  H   UNL     1     -11.541  55.981  49.005  0.00  0.00    +0.000 HD
ATOM     21  H   UNL     1     -12.752  55.426  52.785  0.00  0.00    +0.000 HD
ENDBRANCH   1  13
BRANCH   7  22
ATOM     22  C   UNL     1      -9.798  51.361  50.570  0.00  0.00    +0.000 C 
ATOM     23  C   UNL     1      -9.943  50.985  49.072  0.00  0.00    +0.000 C 
ATOM     24  C   UNL     1      -8.688  50.428  51.097  0.00  0.00    +0.000 C 
ATOM     25  C   UNL     1     -11.127  51.016  51.268  0.00  0.00    +0.000 C 
ENDBRANCH   7  22
BRANCH   5  26
ATOM     26  C   UNL     1      -8.599  52.911  53.246  0.00  0.00    +0.000 C 
BRANCH  26  27
ATOM     27  C   UNL     1      -7.142  53.371  53.234  0.00  0.00    +0.000 C 
BRANCH  27  28
ATOM     28  C   UNL     1      -6.956  54.540  54.165  0.00  0.00    +0.000 C 
ATOM     29  C   UNL     1      -6.974  55.947  53.628  0.00  0.00    +0.000 C 
ATOM     30  C   UNL     1      -5.687  55.355  54.134  0.00  0.00    +0.000 C 
ENDBRANCH  27  28
ENDBRANCH  26  27
ENDBRANCH   5  26
TORSDOF 5
ENDMDL
MODEL 9
REMARK VINA RESULT:      -7.0      1.801      2.154
REMARK  Name = 
REMARK  8 active torsions:
REMARK  status: ('A' for Active; 'I' for Inactive)
REMARK    1  A    between atoms: C_6  and  C_10
REMARK    2  A    between atoms: N_17  and  C_20
REMARK    3  A    between atoms: C_19  and  C_21
REMARK    4  A    between atoms: C_20  and  C_22
REMARK    5  A    between atoms: C_21  and  C_23
REMARK    6  A    between atoms: C_21  and  C_24
REMARK    7  A    between atoms: C_21  and  C_25
REMARK    8  A    between atoms: C_22  and  C_26
REMARK                            x       y       z     vdW  Elec       q    Type
REMARK                         _______ _______ _______ _____ _____    ______ ____
ROOT
ATOM      1  C   UNL     1     -10.616  54.775  48.067  0.00  0.00    +0.000 C 
ATOM      2  C   UNL     1     -11.960  55.296  47.803  0.00  0.00    +0.000 C 
ATOM      3  C   UNL     1     -10.274  55.231  49.277  0.00  0.00    +0.000 C 
ATOM      4  O   UNL     1     -12.554  55.112  46.752  0.00  0.00    +0.000 OA
ATOM      5  N   UNL     1     -12.376  56.005  48.909  0.00  0.00    +0.000 N 
ATOM      6  O   UNL     1      -9.056  55.027  49.881  0.00  0.00    +0.000 OA
ATOM      7  C   UNL     1     -11.372  56.013  49.989  0.00  0.00    +0.000 C 
ENDROOT
BRANCH   1  13
ATOM      8  S   UNL     1      -9.163  53.374  44.735  0.00  0.00    +0.000 S 
ATOM      9  O   UNL     1      -8.077  54.219  44.287  0.00  0.00    +0.000 OA
ATOM     10  O   UNL     1     -10.106  52.814  43.783  0.00  0.00    +0.000 OA
ATOM     11  N   UNL     1     -10.015  54.180  45.851  0.00  0.00    +0.000 N 
ATOM     12  C   UNL     1      -8.404  51.989  45.523  0.00  0.00    +0.000 A 
ATOM     13  C   UNL     1      -9.850  53.926  47.114  0.00  0.00    +0.000 C 
ATOM     14  C   UNL     1      -8.420  51.951  46.909  0.00  0.00    +0.000 A 
ATOM     15  C   UNL     1      -7.823  50.977  44.757  0.00  0.00    +0.000 A 
ATOM     16  N   UNL     1      -9.034  52.954  47.647  0.00  0.00    +0.000 N 
ATOM     17  C   UNL     1      -7.822  50.861  47.549  0.00  0.00    +0.000 A 
ATOM     18  C   UNL     1      -7.234  49.894  45.407  0.00  0.00    +0.000 A 
ATOM     19  C   UNL     1      -7.235  49.835  46.801  0.00  0.00    +0.000 A 
ATOM     20  H   UNL     1     -10.661  54.868  45.571  0.00  0.00    +0.000 HD
ATOM     21  H   UNL     1      -8.875  52.971  48.618  0.00  0.00    +0.000 HD
ENDBRANCH   1  13
BRANCH   7  22
ATOM     22  C   UNL     1     -11.824  55.389  51.366  0.00  0.00    +0.000 C 
ATOM     23  C   UNL     1     -12.369  53.946  51.188  0.00  0.00    +0.000 C 
ATOM     24  C   UNL     1     -10.642  55.237  52.346  0.00  0.00    +0.000 C 
ATOM     25  C   UNL     1     -12.932  56.228  52.030  0.00  0.00    +0.000 C 
ENDBRANCH   7  22
BRANCH   5  26
ATOM     26  C   UNL     1     -13.690  56.631  48.922  0.00  0.00    +0.000 C 
BRANCH  26  27
ATOM     27  C   UNL     1     -13.735  58.073  48.419  0.00  0.00    +0.000 C 
BRANCH  27  28
ATOM     28  C   UNL     1     -13.529  59.032  49.563  0.00  0.00    +0.000 C 
ATOM     29  C   UNL     1     -14.656  59.326  50.517  0.00  0.00    +0.000 C 
ATOM     30  C   UNL     1     -14.190  60.388  49.560  0.00  0.00    +0.000 C 
ENDBRANCH  27  28
ENDBRANCH  26  27
ENDBRANCH   5  26
TORSDOF 5
ENDMDL
