MODEL 1
REMARK VINA RESULT:      -8.0      0.000      0.000
REMARK  Name = 
REMARK  7 active torsions:
REMARK  status: ('A' for Active; 'I' for Inactive)
REMARK    1  A    between atoms: C_6  and  C_10
REMARK    2  A    between atoms: N_17  and  C_20
REMARK    3  A    between atoms: C_19  and  C_21
REMARK    4  A    between atoms: C_20  and  C_22
REMARK    5  A    between atoms: C_21  and  C_23
REMARK    6  A    between atoms: C_21  and  C_24
REMARK    7  A    between atoms: C_21  and  C_25
REMARK                            x       y       z     vdW  Elec       q    Type
REMARK                         _______ _______ _______ _____ _____    ______ ____
ROOT
ATOM      1  C   UNL     1     -11.482  55.815  48.920  0.00  0.00    +0.000 C 
ATOM      2  C   UNL     1     -10.574  54.967  49.694  0.00  0.00    +0.000 C 
ATOM      3  C   UNL     1     -11.285  55.477  47.638  0.00  0.00    +0.000 C 
ATOM      4  O   UNL     1     -10.373  55.117  50.890  0.00  0.00    +0.000 OA
ATOM      5  N   UNL     1     -10.040  54.017  48.849  0.00  0.00    +0.000 N 
ATOM      6  O   UNL     1     -11.891  56.085  46.567  0.00  0.00    +0.000 OA
ATOM      7  C   UNL     1     -10.336  54.302  47.438  0.00  0.00    +0.000 C 
ENDROOT
BRANCH   1  13
ATOM      8  S   UNL     1     -13.514  59.100  49.409  0.00  0.00    +0.000 S 
ATOM      9  O   UNL     1     -14.615  59.095  48.468  0.00  0.00    +0.000 OA
ATOM     10  O   UNL     1     -12.786  60.327  49.674  0.00  0.00    +0.000 OA
ATOM     11  N   UNL     1     -12.438  57.981  48.937  0.00  0.00    +0.000 N 
ATOM     12  C   UNL     1     -14.187  58.591  50.952  0.00  0.00    +0.000 A 
ATOM     13  C   UNL     1     -12.414  56.814  49.508  0.00  0.00    +0.000 C 
ATOM     14  C   UNL     1     -13.946  57.287  51.357  0.00  0.00    +0.000 A 
ATOM     15  C   UNL     1     -14.932  59.485  51.726  0.00  0.00    +0.000 A 
ATOM     16  N   UNL     1     -13.184  56.423  50.580  0.00  0.00    +0.000 N 
ATOM     17  C   UNL     1     -14.472  56.868  52.582  0.00  0.00    +0.000 A 
ATOM     18  C   UNL     1     -15.447  59.058  52.947  0.00  0.00    +0.000 A 
ATOM     19  C   UNL     1     -15.216  57.750  53.377  0.00  0.00    +0.000 A 
ATOM     20  H   UNL     1     -11.800  58.187  48.216  0.00  0.00    +0.000 HD
ATOM     21  H   UNL     1     -13.195  55.467  50.814  0.00  0.00    +0.000 HD
ENDBRANCH   1  13
BRANCH   7  22
ATOM     22  C   UNL     1     -10.921  53.104  46.597  0.00  0.00    +0.000 C 
ATOM     23  C   UNL     1     -11.369  53.562  45.186  0.00  0.00    +0.000 C 
ATOM     24  C   UNL     1      -9.855  52.018  46.338  0.00  0.00    +0.000 C 
ATOM     25  C   UNL     1     -12.131  52.458  47.296  0.00  0.00    +0.000 C 
ENDBRANCH   7  22
BRANCH   5  26
ATOM     26  C   UNL     1      -8.999  53.111  49.326  0.00  0.00    +0.000 C 
BRANCH  26  27
ATOM     27  C   UNL     1      -7.574  53.629  49.186  0.00  0.00    +0.000 A 
ATOM     28  N   UNL     1      -7.113  54.403  50.204  0.00  0.00    +0.000 NA
ATOM     29  C   UNL     1      -6.754  53.285  48.110  0.00  0.00    +0.000 A 
ATOM     30  C   UNL     1      -5.832  54.835  50.139  0.00  0.00    +0.000 A 
ATOM     31  C   UNL     1      -5.438  53.743  48.071  0.00  0.00    +0.000 A 
ATOM     32  C   UNL     1      -4.963  54.530  49.108  0.00  0.00    +0.000 A 
ENDBRANCH  26  27
ENDBRANCH   5  26
TORSDOF 4
ENDMDL
MODEL 2
REMARK VINA RESULT:      -7.9      2.489      4.009
REMARK  Name = 
REMARK  7 active torsions:
REMARK  status: ('A' for Active; 'I' for Inactive)
REMARK    1  A    between atoms: C_6  and  C_10
REMARK    2  A    between atoms: N_17  and  C_20
REMARK    3  A    between atoms: C_19  and  C_21
REMARK    4  A    between atoms: C_20  and  C_22
REMARK    5  A    between atoms: C_21  and  C_23
REMARK    6  A    between atoms: C_21  and  C_24
REMARK    7  A    between atoms: C_21  and  C_25
REMARK                            x       y       z     vdW  Elec       q    Type
REMARK                         _______ _______ _______ _____ _____    ______ ____
ROOT
ATOM      1  C   UNL     1     -12.244  54.490  50.156  0.00  0.00    +0.000 C 
ATOM      2  C   UNL     1     -11.980  54.122  48.764  0.00  0.00    +0.000 C 
ATOM      3  C   UNL     1     -11.683  53.526  50.897  0.00  0.00    +0.000 C 
ATOM      4  O   UNL     1     -12.485  54.697  47.811  0.00  0.00    +0.000 OA
ATOM      5  N   UNL     1     -11.088  53.070  48.755  0.00  0.00    +0.000 N 
ATOM      6  O   UNL     1     -11.758  53.446  52.265  0.00  0.00    +0.000 OA
ATOM      7  C   UNL     1     -10.891  52.501  50.095  0.00  0.00    +0.000 C 
ENDROOT
BRANCH   1  13
ATOM      8  S   UNL     1     -14.426  56.904  52.295  0.00  0.00    +0.000 S 
ATOM      9  O   UNL     1     -13.618  57.391  53.394  0.00  0.00    +0.000 OA
ATOM     10  O   UNL     1     -15.820  56.564  52.510  0.00  0.00    +0.000 OA
ATOM     11  N   UNL     1     -13.694  55.602  51.664  0.00  0.00    +0.000 N 
ATOM     12  C   UNL     1     -14.417  58.176  51.080  0.00  0.00    +0.000 A 
ATOM     13  C   UNL     1     -12.980  55.711  50.583  0.00  0.00    +0.000 C 
ATOM     14  C   UNL     1     -13.599  57.999  49.974  0.00  0.00    +0.000 A 
ATOM     15  C   UNL     1     -15.214  59.313  51.242  0.00  0.00    +0.000 A 
ATOM     16  N   UNL     1     -12.833  56.850  49.824  0.00  0.00    +0.000 N 
ATOM     17  C   UNL     1     -13.583  59.000  48.998  0.00  0.00    +0.000 A 
ATOM     18  C   UNL     1     -15.194  60.300  50.262  0.00  0.00    +0.000 A 
ATOM     19  C   UNL     1     -14.380  60.143  49.138  0.00  0.00    +0.000 A 
ATOM     20  H   UNL     1     -13.789  54.725  52.101  0.00  0.00    +0.000 HD
ATOM     21  H   UNL     1     -12.138  56.851  49.127  0.00  0.00    +0.000 HD
ENDBRANCH   1  13
BRANCH   7  22
ATOM     22  C   UNL     1      -9.395  52.304  50.551  0.00  0.00    +0.000 C 
ATOM     23  C   UNL     1      -9.306  51.632  51.945  0.00  0.00    +0.000 C 
ATOM     24  C   UNL     1      -8.633  51.351  49.606  0.00  0.00    +0.000 C 
ATOM     25  C   UNL     1      -8.642  53.645  50.619  0.00  0.00    +0.000 C 
ENDBRANCH   7  22
BRANCH   5  26
ATOM     26  C   UNL     1     -10.741  52.412  47.499  0.00  0.00    +0.000 C 
BRANCH  26  27
ATOM     27  C   UNL     1      -9.726  53.152  46.638  0.00  0.00    +0.000 A 
ATOM     28  N   UNL     1      -9.606  52.726  45.352  0.00  0.00    +0.000 NA
ATOM     29  C   UNL     1      -8.999  54.246  47.108  0.00  0.00    +0.000 A 
ATOM     30  C   UNL     1      -8.753  53.396  44.542  0.00  0.00    +0.000 A 
ATOM     31  C   UNL     1      -8.129  54.918  46.251  0.00  0.00    +0.000 A 
ATOM     32  C   UNL     1      -8.005  54.489  44.939  0.00  0.00    +0.000 A 
ENDBRANCH  26  27
ENDBRANCH   5  26
TORSDOF 4
ENDMDL
MODEL 3
REMARK VINA RESULT:      -7.9      1.795      3.665
REMARK  Name = 
REMARK  7 active torsions:
REMARK  status: ('A' for Active; 'I' for Inactive)
REMARK    1  A    between atoms: C_6  and  C_10
REMARK    2  A    between atoms: N_17  and  C_20
REMARK    3  A    between atoms: C_19  and  C_21
REMARK    4  A    between atoms: C_20  and  C_22
REMARK    5  A    between atoms: C_21  and  C_23
REMARK    6  A    between atoms: C_21  and  C_24
REMARK    7  A    between atoms: C_21  and  C_25
REMARK                            x       y       z     vdW  Elec       q    Type
REMARK                         _______ _______ _______ _____ _____    ______ ____
ROOT
ATOM      1  C   UNL     1     -10.909  54.979  50.237  0.00  0.00    +0.000 C 
ATOM      2  C   UNL     1     -10.632  54.111  49.091  0.00  0.00    +0.000 C 
ATOM      3  C   UNL     1      -9.924  54.745  51.114  0.00  0.00    +0.000 C 
ATOM      4  O   UNL     1     -11.416  53.949  48.168  0.00  0.00    +0.000 OA
ATOM      5  N   UNL     1      -9.376  53.565  49.255  0.00  0.00    +0.000 N 
ATOM      6  O   UNL     1      -9.840  55.305  52.364  0.00  0.00    +0.000 OA
ATOM      7  C   UNL     1      -8.838  53.809  50.600  0.00  0.00    +0.000 C 
ENDROOT
BRANCH   1  13
ATOM      8  S   UNL     1     -13.764  57.405  49.176  0.00  0.00    +0.000 S 
ATOM      9  O   UNL     1     -14.854  56.615  48.641  0.00  0.00    +0.000 OA
ATOM     10  O   UNL     1     -13.403  58.664  48.553  0.00  0.00    +0.000 OA
ATOM     11  N   UNL     1     -12.436  56.476  49.217  0.00  0.00    +0.000 N 
ATOM     12  C   UNL     1     -14.209  57.792  50.833  0.00  0.00    +0.000 A 
ATOM     13  C   UNL     1     -12.063  55.915  50.329  0.00  0.00    +0.000 C 
ATOM     14  C   UNL     1     -13.596  57.071  51.846  0.00  0.00    +0.000 A 
ATOM     15  C   UNL     1     -15.147  58.795  51.096  0.00  0.00    +0.000 A 
ATOM     16  N   UNL     1     -12.651  56.094  51.560  0.00  0.00    +0.000 N 
ATOM     17  C   UNL     1     -13.936  57.369  53.169  0.00  0.00    +0.000 A 
ATOM     18  C   UNL     1     -15.474  59.087  52.417  0.00  0.00    +0.000 A 
ATOM     19  C   UNL     1     -14.868  58.375  53.454  0.00  0.00    +0.000 A 
ATOM     20  H   UNL     1     -11.909  56.336  48.397  0.00  0.00    +0.000 HD
ATOM     21  H   UNL     1     -12.383  55.489  52.289  0.00  0.00    +0.000 HD
ENDBRANCH   1  13
BRANCH   7  22
ATOM     22  C   UNL     1      -7.371  54.384  50.666  0.00  0.00    +0.000 C 
ATOM     23  C   UNL     1      -6.873  54.513  52.128  0.00  0.00    +0.000 C 
ATOM     24  C   UNL     1      -6.359  53.438  49.987  0.00  0.00    +0.000 C 
ATOM     25  C   UNL     1      -7.277  55.771  50.005  0.00  0.00    +0.000 C 
ENDBRANCH   7  22
BRANCH   5  26
ATOM     26  C   UNL     1      -8.887  52.555  48.320  0.00  0.00    +0.000 C 
BRANCH  26  27
ATOM     27  C   UNL     1      -8.596  53.061  46.914  0.00  0.00    +0.000 A 
ATOM     28  N   UNL     1      -9.049  52.286  45.892  0.00  0.00    +0.000 NA
ATOM     29  C   UNL     1      -7.959  54.278  46.671  0.00  0.00    +0.000 A 
ATOM     30  C   UNL     1      -8.857  52.731  44.628  0.00  0.00    +0.000 A 
ATOM     31  C   UNL     1      -7.776  54.713  45.359  0.00  0.00    +0.000 A 
ATOM     32  C   UNL     1      -8.238  53.928  44.315  0.00  0.00    +0.000 A 
ENDBRANCH  26  27
ENDBRANCH   5  26
TORSDOF 4
ENDMDL
MODEL 4
REMARK VINA RESULT:      -7.7      1.282      3.806
REMARK  Name = 
REMARK  7 active torsions:
REMARK  status: ('A' for Active; 'I' for Inactive)
REMARK    1  A    between atoms: C_6  and  C_10
REMARK    2  A    between atoms: N_17  and  C_20
REMARK    3  A    between atoms: C_19  and  C_21
REMARK    4  A    between atoms: C_20  and  C_22
REMARK    5  A    between atoms: C_21  and  C_23
REMARK    6  A    between atoms: C_21  and  C_24
REMARK    7  A    between atoms: C_21  and  C_25
REMARK                            x       y       z     vdW  Elec       q    Type
REMARK                         _______ _______ _______ _____ _____    ______ ____
ROOT
ATOM      1  C   UNL     1     -11.349  55.829  48.965  0.00  0.00    +0.000 C 
ATOM      2  C   UNL     1     -11.142  55.600  47.533  0.00  0.00    +0.000 C 
ATOM      3  C   UNL     1     -10.503  54.997  49.588  0.00  0.00    +0.000 C 
ATOM      4  O   UNL     1     -11.861  56.077  46.668  0.00  0.00    +0.000 OA
ATOM      5  N   UNL     1     -10.031  54.799  47.377  0.00  0.00    +0.000 N 
ATOM      6  O   UNL     1     -10.422  54.838  50.949  0.00  0.00    +0.000 OA
ATOM      7  C   UNL     1      -9.572  54.234  48.654  0.00  0.00    +0.000 C 
ENDROOT
BRANCH   1  13
ATOM      8  S   UNL     1     -13.445  59.080  49.413  0.00  0.00    +0.000 S 
ATOM      9  O   UNL     1     -14.527  59.056  48.450  0.00  0.00    +0.000 OA
ATOM     10  O   UNL     1     -12.743  60.319  49.691  0.00  0.00    +0.000 OA
ATOM     11  N   UNL     1     -12.341  57.979  48.962  0.00  0.00    +0.000 N 
ATOM     12  C   UNL     1     -14.140  58.559  50.942  0.00  0.00    +0.000 A 
ATOM     13  C   UNL     1     -12.309  56.812  49.534  0.00  0.00    +0.000 C 
ATOM     14  C   UNL     1     -13.885  57.260  51.352  0.00  0.00    +0.000 A 
ATOM     15  C   UNL     1     -14.915  59.441  51.701  0.00  0.00    +0.000 A 
ATOM     16  N   UNL     1     -13.093  56.409  50.591  0.00  0.00    +0.000 N 
ATOM     17  C   UNL     1     -14.428  56.832  52.567  0.00  0.00    +0.000 A 
ATOM     18  C   UNL     1     -15.447  59.006  52.912  0.00  0.00    +0.000 A 
ATOM     19  C   UNL     1     -15.201  57.702  53.346  0.00  0.00    +0.000 A 
ATOM     20  H   UNL     1     -11.693  58.195  48.253  0.00  0.00    +0.000 HD
ATOM     21  H   UNL     1     -13.092  55.453  50.825  0.00  0.00    +0.000 HD
ENDBRANCH   1  13
BRANCH   7  22
ATOM     22  C   UNL     1      -8.035  54.387  48.967  0.00  0.00    +0.000 C 
ATOM     23  C   UNL     1      -7.547  53.311  49.969  0.00  0.00    +0.000 C 
ATOM     24  C   UNL     1      -7.173  54.171  47.706  0.00  0.00    +0.000 C 
ATOM     25  C   UNL     1      -7.713  55.771  49.559  0.00  0.00    +0.000 C 
ENDBRANCH   7  22
BRANCH   5  26
ATOM     26  C   UNL     1      -9.663  54.304  46.054  0.00  0.00    +0.000 C 
BRANCH  26  27
ATOM     27  C   UNL     1     -10.202  52.924  45.705  0.00  0.00    +0.000 A 
ATOM     28  N   UNL     1      -9.411  51.869  46.038  0.00  0.00    +0.000 NA
ATOM     29  C   UNL     1     -11.461  52.732  45.134  0.00  0.00    +0.000 A 
ATOM     30  C   UNL     1      -9.882  50.623  45.793  0.00  0.00    +0.000 A 
ATOM     31  C   UNL     1     -11.921  51.438  44.895  0.00  0.00    +0.000 A 
ATOM     32  C   UNL     1     -11.120  50.360  45.235  0.00  0.00    +0.000 A 
ENDBRANCH  26  27
ENDBRANCH   5  26
TORSDOF 4
ENDMDL
MODEL 5
REMARK VINA RESULT:      -7.6      2.626      3.383
REMARK  Name = 
REMARK  7 active torsions:
REMARK  status: ('A' for Active; 'I' for Inactive)
REMARK    1  A    between atoms: C_6  and  C_10
REMARK    2  A    between atoms: N_17  and  C_20
REMARK    3  A    between atoms: C_19  and  C_21
REMARK    4  A    between atoms: C_20  and  C_22
REMARK    5  A    between atoms: C_21  and  C_23
REMARK    6  A    between atoms: C_21  and  C_24
REMARK    7  A    between atoms: C_21  and  C_25
REMARK                            x       y       z     vdW  Elec       q    Type
REMARK                         _______ _______ _______ _____ _____    ______ ____
ROOT
ATOM      1  C   UNL     1     -10.873  54.680  51.140  0.00  0.00    +0.000 C 
ATOM      2  C   UNL     1     -10.202  54.404  52.412  0.00  0.00    +0.000 C 
ATOM      3  C   UNL     1     -10.324  53.840  50.253  0.00  0.00    +0.000 C 
ATOM      4  O   UNL     1     -10.343  55.097  53.408  0.00  0.00    +0.000 OA
ATOM      5  N   UNL     1      -9.439  53.265  52.262  0.00  0.00    +0.000 N 
ATOM      6  O   UNL     1     -10.618  53.815  48.913  0.00  0.00    +0.000 OA
ATOM      7  C   UNL     1      -9.338  52.848  50.856  0.00  0.00    +0.000 C 
ENDROOT
BRANCH   1  13
ATOM      8  S   UNL     1     -13.291  57.194  49.409  0.00  0.00    +0.000 S 
ATOM      9  O   UNL     1     -14.322  56.435  48.731  0.00  0.00    +0.000 OA
ATOM     10  O   UNL     1     -12.725  58.375  48.784  0.00  0.00    +0.000 OA
ATOM     11  N   UNL     1     -12.067  56.187  49.758  0.00  0.00    +0.000 N 
ATOM     12  C   UNL     1     -13.999  57.736  50.925  0.00  0.00    +0.000 A 
ATOM     13  C   UNL     1     -11.948  55.691  50.954  0.00  0.00    +0.000 C 
ATOM     14  C   UNL     1     -13.639  57.057  52.078  0.00  0.00    +0.000 A 
ATOM     15  C   UNL     1     -14.889  58.814  50.942  0.00  0.00    +0.000 A 
ATOM     16  N   UNL     1     -12.736  56.003  52.039  0.00  0.00    +0.000 N 
ATOM     17  C   UNL     1     -14.191  57.478  53.292  0.00  0.00    +0.000 A 
ATOM     18  C   UNL     1     -15.429  59.227  52.156  0.00  0.00    +0.000 A 
ATOM     19  C   UNL     1     -15.078  58.561  53.332  0.00  0.00    +0.000 A 
ATOM     20  H   UNL     1     -11.413  55.950  49.062  0.00  0.00    +0.000 HD
ATOM     21  H   UNL     1     -12.653  55.440  52.842  0.00  0.00    +0.000 HD
ENDBRANCH   1  13
BRANCH   7  22
ATOM     22  C   UNL     1      -9.646  51.331  50.560  0.00  0.00    +0.000 C 
ATOM     23  C   UNL     1      -8.590  50.397  51.202  0.00  0.00    +0.000 C 
ATOM     24  C   UNL     1     -10.990  50.892  51.179  0.00  0.00    +0.000 C 
ATOM     25  C   UNL     1      -9.679  51.045  49.047  0.00  0.00    +0.000 C 
ENDBRANCH   7  22
BRANCH   5  26
ATOM     26  C   UNL     1      -8.557  52.825  53.339  0.00  0.00    +0.000 C 
BRANCH  26  27
ATOM     27  C   UNL     1      -7.189  53.493  53.371  0.00  0.00    +0.000 A 
ATOM     28  N   UNL     1      -6.982  54.389  54.373  0.00  0.00    +0.000 NA
ATOM     29  C   UNL     1      -6.174  53.168  52.469  0.00  0.00    +0.000 A 
ATOM     30  C   UNL     1      -5.759  54.962  54.465  0.00  0.00    +0.000 A 
ATOM     31  C   UNL     1      -4.924  53.772  52.590  0.00  0.00    +0.000 A 
ATOM     32  C   UNL     1      -4.707  54.684  53.611  0.00  0.00    +0.000 A 
ENDBRANCH  26  27
ENDBRANCH   5  26
TORSDOF 4
ENDMDL
MODEL 6
REMARK VINA RESULT:      -7.6      2.373      3.170
REMARK  Name = 
REMARK  7 active torsions:
REMARK  status: ('A' for Active; 'I' for Inactive)
REMARK    1  A    between atoms: C_6  and  C_10
REMARK    2  A    between atoms: N_17  and  C_20
REMARK    3  A    between atoms: C_19  and  C_21
REMARK    4  A    between atoms: C_20  and  C_22
REMARK    5  A    between atoms: C_21  and  C_23
REMARK    6  A    between atoms: C_21  and  C_24
REMARK    7  A    between atoms: C_21  and  C_25
REMARK                            x       y       z     vdW  Elec       q    Type
REMARK                         _______ _______ _______ _____ _____    ______ ____
ROOT
ATOM      1  C   UNL     1     -10.175  55.035  47.800  0.00  0.00    +0.000 C 
ATOM      2  C   UNL     1      -8.715  54.925  47.817  0.00  0.00    +0.000 C 
ATOM      3  C   UNL     1     -10.545  54.735  46.548  0.00  0.00    +0.000 C 
ATOM      4  O   UNL     1      -8.027  55.284  48.760  0.00  0.00    +0.000 OA
ATOM      5  N   UNL     1      -8.309  54.354  46.629  0.00  0.00    +0.000 N 
ATOM      6  O   UNL     1     -11.834  54.786  46.079  0.00  0.00    +0.000 OA
ATOM      7  C   UNL     1      -9.402  54.278  45.650  0.00  0.00    +0.000 C 
ENDROOT
BRANCH   1  13
ATOM      8  S   UNL     1     -11.723  54.944  51.372  0.00  0.00    +0.000 S 
ATOM      9  O   UNL     1     -10.743  55.467  52.303  0.00  0.00    +0.000 OA
ATOM     10  O   UNL     1     -12.542  53.805  51.739  0.00  0.00    +0.000 OA
ATOM     11  N   UNL     1     -10.962  54.579  49.987  0.00  0.00    +0.000 N 
ATOM     12  C   UNL     1     -12.840  56.263  51.047  0.00  0.00    +0.000 A 
ATOM     13  C   UNL     1     -11.009  55.397  48.978  0.00  0.00    +0.000 C 
ATOM     14  C   UNL     1     -12.706  56.934  49.841  0.00  0.00    +0.000 A 
ATOM     15  C   UNL     1     -13.821  56.603  51.983  0.00  0.00    +0.000 A 
ATOM     16  N   UNL     1     -11.738  56.563  48.918  0.00  0.00    +0.000 N 
ATOM     17  C   UNL     1     -13.589  57.983  49.567  0.00  0.00    +0.000 A 
ATOM     18  C   UNL     1     -14.698  57.645  51.697  0.00  0.00    +0.000 A 
ATOM     19  C   UNL     1     -14.584  58.334  50.488  0.00  0.00    +0.000 A 
ATOM     20  H   UNL     1     -10.462  53.734  49.909  0.00  0.00    +0.000 HD
ATOM     21  H   UNL     1     -11.560  57.177  48.168  0.00  0.00    +0.000 HD
ENDBRANCH   1  13
BRANCH   7  22
ATOM     22  C   UNL     1      -9.614  52.878  44.955  0.00  0.00    +0.000 C 
ATOM     23  C   UNL     1     -10.824  52.898  43.988  0.00  0.00    +0.000 C 
ATOM     24  C   UNL     1      -8.409  52.494  44.071  0.00  0.00    +0.000 C 
ATOM     25  C   UNL     1      -9.848  51.762  45.990  0.00  0.00    +0.000 C 
ENDBRANCH   7  22
BRANCH   5  26
ATOM     26  C   UNL     1      -6.887  54.240  46.318  0.00  0.00    +0.000 C 
BRANCH  26  27
ATOM     27  C   UNL     1      -6.125  53.208  47.138  0.00  0.00    +0.000 A 
ATOM     28  N   UNL     1      -5.083  53.678  47.875  0.00  0.00    +0.000 NA
ATOM     29  C   UNL     1      -6.500  51.865  47.191  0.00  0.00    +0.000 A 
ATOM     30  C   UNL     1      -4.417  52.799  48.660  0.00  0.00    +0.000 A 
ATOM     31  C   UNL     1      -5.797  50.983  48.010  0.00  0.00    +0.000 A 
ATOM     32  C   UNL     1      -4.737  51.458  48.764  0.00  0.00    +0.000 A 
ENDBRANCH  26  27
ENDBRANCH   5  26
TORSDOF 4
ENDMDL
MODEL 7
REMARK VINA RESULT:      -7.5      3.042      7.878
REMARK  Name = 
REMARK  7 active torsions:
REMARK  status: ('A' for Active; 'I' for Inactive)
REMARK    1  A    between atoms: C_6  and  C_10
REMARK    2  A    between atoms: N_17  and  C_20
REMARK    3  A    between atoms: C_19  and  C_21
REMARK    4  A    between atoms: C_20  and  C_22
REMARK    5  A    between atoms: C_21  and  C_23
REMARK    6  A    between atoms: C_21  and  C_24
REMARK    7  A    between atoms: C_21  and  C_25
REMARK                            x       y       z     vdW  Elec       q    Type
REMARK                         _______ _______ _______ _____ _____    ______ ____
ROOT
ATOM      1  C   UNL     1     -10.142  54.609  48.704  0.00  0.00    +0.000 C 
ATOM      2  C   UNL     1     -11.534  54.545  49.151  0.00  0.00    +0.000 C 
ATOM      3  C   UNL     1      -9.461  55.153  49.721  0.00  0.00    +0.000 C 
ATOM      4  O   UNL     1     -12.462  54.248  48.413  0.00  0.00    +0.000 OA
ATOM      5  N   UNL     1     -11.574  54.856  50.493  0.00  0.00    +0.000 N 
ATOM      6  O   UNL     1      -8.123  55.459  49.693  0.00  0.00    +0.000 OA
ATOM      7  C   UNL     1     -10.292  55.387  50.977  0.00  0.00    +0.000 C 
ENDROOT
BRANCH   1  13
ATOM      8  S   UNL     1      -7.858  54.124  45.587  0.00  0.00    +0.000 S 
ATOM      9  O   UNL     1      -6.779  53.229  45.952  0.00  0.00    +0.000 OA
ATOM     10  O   UNL     1      -7.598  55.271  44.738  0.00  0.00    +0.000 OA
ATOM     11  N   UNL     1      -8.550  54.666  46.950  0.00  0.00    +0.000 N 
ATOM     12  C   UNL     1      -9.039  53.141  44.730  0.00  0.00    +0.000 A 
ATOM     13  C   UNL     1      -9.655  54.133  47.381  0.00  0.00    +0.000 C 
ATOM     14  C   UNL     1     -10.179  52.763  45.422  0.00  0.00    +0.000 A 
ATOM     15  C   UNL     1      -8.816  52.770  43.401  0.00  0.00    +0.000 A 
ATOM     16  N   UNL     1     -10.389  53.163  46.735  0.00  0.00    +0.000 N 
ATOM     17  C   UNL     1     -11.129  51.985  44.754  0.00  0.00    +0.000 A 
ATOM     18  C   UNL     1      -9.771  51.999  42.744  0.00  0.00    +0.000 A 
ATOM     19  C   UNL     1     -10.929  51.608  43.419  0.00  0.00    +0.000 A 
ATOM     20  H   UNL     1      -8.133  55.402  47.454  0.00  0.00    +0.000 HD
ATOM     21  H   UNL     1     -11.112  52.724  47.238  0.00  0.00    +0.000 HD
ENDBRANCH   1  13
BRANCH   7  22
ATOM     22  C   UNL     1      -9.720  54.730  52.290  0.00  0.00    +0.000 C 
ATOM     23  C   UNL     1      -8.362  55.354  52.697  0.00  0.00    +0.000 C 
ATOM     24  C   UNL     1     -10.646  54.978  53.500  0.00  0.00    +0.000 C 
ATOM     25  C   UNL     1      -9.518  53.213  52.123  0.00  0.00    +0.000 C 
ENDBRANCH   7  22
BRANCH   5  26
ATOM     26  C   UNL     1     -12.856  54.994  51.177  0.00  0.00    +0.000 C 
BRANCH  26  27
ATOM     27  C   UNL     1     -13.363  56.422  51.324  0.00  0.00    +0.000 A 
ATOM     28  N   UNL     1     -13.562  57.110  50.168  0.00  0.00    +0.000 NA
ATOM     29  C   UNL     1     -13.671  56.986  52.563  0.00  0.00    +0.000 A 
ATOM     30  C   UNL     1     -14.064  58.364  50.258  0.00  0.00    +0.000 A 
ATOM     31  C   UNL     1     -14.189  58.278  52.625  0.00  0.00    +0.000 A 
ATOM     32  C   UNL     1     -14.396  58.982  51.449  0.00  0.00    +0.000 A 
ENDBRANCH  26  27
ENDBRANCH   5  26
TORSDOF 4
ENDMDL
MODEL 8
REMARK VINA RESULT:      -7.5      1.834      2.284
REMARK  Name = 
REMARK  7 active torsions:
REMARK  status: ('A' for Active; 'I' for Inactive)
REMARK    1  A    between atoms: C_6  and  C_10
REMARK    2  A    between atoms: N_17  and  C_20
REMARK    3  A    between atoms: C_19  and  C_21
REMARK    4  A    between atoms: C_20  and  C_22
REMARK    5  A    between atoms: C_21  and  C_23
REMARK    6  A    between atoms: C_21  and  C_24
REMARK    7  A    between atoms: C_21  and  C_25
REMARK                            x       y       z     vdW  Elec       q    Type
REMARK                         _______ _______ _______ _____ _____    ______ ____
ROOT
ATOM      1  C   UNL     1     -11.649  54.908  48.588  0.00  0.00    +0.000 C 
ATOM      2  C   UNL     1     -10.778  53.945  49.264  0.00  0.00    +0.000 C 
ATOM      3  C   UNL     1     -11.392  54.770  47.280  0.00  0.00    +0.000 C 
ATOM      4  O   UNL     1     -10.634  53.909  50.477  0.00  0.00    +0.000 OA
ATOM      5  N   UNL     1     -10.206  53.132  48.309  0.00  0.00    +0.000 N 
ATOM      6  O   UNL     1     -11.946  55.539  46.288  0.00  0.00    +0.000 OA
ATOM      7  C   UNL     1     -10.435  53.632  46.946  0.00  0.00    +0.000 C 
ENDROOT
BRANCH   1  13
ATOM      8  S   UNL     1     -14.610  56.114  50.810  0.00  0.00    +0.000 S 
ATOM      9  O   UNL     1     -14.212  55.993  52.198  0.00  0.00    +0.000 OA
ATOM     10  O   UNL     1     -15.960  55.769  50.407  0.00  0.00    +0.000 OA
ATOM     11  N   UNL     1     -13.586  55.234  49.911  0.00  0.00    +0.000 N 
ATOM     12  C   UNL     1     -14.392  57.807  50.385  0.00  0.00    +0.000 A 
ATOM     13  C   UNL     1     -12.608  55.812  49.278  0.00  0.00    +0.000 C 
ATOM     14  C   UNL     1     -13.276  58.139  49.633  0.00  0.00    +0.000 A 
ATOM     15  C   UNL     1     -15.323  58.764  50.799  0.00  0.00    +0.000 A 
ATOM     16  N   UNL     1     -12.376  57.168  49.215  0.00  0.00    +0.000 N 
ATOM     17  C   UNL     1     -13.090  59.481  49.284  0.00  0.00    +0.000 A 
ATOM     18  C   UNL     1     -15.131  60.095  50.442  0.00  0.00    +0.000 A 
ATOM     19  C   UNL     1     -14.016  60.454  49.682  0.00  0.00    +0.000 A 
ATOM     20  H   UNL     1     -13.705  54.260  49.843  0.00  0.00    +0.000 HD
ATOM     21  H   UNL     1     -11.514  57.469  48.848  0.00  0.00    +0.000 HD
ENDBRANCH   1  13
BRANCH   7  22
ATOM     22  C   UNL     1     -10.979  52.582  45.905  0.00  0.00    +0.000 C 
ATOM     23  C   UNL     1     -11.246  53.232  44.524  0.00  0.00    +0.000 C 
ATOM     24  C   UNL     1      -9.945  51.471  45.624  0.00  0.00    +0.000 C 
ATOM     25  C   UNL     1     -12.289  51.932  46.387  0.00  0.00    +0.000 C 
ENDBRANCH   7  22
BRANCH   5  26
ATOM     26  C   UNL     1      -9.189  52.156  48.690  0.00  0.00    +0.000 C 
BRANCH  26  27
ATOM     27  C   UNL     1      -7.756  52.671  48.668  0.00  0.00    +0.000 A 
ATOM     28  N   UNL     1      -7.229  53.031  49.869  0.00  0.00    +0.000 NA
ATOM     29  C   UNL     1      -6.992  52.716  47.501  0.00  0.00    +0.000 A 
ATOM     30  C   UNL     1      -5.939  53.441  49.896  0.00  0.00    +0.000 A 
ATOM     31  C   UNL     1      -5.665  53.140  47.559  0.00  0.00    +0.000 A 
ATOM     32  C   UNL     1      -5.124  53.506  48.781  0.00  0.00    +0.000 A 
ENDBRANCH  26  27
ENDBRANCH   5  26
TORSDOF 4
ENDMDL
MODEL 9
REMARK VINA RESULT:      -7.5      2.960      7.162
REMARK  Name = 
REMARK  7 active torsions:
REMARK  status: ('A' for Active; 'I' for Inactive)
REMARK    1  A    between atoms: C_6  and  C_10
REMARK    2  A    between atoms: N_17  and  C_20
REMARK    3  A    between atoms: C_19  and  C_21
REMARK    4  A    between atoms: C_20  and  C_22
REMARK    5  A    between atoms: C_21  and  C_23
REMARK    6  A    between atoms: C_21  and  C_24
REMARK    7  A    between atoms: C_21  and  C_25
REMARK                            x       y       z     vdW  Elec       q    Type
REMARK                         _______ _______ _______ _____ _____    ______ ____
ROOT
ATOM      1  C   UNL     1      -9.417  54.250  50.445  0.00  0.00    +0.000 C 
ATOM      2  C   UNL     1     -10.808  54.681  50.596  0.00  0.00    +0.000 C 
ATOM      3  C   UNL     1      -9.348  53.668  49.241  0.00  0.00    +0.000 C 
ATOM      4  O   UNL     1     -11.266  55.111  51.644  0.00  0.00    +0.000 OA
ATOM      5  N   UNL     1     -11.445  54.524  49.383  0.00  0.00    +0.000 N 
ATOM      6  O   UNL     1      -8.231  53.057  48.729  0.00  0.00    +0.000 OA
ATOM      7  C   UNL     1     -10.632  53.760  48.426  0.00  0.00    +0.000 C 
ENDROOT
BRANCH   1  13
ATOM      8  S   UNL     1      -7.418  55.816  53.398  0.00  0.00    +0.000 S 
ATOM      9  O   UNL     1      -8.083  55.459  54.634  0.00  0.00    +0.000 OA
ATOM     10  O   UNL     1      -6.864  57.146  53.226  0.00  0.00    +0.000 OA
ATOM     11  N   UNL     1      -8.447  55.549  52.173  0.00  0.00    +0.000 N 
ATOM     12  C   UNL     1      -6.069  54.700  53.229  0.00  0.00    +0.000 A 
ATOM     13  C   UNL     1      -8.350  54.466  51.460  0.00  0.00    +0.000 C 
ATOM     14  C   UNL     1      -6.212  53.653  52.331  0.00  0.00    +0.000 A 
ATOM     15  C   UNL     1      -4.904  54.883  53.979  0.00  0.00    +0.000 A 
ATOM     16  N   UNL     1      -7.371  53.505  51.580  0.00  0.00    +0.000 N 
ATOM     17  C   UNL     1      -5.148  52.759  52.183  0.00  0.00    +0.000 A 
ATOM     18  C   UNL     1      -3.848  53.990  53.820  0.00  0.00    +0.000 A 
ATOM     19  C   UNL     1      -3.969  52.929  52.920  0.00  0.00    +0.000 A 
ATOM     20  H   UNL     1      -9.147  56.209  51.967  0.00  0.00    +0.000 HD
ATOM     21  H   UNL     1      -7.501  52.655  51.101  0.00  0.00    +0.000 HD
ENDBRANCH   1  13
BRANCH   7  22
ATOM     22  C   UNL     1     -10.472  54.395  46.992  0.00  0.00    +0.000 C 
ATOM     23  C   UNL     1     -11.786  55.060  46.512  0.00  0.00    +0.000 C 
ATOM     24  C   UNL     1      -9.430  55.533  46.987  0.00  0.00    +0.000 C 
ATOM     25  C   UNL     1     -10.061  53.340  45.949  0.00  0.00    +0.000 C 
ENDBRANCH   7  22
BRANCH   5  26
ATOM     26  C   UNL     1     -12.882  54.758  49.273  0.00  0.00    +0.000 C 
BRANCH  26  27
ATOM     27  C   UNL     1     -13.341  56.162  49.643  0.00  0.00    +0.000 A 
ATOM     28  N   UNL     1     -14.287  56.248  50.616  0.00  0.00    +0.000 NA
ATOM     29  C   UNL     1     -12.786  57.308  49.070  0.00  0.00    +0.000 A 
ATOM     30  C   UNL     1     -14.679  57.483  51.009  0.00  0.00    +0.000 A 
ATOM     31  C   UNL     1     -13.207  58.566  49.496  0.00  0.00    +0.000 A 
ATOM     32  C   UNL     1     -14.169  58.658  50.489  0.00  0.00    +0.000 A 
ENDBRANCH  26  27
ENDBRANCH   5  26
TORSDOF 4
ENDMDL
