MODEL 1
REMARK VINA RESULT:      -8.1      0.000      0.000
REMARK  Name = 
REMARK  11 active torsions:
REMARK  status: ('A' for Active; 'I' for Inactive)
REMARK    1  A    between atoms: C_6  and  C_10
REMARK    2  A    between atoms: N_17  and  C_20
REMARK    3  A    between atoms: C_19  and  C_21
REMARK    4  A    between atoms: C_20  and  C_22
REMARK    5  A    between atoms: C_21  and  C_23
REMARK    6  A    between atoms: C_21  and  C_24
REMARK    7  A    between atoms: C_21  and  C_25
REMARK    8  A    between atoms: C_22  and  C_26
REMARK    9  A    between atoms: C_26  and  C_27
REMARK   10  A    between atoms: C_26  and  C_28
REMARK   11  A    between atoms: C_26  and  C_29
REMARK                            x       y       z     vdW  Elec       q    Type
REMARK                         _______ _______ _______ _____ _____    ______ ____
ROOT
ATOM      1  C   UNL     1     -10.812  55.390  47.949  0.00  0.00    +0.000 C 
ATOM      2  C   UNL     1     -12.158  55.944  47.805  0.00  0.00    +0.000 C 
ATOM      3  C   UNL     1     -10.425  55.684  49.198  0.00  0.00    +0.000 C 
ATOM      4  O   UNL     1     -12.793  55.896  46.761  0.00  0.00    +0.000 OA
ATOM      5  N   UNL     1     -12.528  56.511  49.007  0.00  0.00    +0.000 N 
ATOM      6  O   UNL     1      -9.187  55.407  49.725  0.00  0.00    +0.000 OA
ATOM      7  C   UNL     1     -11.491  56.376  50.044  0.00  0.00    +0.000 C 
ENDROOT
BRANCH   1  13
ATOM      8  S   UNL     1      -7.955  54.327  45.525  0.00  0.00    +0.000 S 
ATOM      9  O   UNL     1      -7.000  53.506  46.250  0.00  0.00    +0.000 OA
ATOM     10  O   UNL     1      -7.493  55.307  44.566  0.00  0.00    +0.000 OA
ATOM     11  N   UNL     1      -8.880  55.096  46.611  0.00  0.00    +0.000 N 
ATOM     12  C   UNL     1      -8.971  53.207  44.629  0.00  0.00    +0.000 A 
ATOM     13  C   UNL     1     -10.083  54.673  46.866  0.00  0.00    +0.000 C 
ATOM     14  C   UNL     1     -10.252  52.978  45.103  0.00  0.00    +0.000 A 
ATOM     15  C   UNL     1      -8.482  52.588  43.474  0.00  0.00    +0.000 A 
ATOM     16  N   UNL     1     -10.726  53.628  46.237  0.00  0.00    +0.000 N 
ATOM     17  C   UNL     1     -11.069  52.091  44.395  0.00  0.00    +0.000 A 
ATOM     18  C   UNL     1      -9.308  51.712  42.775  0.00  0.00    +0.000 A 
ATOM     19  C   UNL     1     -10.602  51.464  43.234  0.00  0.00    +0.000 A 
ATOM     20  H   UNL     1      -8.531  55.888  47.080  0.00  0.00    +0.000 HD
ATOM     21  H   UNL     1     -11.581  53.321  46.618  0.00  0.00    +0.000 HD
ENDBRANCH   1  13
BRANCH   7  22
ATOM     22  C   UNL     1     -11.895  55.593  51.356  0.00  0.00    +0.000 C 
ATOM     23  C   UNL     1     -12.481  54.199  51.017  0.00  0.00    +0.000 C 
ATOM     24  C   UNL     1     -10.682  55.282  52.259  0.00  0.00    +0.000 C 
ATOM     25  C   UNL     1     -12.935  56.370  52.185  0.00  0.00    +0.000 C 
ENDBRANCH   7  22
BRANCH   5  26
ATOM     26  C   UNL     1     -13.833  57.132  49.149  0.00  0.00    +0.000 C 
BRANCH  26  27
ATOM     27  C   UNL     1     -13.980  58.497  48.475  0.00  0.00    +0.000 C 
BRANCH  27  28
ATOM     28  C   UNL     1     -14.165  59.677  49.470  0.00  0.00    +0.000 C 
ATOM     29  C   UNL     1     -14.912  59.229  50.739  0.00  0.00    +0.000 C 
ATOM     30  C   UNL     1     -12.775  60.190  49.889  0.00  0.00    +0.000 C 
ATOM     31  C   UNL     1     -14.937  60.834  48.812  0.00  0.00    +0.000 C 
ENDBRANCH  27  28
ENDBRANCH  26  27
ENDBRANCH   5  26
TORSDOF 5
ENDMDL
MODEL 2
REMARK VINA RESULT:      -7.9      3.495      6.016
REMARK  Name = 
REMARK  11 active torsions:
REMARK  status: ('A' for Active; 'I' for Inactive)
REMARK    1  A    between atoms: C_6  and  C_10
REMARK    2  A    between atoms: N_17  and  C_20
REMARK    3  A    between atoms: C_19  and  C_21
REMARK    4  A    between atoms: C_20  and  C_22
REMARK    5  A    between atoms: C_21  and  C_23
REMARK    6  A    between atoms: C_21  and  C_24
REMARK    7  A    between atoms: C_21  and  C_25
REMARK    8  A    between atoms: C_22  and  C_26
REMARK    9  A    between atoms: C_26  and  C_27
REMARK   10  A    between atoms: C_26  and  C_28
REMARK   11  A    between atoms: C_26  and  C_29
REMARK                            x       y       z     vdW  Elec       q    Type
REMARK                         _______ _______ _______ _____ _____    ______ ____
ROOT
ATOM      1  C   UNL     1     -10.086  54.982  50.580  0.00  0.00    +0.000 C 
ATOM      2  C   UNL     1     -11.134  55.254  51.565  0.00  0.00    +0.000 C 
ATOM      3  C   UNL     1     -10.709  54.894  49.396  0.00  0.00    +0.000 C 
ATOM      4  O   UNL     1     -10.916  55.346  52.764  0.00  0.00    +0.000 OA
ATOM      5  N   UNL     1     -12.339  55.358  50.902  0.00  0.00    +0.000 N 
ATOM      6  O   UNL     1     -10.099  54.574  48.208  0.00  0.00    +0.000 OA
ATOM      7  C   UNL     1     -12.207  55.184  49.446  0.00  0.00    +0.000 C 
ENDROOT
BRANCH   1  13
ATOM      8  S   UNL     1      -6.282  54.246  50.187  0.00  0.00    +0.000 S 
ATOM      9  O   UNL     1      -5.656  55.353  49.482  0.00  0.00    +0.000 OA
ATOM     10  O   UNL     1      -5.892  52.884  49.897  0.00  0.00    +0.000 OA
ATOM     11  N   UNL     1      -7.884  54.358  49.971  0.00  0.00    +0.000 N 
ATOM     12  C   UNL     1      -5.935  54.502  51.891  0.00  0.00    +0.000 A 
ATOM     13  C   UNL     1      -8.643  54.831  50.915  0.00  0.00    +0.000 C 
ATOM     14  C   UNL     1      -6.963  54.970  52.695  0.00  0.00    +0.000 A 
ATOM     15  C   UNL     1      -4.660  54.227  52.396  0.00  0.00    +0.000 A 
ATOM     16  N   UNL     1      -8.230  55.208  52.175  0.00  0.00    +0.000 N 
ATOM     17  C   UNL     1      -6.697  55.173  54.053  0.00  0.00    +0.000 A 
ATOM     18  C   UNL     1      -4.412  54.427  53.751  0.00  0.00    +0.000 A 
ATOM     19  C   UNL     1      -5.430  54.899  54.580  0.00  0.00    +0.000 A 
ATOM     20  H   UNL     1      -8.286  54.066  49.121  0.00  0.00    +0.000 HD
ATOM     21  H   UNL     1      -8.879  55.679  52.748  0.00  0.00    +0.000 HD
ENDBRANCH   1  13
BRANCH   7  22
ATOM     22  C   UNL     1     -12.669  56.393  48.540  0.00  0.00    +0.000 C 
ATOM     23  C   UNL     1     -12.281  56.160  47.057  0.00  0.00    +0.000 C 
ATOM     24  C   UNL     1     -14.203  56.559  48.505  0.00  0.00    +0.000 C 
ATOM     25  C   UNL     1     -12.044  57.723  49.003  0.00  0.00    +0.000 C 
ENDBRANCH   7  22
BRANCH   5  26
ATOM     26  C   UNL     1     -13.556  55.637  51.644  0.00  0.00    +0.000 C 
BRANCH  26  27
ATOM     27  C   UNL     1     -13.603  57.006  52.323  0.00  0.00    +0.000 C 
BRANCH  27  28
ATOM     28  C   UNL     1     -14.959  57.749  52.158  0.00  0.00    +0.000 C 
ATOM     29  C   UNL     1     -16.044  56.815  51.592  0.00  0.00    +0.000 C 
ATOM     30  C   UNL     1     -15.424  58.237  53.543  0.00  0.00    +0.000 C 
ATOM     31  C   UNL     1     -14.809  58.969  51.233  0.00  0.00    +0.000 C 
ENDBRANCH  27  28
ENDBRANCH  26  27
ENDBRANCH   5  26
TORSDOF 5
ENDMDL
MODEL 3
REMARK VINA RESULT:      -7.6      3.036      7.867
REMARK  Name = 
REMARK  11 active torsions:
REMARK  status: ('A' for Active; 'I' for Inactive)
REMARK    1  A    between atoms: C_6  and  C_10
REMARK    2  A    between atoms: N_17  and  C_20
REMARK    3  A    between atoms: C_19  and  C_21
REMARK    4  A    between atoms: C_20  and  C_22
REMARK    5  A    between atoms: C_21  and  C_23
REMARK    6  A    between atoms: C_21  and  C_24
REMARK    7  A    between atoms: C_21  and  C_25
REMARK    8  A    between atoms: C_22  and  C_26
REMARK    9  A    between atoms: C_26  and  C_27
REMARK   10  A    between atoms: C_26  and  C_28
REMARK   11  A    between atoms: C_26  and  C_29
REMARK                            x       y       z     vdW  Elec       q    Type
REMARK                         _______ _______ _______ _____ _____    ______ ____
ROOT
ATOM      1  C   UNL     1     -11.486  55.890  48.840  0.00  0.00    +0.000 C 
ATOM      2  C   UNL     1     -10.496  55.111  49.585  0.00  0.00    +0.000 C 
ATOM      3  C   UNL     1     -11.341  55.534  47.556  0.00  0.00    +0.000 C 
ATOM      4  O   UNL     1     -10.322  55.228  50.790  0.00  0.00    +0.000 OA
ATOM      5  N   UNL     1      -9.831  54.288  48.699  0.00  0.00    +0.000 N 
ATOM      6  O   UNL     1     -12.031  56.085  46.504  0.00  0.00    +0.000 OA
ATOM      7  C   UNL     1     -10.317  54.427  47.317  0.00  0.00    +0.000 C 
ENDROOT
BRANCH   1  13
ATOM      8  S   UNL     1     -13.506  59.165  49.434  0.00  0.00    +0.000 S 
ATOM      9  O   UNL     1     -14.619  59.210  48.500  0.00  0.00    +0.000 OA
ATOM     10  O   UNL     1     -12.759  60.366  49.736  0.00  0.00    +0.000 OA
ATOM     11  N   UNL     1     -12.457  58.048  48.908  0.00  0.00    +0.000 N 
ATOM     12  C   UNL     1     -14.181  58.613  50.961  0.00  0.00    +0.000 A 
ATOM     13  C   UNL     1     -12.415  56.873  49.462  0.00  0.00    +0.000 C 
ATOM     14  C   UNL     1     -13.931  57.303  51.340  0.00  0.00    +0.000 A 
ATOM     15  C   UNL     1     -14.933  59.487  51.752  0.00  0.00    +0.000 A 
ATOM     16  N   UNL     1     -13.155  56.462  50.550  0.00  0.00    +0.000 N 
ATOM     17  C   UNL     1     -14.460  56.856  52.555  0.00  0.00    +0.000 A 
ATOM     18  C   UNL     1     -15.448  59.030  52.961  0.00  0.00    +0.000 A 
ATOM     19  C   UNL     1     -15.211  57.715  53.364  0.00  0.00    +0.000 A 
ATOM     20  H   UNL     1     -11.846  58.260  48.165  0.00  0.00    +0.000 HD
ATOM     21  H   UNL     1     -13.132  55.506  50.785  0.00  0.00    +0.000 HD
ENDBRANCH   1  13
BRANCH   7  22
ATOM     22  C   UNL     1     -10.904  53.130  46.634  0.00  0.00    +0.000 C 
ATOM     23  C   UNL     1     -11.381  53.426  45.189  0.00  0.00    +0.000 C 
ATOM     24  C   UNL     1      -9.847  52.018  46.461  0.00  0.00    +0.000 C 
ATOM     25  C   UNL     1     -12.091  52.555  47.430  0.00  0.00    +0.000 C 
ENDBRANCH   7  22
BRANCH   5  26
ATOM     26  C   UNL     1      -8.793  53.391  49.178  0.00  0.00    +0.000 C 
BRANCH  26  27
ATOM     27  C   UNL     1      -7.360  53.869  48.934  0.00  0.00    +0.000 C 
BRANCH  27  28
ATOM     28  C   UNL     1      -6.668  54.461  50.193  0.00  0.00    +0.000 C 
ATOM     29  C   UNL     1      -7.163  53.778  51.480  0.00  0.00    +0.000 C 
ATOM     30  C   UNL     1      -5.151  54.222  50.079  0.00  0.00    +0.000 C 
ATOM     31  C   UNL     1      -6.918  55.976  50.297  0.00  0.00    +0.000 C 
ENDBRANCH  27  28
ENDBRANCH  26  27
ENDBRANCH   5  26
TORSDOF 5
ENDMDL
MODEL 4
REMARK VINA RESULT:      -7.5      3.258      7.599
REMARK  Name = 
REMARK  11 active torsions:
REMARK  status: ('A' for Active; 'I' for Inactive)
REMARK    1  A    between atoms: C_6  and  C_10
REMARK    2  A    between atoms: N_17  and  C_20
REMARK    3  A    between atoms: C_19  and  C_21
REMARK    4  A    between atoms: C_20  and  C_22
REMARK    5  A    between atoms: C_21  and  C_23
REMARK    6  A    between atoms: C_21  and  C_24
REMARK    7  A    between atoms: C_21  and  C_25
REMARK    8  A    between atoms: C_22  and  C_26
REMARK    9  A    between atoms: C_26  and  C_27
REMARK   10  A    between atoms: C_26  and  C_28
REMARK   11  A    between atoms: C_26  and  C_29
REMARK                            x       y       z     vdW  Elec       q    Type
REMARK                         _______ _______ _______ _____ _____    ______ ____
ROOT
ATOM      1  C   UNL     1     -12.405  54.323  50.084  0.00  0.00    +0.000 C 
ATOM      2  C   UNL     1     -12.097  53.991  48.692  0.00  0.00    +0.000 C 
ATOM      3  C   UNL     1     -11.989  53.276  50.812  0.00  0.00    +0.000 C 
ATOM      4  O   UNL     1     -12.391  54.714  47.752  0.00  0.00    +0.000 OA
ATOM      5  N   UNL     1     -11.465  52.765  48.666  0.00  0.00    +0.000 N 
ATOM      6  O   UNL     1     -12.157  53.145  52.168  0.00  0.00    +0.000 OA
ATOM      7  C   UNL     1     -11.284  52.187  50.008  0.00  0.00    +0.000 C 
ENDROOT
BRANCH   1  13
ATOM      8  S   UNL     1     -14.400  56.867  52.255  0.00  0.00    +0.000 S 
ATOM      9  O   UNL     1     -13.546  57.342  53.331  0.00  0.00    +0.000 OA
ATOM     10  O   UNL     1     -15.796  56.582  52.504  0.00  0.00    +0.000 OA
ATOM     11  N   UNL     1     -13.726  55.530  51.635  0.00  0.00    +0.000 N 
ATOM     12  C   UNL     1     -14.369  58.122  51.025  0.00  0.00    +0.000 A 
ATOM     13  C   UNL     1     -13.067  55.585  50.515  0.00  0.00    +0.000 C 
ATOM     14  C   UNL     1     -13.615  57.890  49.886  0.00  0.00    +0.000 A 
ATOM     15  C   UNL     1     -15.097  59.302  51.209  0.00  0.00    +0.000 A 
ATOM     16  N   UNL     1     -12.923  56.696  49.712  0.00  0.00    +0.000 N 
ATOM     17  C   UNL     1     -13.587  58.881  48.899  0.00  0.00    +0.000 A 
ATOM     18  C   UNL     1     -15.066  60.277  50.216  0.00  0.00    +0.000 A 
ATOM     19  C   UNL     1     -14.312  60.067  49.061  0.00  0.00    +0.000 A 
ATOM     20  H   UNL     1     -13.815  54.671  52.108  0.00  0.00    +0.000 HD
ATOM     21  H   UNL     1     -12.286  56.640  48.964  0.00  0.00    +0.000 HD
ENDBRANCH   1  13
BRANCH   7  22
ATOM     22  C   UNL     1      -9.800  51.896  50.464  0.00  0.00    +0.000 C 
ATOM     23  C   UNL     1      -9.747  51.462  51.951  0.00  0.00    +0.000 C 
ATOM     24  C   UNL     1      -9.165  50.711  49.704  0.00  0.00    +0.000 C 
ATOM     25  C   UNL     1      -8.896  53.131  50.285  0.00  0.00    +0.000 C 
ENDBRANCH   7  22
BRANCH   5  26
ATOM     26  C   UNL     1     -11.035  52.195  47.401  0.00  0.00    +0.000 C 
BRANCH  26  27
ATOM     27  C   UNL     1      -9.631  52.600  46.950  0.00  0.00    +0.000 C 
BRANCH  27  28
ATOM     28  C   UNL     1      -9.612  53.588  45.750  0.00  0.00    +0.000 C 
ATOM     29  C   UNL     1     -10.957  53.586  45.000  0.00  0.00    +0.000 C 
ATOM     30  C   UNL     1      -9.367  55.010  46.287  0.00  0.00    +0.000 C 
ATOM     31  C   UNL     1      -8.485  53.235  44.764  0.00  0.00    +0.000 C 
ENDBRANCH  27  28
ENDBRANCH  26  27
ENDBRANCH   5  26
TORSDOF 5
ENDMDL
MODEL 5
REMARK VINA RESULT:      -7.4      3.612      6.518
REMARK  Name = 
REMARK  11 active torsions:
REMARK  status: ('A' for Active; 'I' for Inactive)
REMARK    1  A    between atoms: C_6  and  C_10
REMARK    2  A    between atoms: N_17  and  C_20
REMARK    3  A    between atoms: C_19  and  C_21
REMARK    4  A    between atoms: C_20  and  C_22
REMARK    5  A    between atoms: C_21  and  C_23
REMARK    6  A    between atoms: C_21  and  C_24
REMARK    7  A    between atoms: C_21  and  C_25
REMARK    8  A    between atoms: C_22  and  C_26
REMARK    9  A    between atoms: C_26  and  C_27
REMARK   10  A    between atoms: C_26  and  C_28
REMARK   11  A    between atoms: C_26  and  C_29
REMARK                            x       y       z     vdW  Elec       q    Type
REMARK                         _______ _______ _______ _____ _____    ______ ____
ROOT
ATOM      1  C   UNL     1     -10.699  53.736  50.473  0.00  0.00    +0.000 C 
ATOM      2  C   UNL     1     -11.767  54.650  50.880  0.00  0.00    +0.000 C 
ATOM      3  C   UNL     1     -10.942  53.436  49.189  0.00  0.00    +0.000 C 
ATOM      4  O   UNL     1     -11.877  55.085  52.017  0.00  0.00    +0.000 OA
ATOM      5  N   UNL     1     -12.579  54.886  49.789  0.00  0.00    +0.000 N 
ATOM      6  O   UNL     1     -10.216  52.545  48.438  0.00  0.00    +0.000 OA
ATOM      7  C   UNL     1     -12.128  54.179  48.579  0.00  0.00    +0.000 C 
ENDROOT
BRANCH   1  13
ATOM      8  S   UNL     1      -8.262  51.355  52.359  0.00  0.00    +0.000 S 
ATOM      9  O   UNL     1      -7.233  50.904  51.437  0.00  0.00    +0.000 OA
ATOM     10  O   UNL     1      -8.834  50.436  53.318  0.00  0.00    +0.000 OA
ATOM     11  N   UNL     1      -9.477  51.979  51.487  0.00  0.00    +0.000 N 
ATOM     12  C   UNL     1      -7.533  52.651  53.297  0.00  0.00    +0.000 A 
ATOM     13  C   UNL     1      -9.611  53.268  51.375  0.00  0.00    +0.000 C 
ATOM     14  C   UNL     1      -7.904  53.952  52.996  0.00  0.00    +0.000 A 
ATOM     15  C   UNL     1      -6.619  52.353  54.312  0.00  0.00    +0.000 A 
ATOM     16  N   UNL     1      -8.837  54.221  52.001  0.00  0.00    +0.000 N 
ATOM     17  C   UNL     1      -7.332  54.989  53.740  0.00  0.00    +0.000 A 
ATOM     18  C   UNL     1      -6.063  53.395  55.049  0.00  0.00    +0.000 A 
ATOM     19  C   UNL     1      -6.420  54.713  54.763  0.00  0.00    +0.000 A 
ATOM     20  H   UNL     1     -10.117  51.380  51.039  0.00  0.00    +0.000 HD
ATOM     21  H   UNL     1      -8.954  55.159  51.724  0.00  0.00    +0.000 HD
ENDBRANCH   1  13
BRANCH   7  22
ATOM     22  C   UNL     1     -11.767  55.071  47.327  0.00  0.00    +0.000 C 
ATOM     23  C   UNL     1     -10.347  55.678  47.464  0.00  0.00    +0.000 C 
ATOM     24  C   UNL     1     -11.704  54.259  46.016  0.00  0.00    +0.000 C 
ATOM     25  C   UNL     1     -12.772  56.223  47.139  0.00  0.00    +0.000 C 
ENDBRANCH   7  22
BRANCH   5  26
ATOM     26  C   UNL     1     -13.721  55.775  49.912  0.00  0.00    +0.000 C 
BRANCH  26  27
ATOM     27  C   UNL     1     -13.412  57.152  50.499  0.00  0.00    +0.000 C 
BRANCH  27  28
ATOM     28  C   UNL     1     -14.525  57.707  51.432  0.00  0.00    +0.000 C 
ATOM     29  C   UNL     1     -14.909  59.149  51.051  0.00  0.00    +0.000 C 
ATOM     30  C   UNL     1     -15.777  56.824  51.284  0.00  0.00    +0.000 C 
ATOM     31  C   UNL     1     -14.075  57.676  52.903  0.00  0.00    +0.000 C 
ENDBRANCH  27  28
ENDBRANCH  26  27
ENDBRANCH   5  26
TORSDOF 5
ENDMDL
MODEL 6
REMARK VINA RESULT:      -7.4      3.018      7.933
REMARK  Name = 
REMARK  11 active torsions:
REMARK  status: ('A' for Active; 'I' for Inactive)
REMARK    1  A    between atoms: C_6  and  C_10
REMARK    2  A    between atoms: N_17  and  C_20
REMARK    3  A    between atoms: C_19  and  C_21
REMARK    4  A    between atoms: C_20  and  C_22
REMARK    5  A    between atoms: C_21  and  C_23
REMARK    6  A    between atoms: C_21  and  C_24
REMARK    7  A    between atoms: C_21  and  C_25
REMARK    8  A    between atoms: C_22  and  C_26
REMARK    9  A    between atoms: C_26  and  C_27
REMARK   10  A    between atoms: C_26  and  C_28
REMARK   11  A    between atoms: C_26  and  C_29
REMARK                            x       y       z     vdW  Elec       q    Type
REMARK                         _______ _______ _______ _____ _____    ______ ____
ROOT
ATOM      1  C   UNL     1     -10.633  55.716  48.191  0.00  0.00    +0.000 C 
ATOM      2  C   UNL     1      -9.223  55.499  48.520  0.00  0.00    +0.000 C 
ATOM      3  C   UNL     1     -10.771  55.349  46.909  0.00  0.00    +0.000 C 
ATOM      4  O   UNL     1      -8.739  55.780  49.607  0.00  0.00    +0.000 OA
ATOM      5  N   UNL     1      -8.593  54.967  47.413  0.00  0.00    +0.000 N 
ATOM      6  O   UNL     1     -11.928  55.463  46.179  0.00  0.00    +0.000 OA
ATOM      7  C   UNL     1      -9.508  54.770  46.276  0.00  0.00    +0.000 C 
ENDROOT
BRANCH   1  13
ATOM      8  S   UNL     1     -13.080  55.938  51.212  0.00  0.00    +0.000 S 
ATOM      9  O   UNL     1     -12.312  56.143  52.429  0.00  0.00    +0.000 OA
ATOM     10  O   UNL     1     -14.223  55.051  51.212  0.00  0.00    +0.000 OA
ATOM     11  N   UNL     1     -12.062  55.431  50.057  0.00  0.00    +0.000 N 
ATOM     12  C   UNL     1     -13.689  57.522  50.754  0.00  0.00    +0.000 A 
ATOM     13  C   UNL     1     -11.640  56.256  49.145  0.00  0.00    +0.000 C 
ATOM     14  C   UNL     1     -13.076  58.166  49.691  0.00  0.00    +0.000 A 
ATOM     15  C   UNL     1     -14.762  58.088  51.449  0.00  0.00    +0.000 A 
ATOM     16  N   UNL     1     -12.030  57.569  48.996  0.00  0.00    +0.000 N 
ATOM     17  C   UNL     1     -13.557  59.425  49.317  0.00  0.00    +0.000 A 
ATOM     18  C   UNL     1     -15.235  59.338  51.062  0.00  0.00    +0.000 A 
ATOM     19  C   UNL     1     -14.633  60.007  49.996  0.00  0.00    +0.000 A 
ATOM     20  H   UNL     1     -11.762  54.493  50.045  0.00  0.00    +0.000 HD
ATOM     21  H   UNL     1     -11.533  58.125  48.352  0.00  0.00    +0.000 HD
ENDBRANCH   1  13
BRANCH   7  22
ATOM     22  C   UNL     1      -9.665  53.293  45.738  0.00  0.00    +0.000 C 
ATOM     23  C   UNL     1     -10.761  53.211  44.644  0.00  0.00    +0.000 C 
ATOM     24  C   UNL     1      -8.392  52.777  45.034  0.00  0.00    +0.000 C 
ATOM     25  C   UNL     1     -10.031  52.311  46.867  0.00  0.00    +0.000 C 
ENDBRANCH   7  22
BRANCH   5  26
ATOM     26  C   UNL     1      -7.178  54.644  47.466  0.00  0.00    +0.000 C 
BRANCH  26  27
ATOM     27  C   UNL     1      -6.826  53.408  48.296  0.00  0.00    +0.000 C 
BRANCH  27  28
ATOM     28  C   UNL     1      -5.800  53.680  49.432  0.00  0.00    +0.000 C 
ATOM     29  C   UNL     1      -6.396  53.361  50.815  0.00  0.00    +0.000 C 
ATOM     30  C   UNL     1      -4.576  52.771  49.218  0.00  0.00    +0.000 C 
ATOM     31  C   UNL     1      -5.331  55.146  49.410  0.00  0.00    +0.000 C 
ENDBRANCH  27  28
ENDBRANCH  26  27
ENDBRANCH   5  26
TORSDOF 5
ENDMDL
MODEL 7
REMARK VINA RESULT:      -7.4      2.617      7.948
REMARK  Name = 
REMARK  11 active torsions:
REMARK  status: ('A' for Active; 'I' for Inactive)
REMARK    1  A    between atoms: C_6  and  C_10
REMARK    2  A    between atoms: N_17  and  C_20
REMARK    3  A    between atoms: C_19  and  C_21
REMARK    4  A    between atoms: C_20  and  C_22
REMARK    5  A    between atoms: C_21  and  C_23
REMARK    6  A    between atoms: C_21  and  C_24
REMARK    7  A    between atoms: C_21  and  C_25
REMARK    8  A    between atoms: C_22  and  C_26
REMARK    9  A    between atoms: C_26  and  C_27
REMARK   10  A    between atoms: C_26  and  C_28
REMARK   11  A    between atoms: C_26  and  C_29
REMARK                            x       y       z     vdW  Elec       q    Type
REMARK                         _______ _______ _______ _____ _____    ______ ____
ROOT
ATOM      1  C   UNL     1     -11.665  55.606  48.876  0.00  0.00    +0.000 C 
ATOM      2  C   UNL     1     -11.493  55.400  47.438  0.00  0.00    +0.000 C 
ATOM      3  C   UNL     1     -10.921  54.664  49.474  0.00  0.00    +0.000 C 
ATOM      4  O   UNL     1     -12.076  56.064  46.593  0.00  0.00    +0.000 OA
ATOM      5  N   UNL     1     -10.608  54.358  47.249  0.00  0.00    +0.000 N 
ATOM      6  O   UNL     1     -10.858  54.455  50.830  0.00  0.00    +0.000 OA
ATOM      7  C   UNL     1     -10.110  53.797  48.515  0.00  0.00    +0.000 C 
ENDROOT
BRANCH   1  13
ATOM      8  S   UNL     1     -13.458  59.025  49.389  0.00  0.00    +0.000 S 
ATOM      9  O   UNL     1     -14.560  59.127  48.447  0.00  0.00    +0.000 OA
ATOM     10  O   UNL     1     -12.631  60.177  49.671  0.00  0.00    +0.000 OA
ATOM     11  N   UNL     1     -12.485  57.828  48.893  0.00  0.00    +0.000 N 
ATOM     12  C   UNL     1     -14.177  58.552  50.922  0.00  0.00    +0.000 A 
ATOM     13  C   UNL     1     -12.528  56.664  49.471  0.00  0.00    +0.000 C 
ATOM     14  C   UNL     1     -14.020  57.237  51.330  0.00  0.00    +0.000 A 
ATOM     15  C   UNL     1     -14.872  59.492  51.690  0.00  0.00    +0.000 A 
ATOM     16  N   UNL     1     -13.300  56.328  50.563  0.00  0.00    +0.000 N 
ATOM     17  C   UNL     1     -14.586  56.853  52.550  0.00  0.00    +0.000 A 
ATOM     18  C   UNL     1     -15.423  59.098  52.905  0.00  0.00    +0.000 A 
ATOM     19  C   UNL     1     -15.280  57.778  53.336  0.00  0.00    +0.000 A 
ATOM     20  H   UNL     1     -11.857  57.982  48.150  0.00  0.00    +0.000 HD
ATOM     21  H   UNL     1     -13.345  55.378  50.817  0.00  0.00    +0.000 HD
ENDBRANCH   1  13
BRANCH   7  22
ATOM     22  C   UNL     1      -8.548  53.847  48.751  0.00  0.00    +0.000 C 
ATOM     23  C   UNL     1      -8.199  53.584  50.238  0.00  0.00    +0.000 C 
ATOM     24  C   UNL     1      -7.795  52.739  47.985  0.00  0.00    +0.000 C 
ATOM     25  C   UNL     1      -7.955  55.210  48.346  0.00  0.00    +0.000 C 
ENDBRANCH   7  22
BRANCH   5  26
ATOM     26  C   UNL     1     -10.247  53.944  45.904  0.00  0.00    +0.000 C 
BRANCH  26  27
ATOM     27  C   UNL     1     -10.576  52.491  45.562  0.00  0.00    +0.000 C 
BRANCH  27  28
ATOM     28  C   UNL     1      -9.611  51.851  44.525  0.00  0.00    +0.000 C 
ATOM     29  C   UNL     1      -9.244  50.407  44.915  0.00  0.00    +0.000 C 
ATOM     30  C   UNL     1     -10.315  51.811  43.156  0.00  0.00    +0.000 C 
ATOM     31  C   UNL     1      -8.322  52.680  44.388  0.00  0.00    +0.000 C 
ENDBRANCH  27  28
ENDBRANCH  26  27
ENDBRANCH   5  26
TORSDOF 5
ENDMDL
MODEL 8
REMARK VINA RESULT:      -7.3      2.875      7.908
REMARK  Name = 
REMARK  11 active torsions:
REMARK  status: ('A' for Active; 'I' for Inactive)
REMARK    1  A    between atoms: C_6  and  C_10
REMARK    2  A    between atoms: N_17  and  C_20
REMARK    3  A    between atoms: C_19  and  C_21
REMARK    4  A    between atoms: C_20  and  C_22
REMARK    5  A    between atoms: C_21  and  C_23
REMARK    6  A    between atoms: C_21  and  C_24
REMARK    7  A    between atoms: C_21  and  C_25
REMARK    8  A    between atoms: C_22  and  C_26
REMARK    9  A    between atoms: C_26  and  C_27
REMARK   10  A    between atoms: C_26  and  C_28
REMARK   11  A    between atoms: C_26  and  C_29
REMARK                            x       y       z     vdW  Elec       q    Type
REMARK                         _______ _______ _______ _____ _____    ______ ____
ROOT
ATOM      1  C   UNL     1     -11.967  54.705  48.750  0.00  0.00    +0.000 C 
ATOM      2  C   UNL     1     -11.319  54.900  47.452  0.00  0.00    +0.000 C 
ATOM      3  C   UNL     1     -11.582  53.493  49.174  0.00  0.00    +0.000 C 
ATOM      4  O   UNL     1     -11.496  55.892  46.759  0.00  0.00    +0.000 OA
ATOM      5  N   UNL     1     -10.536  53.796  47.185  0.00  0.00    +0.000 N 
ATOM      6  O   UNL     1     -12.023  52.885  50.324  0.00  0.00    +0.000 OA
ATOM      7  C   UNL     1     -10.576  52.794  48.263  0.00  0.00    +0.000 C 
ENDROOT
BRANCH   1  13
ATOM      8  S   UNL     1     -14.905  56.191  50.831  0.00  0.00    +0.000 S 
ATOM      9  O   UNL     1     -14.592  56.068  52.245  0.00  0.00    +0.000 OA
ATOM     10  O   UNL     1     -16.249  55.946  50.358  0.00  0.00    +0.000 OA
ATOM     11  N   UNL     1     -13.906  55.212  50.011  0.00  0.00    +0.000 N 
ATOM     12  C   UNL     1     -14.528  57.852  50.397  0.00  0.00    +0.000 A 
ATOM     13  C   UNL     1     -12.873  55.699  49.389  0.00  0.00    +0.000 C 
ATOM     14  C   UNL     1     -13.370  58.083  49.672  0.00  0.00    +0.000 A 
ATOM     15  C   UNL     1     -15.389  58.887  50.775  0.00  0.00    +0.000 A 
ATOM     16  N   UNL     1     -12.545  57.033  49.283  0.00  0.00    +0.000 N 
ATOM     17  C   UNL     1     -13.065  59.401  49.319  0.00  0.00    +0.000 A 
ATOM     18  C   UNL     1     -15.076  60.194  50.411  0.00  0.00    +0.000 A 
ATOM     19  C   UNL     1     -13.915  60.451  49.682  0.00  0.00    +0.000 A 
ATOM     20  H   UNL     1     -14.082  54.244  49.983  0.00  0.00    +0.000 HD
ATOM     21  H   UNL     1     -11.664  57.260  48.904  0.00  0.00    +0.000 HD
ENDBRANCH   1  13
BRANCH   7  22
ATOM     22  C   UNL     1      -9.202  52.439  48.957  0.00  0.00    +0.000 C 
ATOM     23  C   UNL     1      -8.312  53.699  49.112  0.00  0.00    +0.000 C 
ATOM     24  C   UNL     1      -9.381  51.925  50.401  0.00  0.00    +0.000 C 
ATOM     25  C   UNL     1      -8.416  51.383  48.157  0.00  0.00    +0.000 C 
ENDBRANCH   7  22
BRANCH   5  26
ATOM     26  C   UNL     1      -9.766  53.730  45.955  0.00  0.00    +0.000 C 
BRANCH  26  27
ATOM     27  C   UNL     1     -10.516  53.158  44.751  0.00  0.00    +0.000 C 
BRANCH  27  28
ATOM     28  C   UNL     1      -9.727  52.066  43.975  0.00  0.00    +0.000 C 
ATOM     29  C   UNL     1      -9.639  52.396  42.474  0.00  0.00    +0.000 C 
ATOM     30  C   UNL     1      -8.294  52.002  44.535  0.00  0.00    +0.000 C 
ATOM     31  C   UNL     1     -10.384  50.685  44.150  0.00  0.00    +0.000 C 
ENDBRANCH  27  28
ENDBRANCH  26  27
ENDBRANCH   5  26
TORSDOF 5
ENDMDL
MODEL 9
REMARK VINA RESULT:      -7.3      4.107      6.053
REMARK  Name = 
REMARK  11 active torsions:
REMARK  status: ('A' for Active; 'I' for Inactive)
REMARK    1  A    between atoms: C_6  and  C_10
REMARK    2  A    between atoms: N_17  and  C_20
REMARK    3  A    between atoms: C_19  and  C_21
REMARK    4  A    between atoms: C_20  and  C_22
REMARK    5  A    between atoms: C_21  and  C_23
REMARK    6  A    between atoms: C_21  and  C_24
REMARK    7  A    between atoms: C_21  and  C_25
REMARK    8  A    between atoms: C_22  and  C_26
REMARK    9  A    between atoms: C_26  and  C_27
REMARK   10  A    between atoms: C_26  and  C_28
REMARK   11  A    between atoms: C_26  and  C_29
REMARK                            x       y       z     vdW  Elec       q    Type
REMARK                         _______ _______ _______ _____ _____    ______ ____
ROOT
ATOM      1  C   UNL     1     -10.203  53.672  50.684  0.00  0.00    +0.000 C 
ATOM      2  C   UNL     1     -11.306  54.158  51.515  0.00  0.00    +0.000 C 
ATOM      3  C   UNL     1     -10.605  53.825  49.415  0.00  0.00    +0.000 C 
ATOM      4  O   UNL     1     -11.291  54.116  52.737  0.00  0.00    +0.000 OA
ATOM      5  N   UNL     1     -12.306  54.623  50.685  0.00  0.00    +0.000 N 
ATOM      6  O   UNL     1      -9.894  53.424  48.310  0.00  0.00    +0.000 OA
ATOM      7  C   UNL     1     -11.963  54.506  49.258  0.00  0.00    +0.000 C 
ENDROOT
BRANCH   1  13
ATOM      8  S   UNL     1      -7.739  51.416  52.686  0.00  0.00    +0.000 S 
ATOM      9  O   UNL     1      -7.623  50.132  52.016  0.00  0.00    +0.000 OA
ATOM     10  O   UNL     1      -7.795  51.483  54.129  0.00  0.00    +0.000 OA
ATOM     11  N   UNL     1      -9.053  52.167  52.105  0.00  0.00    +0.000 N 
ATOM     12  C   UNL     1      -6.321  52.338  52.208  0.00  0.00    +0.000 A 
ATOM     13  C   UNL     1      -8.932  53.116  51.225  0.00  0.00    +0.000 C 
ATOM     14  C   UNL     1      -6.492  53.348  51.274  0.00  0.00    +0.000 A 
ATOM     15  C   UNL     1      -5.074  52.049  52.772  0.00  0.00    +0.000 A 
ATOM     16  N   UNL     1      -7.747  53.636  50.750  0.00  0.00    +0.000 N 
ATOM     17  C   UNL     1      -5.370  54.089  50.891  0.00  0.00    +0.000 A 
ATOM     18  C   UNL     1      -3.967  52.799  52.386  0.00  0.00    +0.000 A 
ATOM     19  C   UNL     1      -4.115  53.820  51.446  0.00  0.00    +0.000 A 
ATOM     20  H   UNL     1      -9.948  51.903  52.420  0.00  0.00    +0.000 HD
ATOM     21  H   UNL     1      -7.793  54.255  49.985  0.00  0.00    +0.000 HD
ENDBRANCH   1  13
BRANCH   7  22
ATOM     22  C   UNL     1     -11.929  55.847  48.422  0.00  0.00    +0.000 C 
ATOM     23  C   UNL     1     -11.365  55.603  46.999  0.00  0.00    +0.000 C 
ATOM     24  C   UNL     1     -13.337  56.429  48.175  0.00  0.00    +0.000 C 
ATOM     25  C   UNL     1     -11.069  56.925  49.109  0.00  0.00    +0.000 C 
ENDBRANCH   7  22
BRANCH   5  26
ATOM     26  C   UNL     1     -13.524  55.175  51.252  0.00  0.00    +0.000 C 
BRANCH  26  27
ATOM     27  C   UNL     1     -13.368  56.546  51.911  0.00  0.00    +0.000 C 
BRANCH  27  28
ATOM     28  C   UNL     1     -14.609  57.469  51.752  0.00  0.00    +0.000 C 
ATOM     29  C   UNL     1     -15.767  56.737  51.050  0.00  0.00    +0.000 C 
ATOM     30  C   UNL     1     -15.091  57.892  53.152  0.00  0.00    +0.000 C 
ATOM     31  C   UNL     1     -14.254  58.735  50.953  0.00  0.00    +0.000 C 
ENDBRANCH  27  28
ENDBRANCH  26  27
ENDBRANCH   5  26
TORSDOF 5
ENDMDL
