MODEL 1
REMARK VINA RESULT:      -7.8      0.000      0.000
REMARK  Name = 
REMARK  8 active torsions:
REMARK  status: ('A' for Active; 'I' for Inactive)
REMARK    1  A    between atoms: C_6  and  C_10
REMARK    2  A    between atoms: N_17  and  C_20
REMARK    3  A    between atoms: C_19  and  C_21
REMARK    4  A    between atoms: C_20  and  C_22
REMARK    5  A    between atoms: C_21  and  C_23
REMARK    6  A    between atoms: C_21  and  C_24
REMARK    7  A    between atoms: C_21  and  C_25
REMARK    8  A    between atoms: C_22  and  C_26
REMARK                            x       y       z     vdW  Elec       q    Type
REMARK                         _______ _______ _______ _____ _____    ______ ____
ROOT
ATOM      1  C   UNL     1     -10.732  55.247  47.815  0.00  0.00    +0.000 C 
ATOM      2  C   UNL     1     -12.120  55.698  47.673  0.00  0.00    +0.000 C 
ATOM      3  C   UNL     1     -10.353  55.606  49.048  0.00  0.00    +0.000 C 
ATOM      4  O   UNL     1     -12.760  55.577  46.640  0.00  0.00    +0.000 OA
ATOM      5  N   UNL     1     -12.517  56.269  48.865  0.00  0.00    +0.000 N 
ATOM      6  O   UNL     1      -9.091  55.437  49.565  0.00  0.00    +0.000 OA
ATOM      7  C   UNL     1     -11.459  56.234  49.888  0.00  0.00    +0.000 C 
ENDROOT
BRANCH   1  13
ATOM      8  S   UNL     1      -7.826  54.282  45.404  0.00  0.00    +0.000 S 
ATOM      9  O   UNL     1      -6.859  53.466  46.114  0.00  0.00    +0.000 OA
ATOM     10  O   UNL     1      -7.381  55.294  44.466  0.00  0.00    +0.000 OA
ATOM     11  N   UNL     1      -8.775  55.017  46.498  0.00  0.00    +0.000 N 
ATOM     12  C   UNL     1      -8.817  53.164  44.477  0.00  0.00    +0.000 A 
ATOM     13  C   UNL     1      -9.967  54.560  46.738  0.00  0.00    +0.000 C 
ATOM     14  C   UNL     1     -10.093  52.893  44.952  0.00  0.00    +0.000 A 
ATOM     15  C   UNL     1      -8.321  52.582  43.310  0.00  0.00    +0.000 A 
ATOM     16  N   UNL     1     -10.578  53.506  46.099  0.00  0.00    +0.000 N 
ATOM     17  C   UNL     1     -10.891  51.998  44.230  0.00  0.00    +0.000 A 
ATOM     18  C   UNL     1      -9.129  51.700  42.596  0.00  0.00    +0.000 A 
ATOM     19  C   UNL     1     -10.414  51.408  43.056  0.00  0.00    +0.000 A 
ATOM     20  H   UNL     1      -8.446  55.810  46.980  0.00  0.00    +0.000 HD
ATOM     21  H   UNL     1     -11.417  53.162  46.483  0.00  0.00    +0.000 HD
ENDBRANCH   1  13
BRANCH   7  22
ATOM     22  C   UNL     1     -11.795  55.444  51.213  0.00  0.00    +0.000 C 
ATOM     23  C   UNL     1     -10.547  55.302  52.120  0.00  0.00    +0.000 C 
ATOM     24  C   UNL     1     -12.824  56.191  52.089  0.00  0.00    +0.000 C 
ATOM     25  C   UNL     1     -12.325  54.030  50.908  0.00  0.00    +0.000 C 
ENDBRANCH   7  22
BRANCH   5  26
ATOM     26  C   UNL     1     -13.861  56.808  49.004  0.00  0.00    +0.000 C 
BRANCH  26  27
ATOM     27  C   UNL     1     -14.072  58.206  48.423  0.00  0.00    +0.000 C 
BRANCH  27  28
ATOM     28  C   UNL     1     -13.774  59.254  49.463  0.00  0.00    +0.000 C 
ATOM     29  C   UNL     1     -14.782  59.566  50.536  0.00  0.00    +0.000 C 
ATOM     30  C   UNL     1     -14.507  60.572  49.455  0.00  0.00    +0.000 C 
ENDBRANCH  27  28
ENDBRANCH  26  27
ENDBRANCH   5  26
TORSDOF 5
ENDMDL
MODEL 2
REMARK VINA RESULT:      -7.7      3.668      6.092
REMARK  Name = 
REMARK  8 active torsions:
REMARK  status: ('A' for Active; 'I' for Inactive)
REMARK    1  A    between atoms: C_6  and  C_10
REMARK    2  A    between atoms: N_17  and  C_20
REMARK    3  A    between atoms: C_19  and  C_21
REMARK    4  A    between atoms: C_20  and  C_22
REMARK    5  A    between atoms: C_21  and  C_23
REMARK    6  A    between atoms: C_21  and  C_24
REMARK    7  A    between atoms: C_21  and  C_25
REMARK    8  A    between atoms: C_22  and  C_26
REMARK                            x       y       z     vdW  Elec       q    Type
REMARK                         _______ _______ _______ _____ _____    ______ ____
ROOT
ATOM      1  C   UNL     1     -10.354  55.089  50.634  0.00  0.00    +0.000 C 
ATOM      2  C   UNL     1     -11.403  55.386  51.613  0.00  0.00    +0.000 C 
ATOM      3  C   UNL     1     -10.975  54.980  49.452  0.00  0.00    +0.000 C 
ATOM      4  O   UNL     1     -11.189  55.495  52.811  0.00  0.00    +0.000 OA
ATOM      5  N   UNL     1     -12.607  55.488  50.947  0.00  0.00    +0.000 N 
ATOM      6  O   UNL     1     -10.364  54.633  48.271  0.00  0.00    +0.000 OA
ATOM      7  C   UNL     1     -12.467  55.289  49.494  0.00  0.00    +0.000 C 
ENDROOT
BRANCH   1  13
ATOM      8  S   UNL     1      -6.539  54.379  50.278  0.00  0.00    +0.000 S 
ATOM      9  O   UNL     1      -5.890  55.517  49.656  0.00  0.00    +0.000 OA
ATOM     10  O   UNL     1      -6.147  53.028  49.921  0.00  0.00    +0.000 OA
ATOM     11  N   UNL     1      -8.139  54.502  50.029  0.00  0.00    +0.000 N 
ATOM     12  C   UNL     1      -6.235  54.531  52.003  0.00  0.00    +0.000 A 
ATOM     13  C   UNL     1      -8.915  54.929  50.980  0.00  0.00    +0.000 C 
ATOM     14  C   UNL     1      -7.283  54.970  52.802  0.00  0.00    +0.000 A 
ATOM     15  C   UNL     1      -4.983  54.216  52.530  0.00  0.00    +0.000 A 
ATOM     16  N   UNL     1      -8.531  55.249  52.261  0.00  0.00    +0.000 N 
ATOM     17  C   UNL     1      -7.055  55.105  54.176  0.00  0.00    +0.000 A 
ATOM     18  C   UNL     1      -4.772  54.346  53.901  0.00  0.00    +0.000 A 
ATOM     19  C   UNL     1      -5.808  54.791  54.724  0.00  0.00    +0.000 A 
ATOM     20  H   UNL     1      -8.521  54.254  49.157  0.00  0.00    +0.000 HD
ATOM     21  H   UNL     1      -9.186  55.708  52.834  0.00  0.00    +0.000 HD
ENDBRANCH   1  13
BRANCH   7  22
ATOM     22  C   UNL     1     -12.905  56.497  48.579  0.00  0.00    +0.000 C 
ATOM     23  C   UNL     1     -14.439  56.711  48.616  0.00  0.00    +0.000 C 
ATOM     24  C   UNL     1     -12.318  57.839  49.070  0.00  0.00    +0.000 C 
ATOM     25  C   UNL     1     -12.491  56.273  47.112  0.00  0.00    +0.000 C 
ENDBRANCH   7  22
BRANCH   5  26
ATOM     26  C   UNL     1     -13.828  55.777  51.683  0.00  0.00    +0.000 C 
BRANCH  26  27
ATOM     27  C   UNL     1     -13.829  57.090  52.464  0.00  0.00    +0.000 C 
BRANCH  27  28
ATOM     28  C   UNL     1     -15.062  57.891  52.139  0.00  0.00    +0.000 C 
ATOM     29  C   UNL     1     -14.946  59.189  51.385  0.00  0.00    +0.000 C 
ATOM     30  C   UNL     1     -15.333  59.200  52.837  0.00  0.00    +0.000 C 
ENDBRANCH  27  28
ENDBRANCH  26  27
ENDBRANCH   5  26
TORSDOF 5
ENDMDL
MODEL 3
REMARK VINA RESULT:      -7.4      3.047      7.850
REMARK  Name = 
REMARK  8 active torsions:
REMARK  status: ('A' for Active; 'I' for Inactive)
REMARK    1  A    between atoms: C_6  and  C_10
REMARK    2  A    between atoms: N_17  and  C_20
REMARK    3  A    between atoms: C_19  and  C_21
REMARK    4  A    between atoms: C_20  and  C_22
REMARK    5  A    between atoms: C_21  and  C_23
REMARK    6  A    between atoms: C_21  and  C_24
REMARK    7  A    between atoms: C_21  and  C_25
REMARK    8  A    between atoms: C_22  and  C_26
REMARK                            x       y       z     vdW  Elec       q    Type
REMARK                         _______ _______ _______ _____ _____    ______ ____
ROOT
ATOM      1  C   UNL     1     -11.506  55.806  48.836  0.00  0.00    +0.000 C 
ATOM      2  C   UNL     1     -10.567  54.990  49.611  0.00  0.00    +0.000 C 
ATOM      3  C   UNL     1     -11.314  55.470  47.554  0.00  0.00    +0.000 C 
ATOM      4  O   UNL     1     -10.440  55.085  50.822  0.00  0.00    +0.000 OA
ATOM      5  N   UNL     1      -9.887  54.162  48.741  0.00  0.00    +0.000 N 
ATOM      6  O   UNL     1     -11.945  56.055  46.483  0.00  0.00    +0.000 OA
ATOM      7  C   UNL     1     -10.316  54.337  47.343  0.00  0.00    +0.000 C 
ENDROOT
BRANCH   1  13
ATOM      8  S   UNL     1     -13.486  59.114  49.408  0.00  0.00    +0.000 S 
ATOM      9  O   UNL     1     -14.598  59.180  48.479  0.00  0.00    +0.000 OA
ATOM     10  O   UNL     1     -12.713  60.304  49.710  0.00  0.00    +0.000 OA
ATOM     11  N   UNL     1     -12.448  57.981  48.883  0.00  0.00    +0.000 N 
ATOM     12  C   UNL     1     -14.164  58.575  50.939  0.00  0.00    +0.000 A 
ATOM     13  C   UNL     1     -12.432  56.806  49.437  0.00  0.00    +0.000 C 
ATOM     14  C   UNL     1     -13.942  57.255  51.308  0.00  0.00    +0.000 A 
ATOM     15  C   UNL     1     -14.892  59.457  51.737  0.00  0.00    +0.000 A 
ATOM     16  N   UNL     1     -13.188  56.403  50.512  0.00  0.00    +0.000 N 
ATOM     17  C   UNL     1     -14.483  56.809  52.519  0.00  0.00    +0.000 A 
ATOM     18  C   UNL     1     -15.417  59.002  52.945  0.00  0.00    +0.000 A 
ATOM     19  C   UNL     1     -15.212  57.678  53.336  0.00  0.00    +0.000 A 
ATOM     20  H   UNL     1     -11.830  58.185  48.145  0.00  0.00    +0.000 HD
ATOM     21  H   UNL     1     -13.197  55.444  50.733  0.00  0.00    +0.000 HD
ENDBRANCH   1  13
BRANCH   7  22
ATOM     22  C   UNL     1     -10.921  53.064  46.634  0.00  0.00    +0.000 C 
ATOM     23  C   UNL     1     -12.094  52.463  47.449  0.00  0.00    +0.000 C 
ATOM     24  C   UNL     1     -11.541  53.404  45.261  0.00  0.00    +0.000 C 
ATOM     25  C   UNL     1      -9.859  51.963  46.448  0.00  0.00    +0.000 C 
ENDBRANCH   7  22
BRANCH   5  26
ATOM     26  C   UNL     1      -8.883  53.239  49.247  0.00  0.00    +0.000 C 
BRANCH  26  27
ATOM     27  C   UNL     1      -7.447  53.526  48.808  0.00  0.00    +0.000 C 
BRANCH  27  28
ATOM     28  C   UNL     1      -6.708  54.267  49.890  0.00  0.00    +0.000 C 
ATOM     29  C   UNL     1      -6.890  55.752  50.052  0.00  0.00    +0.000 C 
ATOM     30  C   UNL     1      -5.584  55.211  49.543  0.00  0.00    +0.000 C 
ENDBRANCH  27  28
ENDBRANCH  26  27
ENDBRANCH   5  26
TORSDOF 5
ENDMDL
MODEL 4
REMARK VINA RESULT:      -7.3      2.877      7.855
REMARK  Name = 
REMARK  8 active torsions:
REMARK  status: ('A' for Active; 'I' for Inactive)
REMARK    1  A    between atoms: C_6  and  C_10
REMARK    2  A    between atoms: N_17  and  C_20
REMARK    3  A    between atoms: C_19  and  C_21
REMARK    4  A    between atoms: C_20  and  C_22
REMARK    5  A    between atoms: C_21  and  C_23
REMARK    6  A    between atoms: C_21  and  C_24
REMARK    7  A    between atoms: C_21  and  C_25
REMARK    8  A    between atoms: C_22  and  C_26
REMARK                            x       y       z     vdW  Elec       q    Type
REMARK                         _______ _______ _______ _____ _____    ______ ____
ROOT
ATOM      1  C   UNL     1     -12.141  54.690  48.452  0.00  0.00    +0.000 C 
ATOM      2  C   UNL     1     -11.611  54.930  47.106  0.00  0.00    +0.000 C 
ATOM      3  C   UNL     1     -11.737  53.460  48.792  0.00  0.00    +0.000 C 
ATOM      4  O   UNL     1     -11.841  55.946  46.468  0.00  0.00    +0.000 OA
ATOM      5  N   UNL     1     -10.867  53.832  46.728  0.00  0.00    +0.000 N 
ATOM      6  O   UNL     1     -12.079  52.812  49.955  0.00  0.00    +0.000 OA
ATOM      7  C   UNL     1     -10.822  52.793  47.771  0.00  0.00    +0.000 C 
ENDROOT
BRANCH   1  13
ATOM      8  S   UNL     1     -14.886  56.146  50.804  0.00  0.00    +0.000 S 
ATOM      9  O   UNL     1     -14.476  55.984  52.186  0.00  0.00    +0.000 OA
ATOM     10  O   UNL     1     -16.269  55.929  50.422  0.00  0.00    +0.000 OA
ATOM     11  N   UNL     1     -13.969  55.174  49.881  0.00  0.00    +0.000 N 
ATOM     12  C   UNL     1     -14.523  57.814  50.382  0.00  0.00    +0.000 A 
ATOM     13  C   UNL     1     -12.976  55.668  49.203  0.00  0.00    +0.000 C 
ATOM     14  C   UNL     1     -13.407  58.045  49.588  0.00  0.00    +0.000 A 
ATOM     15  C   UNL     1     -15.337  58.850  50.837  0.00  0.00    +0.000 A 
ATOM     16  N   UNL     1     -12.628  56.995  49.122  0.00  0.00    +0.000 N 
ATOM     17  C   UNL     1     -13.099  59.368  49.251  0.00  0.00    +0.000 A 
ATOM     18  C   UNL     1     -15.025  60.162  50.487  0.00  0.00    +0.000 A 
ATOM     19  C   UNL     1     -13.905  60.420  49.693  0.00  0.00    +0.000 A 
ATOM     20  H   UNL     1     -14.165  54.211  49.836  0.00  0.00    +0.000 HD
ATOM     21  H   UNL     1     -11.764  57.217  48.704  0.00  0.00    +0.000 HD
ENDBRANCH   1  13
BRANCH   7  22
ATOM     22  C   UNL     1      -9.392  52.423  48.326  0.00  0.00    +0.000 C 
ATOM     23  C   UNL     1      -8.642  53.677  48.844  0.00  0.00    +0.000 C 
ATOM     24  C   UNL     1      -9.470  51.489  49.553  0.00  0.00    +0.000 C 
ATOM     25  C   UNL     1      -8.519  51.761  47.243  0.00  0.00    +0.000 C 
ENDBRANCH   7  22
BRANCH   5  26
ATOM     26  C   UNL     1     -10.223  53.800  45.424  0.00  0.00    +0.000 C 
BRANCH  26  27
ATOM     27  C   UNL     1     -10.801  52.794  44.429  0.00  0.00    +0.000 C 
BRANCH  27  28
ATOM     28  C   UNL     1      -9.692  52.084  43.699  0.00  0.00    +0.000 C 
ATOM     29  C   UNL     1      -9.227  52.584  42.358  0.00  0.00    +0.000 C 
ATOM     30  C   UNL     1      -9.982  51.289  42.451  0.00  0.00    +0.000 C 
ENDBRANCH  27  28
ENDBRANCH  26  27
ENDBRANCH   5  26
TORSDOF 5
ENDMDL
MODEL 5
REMARK VINA RESULT:      -7.3      2.929      7.715
REMARK  Name = 
REMARK  8 active torsions:
REMARK  status: ('A' for Active; 'I' for Inactive)
REMARK    1  A    between atoms: C_6  and  C_10
REMARK    2  A    between atoms: N_17  and  C_20
REMARK    3  A    between atoms: C_19  and  C_21
REMARK    4  A    between atoms: C_20  and  C_22
REMARK    5  A    between atoms: C_21  and  C_23
REMARK    6  A    between atoms: C_21  and  C_24
REMARK    7  A    between atoms: C_21  and  C_25
REMARK    8  A    between atoms: C_22  and  C_26
REMARK                            x       y       z     vdW  Elec       q    Type
REMARK                         _______ _______ _______ _____ _____    ______ ____
ROOT
ATOM      1  C   UNL     1     -11.805  55.603  48.695  0.00  0.00    +0.000 C 
ATOM      2  C   UNL     1     -11.714  55.401  47.246  0.00  0.00    +0.000 C 
ATOM      3  C   UNL     1     -11.035  54.657  49.248  0.00  0.00    +0.000 C 
ATOM      4  O   UNL     1     -12.344  56.065  46.438  0.00  0.00    +0.000 OA
ATOM      5  N   UNL     1     -10.844  54.358  47.005  0.00  0.00    +0.000 N 
ATOM      6  O   UNL     1     -10.896  54.443  50.598  0.00  0.00    +0.000 OA
ATOM      7  C   UNL     1     -10.276  53.798  48.242  0.00  0.00    +0.000 C 
ENDROOT
BRANCH   1  13
ATOM      8  S   UNL     1     -13.509  59.042  49.374  0.00  0.00    +0.000 S 
ATOM      9  O   UNL     1     -14.635  59.210  48.475  0.00  0.00    +0.000 OA
ATOM     10  O   UNL     1     -12.639  60.163  49.675  0.00  0.00    +0.000 OA
ATOM     11  N   UNL     1     -12.574  57.843  48.803  0.00  0.00    +0.000 N 
ATOM     12  C   UNL     1     -14.188  58.529  50.912  0.00  0.00    +0.000 A 
ATOM     13  C   UNL     1     -12.636  56.659  49.337  0.00  0.00    +0.000 C 
ATOM     14  C   UNL     1     -14.060  57.189  51.254  0.00  0.00    +0.000 A 
ATOM     15  C   UNL     1     -14.826  59.448  51.744  0.00  0.00    +0.000 A 
ATOM     16  N   UNL     1     -13.394  56.296  50.425  0.00  0.00    +0.000 N 
ATOM     17  C   UNL     1     -14.603  56.763  52.471  0.00  0.00    +0.000 A 
ATOM     18  C   UNL     1     -15.355  59.013  52.958  0.00  0.00    +0.000 A 
ATOM     19  C   UNL     1     -15.243  57.670  53.321  0.00  0.00    +0.000 A 
ATOM     20  H   UNL     1     -11.961  58.012  48.053  0.00  0.00    +0.000 HD
ATOM     21  H   UNL     1     -13.471  55.336  50.630  0.00  0.00    +0.000 HD
ENDBRANCH   1  13
BRANCH   7  22
ATOM     22  C   UNL     1      -8.706  53.867  48.385  0.00  0.00    +0.000 C 
ATOM     23  C   UNL     1      -7.996  53.211  47.173  0.00  0.00    +0.000 C 
ATOM     24  C   UNL     1      -8.188  55.322  48.391  0.00  0.00    +0.000 C 
ATOM     25  C   UNL     1      -8.223  53.154  49.662  0.00  0.00    +0.000 C 
ENDBRANCH   7  22
BRANCH   5  26
ATOM     26  C   UNL     1     -10.568  53.938  45.639  0.00  0.00    +0.000 C 
BRANCH  26  27
ATOM     27  C   UNL     1     -11.639  53.062  44.992  0.00  0.00    +0.000 C 
BRANCH  27  28
ATOM     28  C   UNL     1     -11.796  51.775  45.760  0.00  0.00    +0.000 C 
ATOM     29  C   UNL     1     -10.635  50.828  45.897  0.00  0.00    +0.000 C 
ATOM     30  C   UNL     1     -11.810  50.450  45.040  0.00  0.00    +0.000 C 
ENDBRANCH  27  28
ENDBRANCH  26  27
ENDBRANCH   5  26
TORSDOF 5
ENDMDL
MODEL 6
REMARK VINA RESULT:      -7.3      3.715      6.700
REMARK  Name = 
REMARK  8 active torsions:
REMARK  status: ('A' for Active; 'I' for Inactive)
REMARK    1  A    between atoms: C_6  and  C_10
REMARK    2  A    between atoms: N_17  and  C_20
REMARK    3  A    between atoms: C_19  and  C_21
REMARK    4  A    between atoms: C_20  and  C_22
REMARK    5  A    between atoms: C_21  and  C_23
REMARK    6  A    between atoms: C_21  and  C_24
REMARK    7  A    between atoms: C_21  and  C_25
REMARK    8  A    between atoms: C_22  and  C_26
REMARK                            x       y       z     vdW  Elec       q    Type
REMARK                         _______ _______ _______ _____ _____    ______ ____
ROOT
ATOM      1  C   UNL     1     -10.627  53.939  50.493  0.00  0.00    +0.000 C 
ATOM      2  C   UNL     1     -11.509  55.070  50.792  0.00  0.00    +0.000 C 
ATOM      3  C   UNL     1     -10.985  53.505  49.277  0.00  0.00    +0.000 C 
ATOM      4  O   UNL     1     -11.489  55.672  51.855  0.00  0.00    +0.000 OA
ATOM      5  N   UNL     1     -12.328  55.286  49.703  0.00  0.00    +0.000 N 
ATOM      6  O   UNL     1     -10.455  52.406  48.645  0.00  0.00    +0.000 OA
ATOM      7  C   UNL     1     -12.058  54.349  48.599  0.00  0.00    +0.000 C 
ENDROOT
BRANCH   1  13
ATOM      8  S   UNL     1      -8.470  51.478  52.609  0.00  0.00    +0.000 S 
ATOM      9  O   UNL     1      -7.509  50.813  51.749  0.00  0.00    +0.000 OA
ATOM     10  O   UNL     1      -9.146  50.739  53.658  0.00  0.00    +0.000 OA
ATOM     11  N   UNL     1      -9.614  52.150  51.673  0.00  0.00    +0.000 N 
ATOM     12  C   UNL     1      -7.588  52.767  53.416  0.00  0.00    +0.000 A 
ATOM     13  C   UNL     1      -9.587  53.426  51.427  0.00  0.00    +0.000 C 
ATOM     14  C   UNL     1      -7.796  54.064  52.967  0.00  0.00    +0.000 A 
ATOM     15  C   UNL     1      -6.717  52.477  54.465  0.00  0.00    +0.000 A 
ATOM     16  N   UNL     1      -8.691  54.334  51.940  0.00  0.00    +0.000 N 
ATOM     17  C   UNL     1      -7.095  55.101  53.592  0.00  0.00    +0.000 A 
ATOM     18  C   UNL     1      -6.031  53.519  55.086  0.00  0.00    +0.000 A 
ATOM     19  C   UNL     1      -6.221  54.831  54.649  0.00  0.00    +0.000 A 
ATOM     20  H   UNL     1     -10.329  51.591  51.292  0.00  0.00    +0.000 HD
ATOM     21  H   UNL     1      -8.682  55.238  51.551  0.00  0.00    +0.000 HD
ENDBRANCH   1  13
BRANCH   7  22
ATOM     22  C   UNL     1     -11.607  54.993  47.231  0.00  0.00    +0.000 C 
ATOM     23  C   UNL     1     -11.713  53.979  46.064  0.00  0.00    +0.000 C 
ATOM     24  C   UNL     1     -12.526  56.161  46.809  0.00  0.00    +0.000 C 
ATOM     25  C   UNL     1     -10.152  55.495  47.295  0.00  0.00    +0.000 C 
ENDBRANCH   7  22
BRANCH   5  26
ATOM     26  C   UNL     1     -13.313  56.356  49.729  0.00  0.00    +0.000 C 
BRANCH  26  27
ATOM     27  C   UNL     1     -14.618  56.031  50.454  0.00  0.00    +0.000 C 
BRANCH  27  28
ATOM     28  C   UNL     1     -15.062  57.206  51.284  0.00  0.00    +0.000 C 
ATOM     29  C   UNL     1     -14.300  57.590  52.524  0.00  0.00    +0.000 C 
ATOM     30  C   UNL     1     -15.675  56.995  52.646  0.00  0.00    +0.000 C 
ENDBRANCH  27  28
ENDBRANCH  26  27
ENDBRANCH   5  26
TORSDOF 5
ENDMDL
MODEL 7
REMARK VINA RESULT:      -7.2      3.201      7.609
REMARK  Name = 
REMARK  8 active torsions:
REMARK  status: ('A' for Active; 'I' for Inactive)
REMARK    1  A    between atoms: C_6  and  C_10
REMARK    2  A    between atoms: N_17  and  C_20
REMARK    3  A    between atoms: C_19  and  C_21
REMARK    4  A    between atoms: C_20  and  C_22
REMARK    5  A    between atoms: C_21  and  C_23
REMARK    6  A    between atoms: C_21  and  C_24
REMARK    7  A    between atoms: C_21  and  C_25
REMARK    8  A    between atoms: C_22  and  C_26
REMARK                            x       y       z     vdW  Elec       q    Type
REMARK                         _______ _______ _______ _____ _____    ______ ____
ROOT
ATOM      1  C   UNL     1     -11.988  54.521  49.829  0.00  0.00    +0.000 C 
ATOM      2  C   UNL     1     -11.076  54.547  48.681  0.00  0.00    +0.000 C 
ATOM      3  C   UNL     1     -11.786  53.343  50.433  0.00  0.00    +0.000 C 
ATOM      4  O   UNL     1     -11.040  55.464  47.876  0.00  0.00    +0.000 OA
ATOM      5  N   UNL     1     -10.332  53.385  48.689  0.00  0.00    +0.000 N 
ATOM      6  O   UNL     1     -12.494  52.881  51.516  0.00  0.00    +0.000 OA
ATOM      7  C   UNL     1     -10.663  52.509  49.826  0.00  0.00    +0.000 C 
ENDROOT
BRANCH   1  13
ATOM      8  S   UNL     1     -15.158  56.384  51.121  0.00  0.00    +0.000 S 
ATOM      9  O   UNL     1     -15.112  56.473  52.568  0.00  0.00    +0.000 OA
ATOM     10  O   UNL     1     -16.411  56.106  50.445  0.00  0.00    +0.000 OA
ATOM     11  N   UNL     1     -14.088  55.260  50.643  0.00  0.00    +0.000 N 
ATOM     12  C   UNL     1     -14.621  57.947  50.522  0.00  0.00    +0.000 A 
ATOM     13  C   UNL     1     -12.936  55.620  50.163  0.00  0.00    +0.000 C 
ATOM     14  C   UNL     1     -13.333  58.029  50.008  0.00  0.00    +0.000 A 
ATOM     15  C   UNL     1     -15.472  59.051  50.569  0.00  0.00    +0.000 A 
ATOM     16  N   UNL     1     -12.514  56.910  49.943  0.00  0.00    +0.000 N 
ATOM     17  C   UNL     1     -12.888  59.268  49.535  0.00  0.00    +0.000 A 
ATOM     18  C   UNL     1     -15.019  60.278  50.086  0.00  0.00    +0.000 A 
ATOM     19  C   UNL     1     -13.727  60.386  49.570  0.00  0.00    +0.000 A 
ATOM     20  H   UNL     1     -14.313  54.304  50.717  0.00  0.00    +0.000 HD
ATOM     21  H   UNL     1     -11.564  57.051  49.725  0.00  0.00    +0.000 HD
ENDBRANCH   1  13
BRANCH   7  22
ATOM     22  C   UNL     1      -9.484  52.186  50.824  0.00  0.00    +0.000 C 
ATOM     23  C   UNL     1      -9.974  51.340  52.026  0.00  0.00    +0.000 C 
ATOM     24  C   UNL     1      -8.388  51.319  50.165  0.00  0.00    +0.000 C 
ATOM     25  C   UNL     1      -8.843  53.473  51.378  0.00  0.00    +0.000 C 
ENDBRANCH   7  22
BRANCH   5  26
ATOM     26  C   UNL     1      -9.342  53.145  47.651  0.00  0.00    +0.000 C 
BRANCH  26  27
ATOM     27  C   UNL     1      -9.835  52.350  46.442  0.00  0.00    +0.000 C 
BRANCH  27  28
ATOM     28  C   UNL     1     -10.139  53.277  45.295  0.00  0.00    +0.000 C 
ATOM     29  C   UNL     1     -11.550  53.425  44.793  0.00  0.00    +0.000 C 
ATOM     30  C   UNL     1     -10.524  52.726  43.946  0.00  0.00    +0.000 C 
ENDBRANCH  27  28
ENDBRANCH  26  27
ENDBRANCH   5  26
TORSDOF 5
ENDMDL
MODEL 8
REMARK VINA RESULT:      -7.1      4.345      8.098
REMARK  Name = 
REMARK  8 active torsions:
REMARK  status: ('A' for Active; 'I' for Inactive)
REMARK    1  A    between atoms: C_6  and  C_10
REMARK    2  A    between atoms: N_17  and  C_20
REMARK    3  A    between atoms: C_19  and  C_21
REMARK    4  A    between atoms: C_20  and  C_22
REMARK    5  A    between atoms: C_21  and  C_23
REMARK    6  A    between atoms: C_21  and  C_24
REMARK    7  A    between atoms: C_21  and  C_25
REMARK    8  A    between atoms: C_22  and  C_26
REMARK                            x       y       z     vdW  Elec       q    Type
REMARK                         _______ _______ _______ _____ _____    ______ ____
ROOT
ATOM      1  C   UNL     1     -10.910  54.853  50.931  0.00  0.00    +0.000 C 
ATOM      2  C   UNL     1      -9.590  55.071  50.333  0.00  0.00    +0.000 C 
ATOM      3  C   UNL     1     -10.852  53.654  51.524  0.00  0.00    +0.000 C 
ATOM      4  O   UNL     1      -9.312  56.054  49.663  0.00  0.00    +0.000 OA
ATOM      5  N   UNL     1      -8.785  53.995  50.648  0.00  0.00    +0.000 N 
ATOM      6  O   UNL     1     -11.908  53.030  52.145  0.00  0.00    +0.000 OA
ATOM      7  C   UNL     1      -9.478  52.995  51.478  0.00  0.00    +0.000 C 
ENDROOT
BRANCH   1  13
ATOM      8  S   UNL     1     -13.535  57.294  49.400  0.00  0.00    +0.000 S 
ATOM      9  O   UNL     1     -14.601  56.532  48.778  0.00  0.00    +0.000 OA
ATOM     10  O   UNL     1     -13.029  58.497  48.766  0.00  0.00    +0.000 OA
ATOM     11  N   UNL     1     -12.271  56.304  49.641  0.00  0.00    +0.000 N 
ATOM     12  C   UNL     1     -14.149  57.796  50.970  0.00  0.00    +0.000 A 
ATOM     13  C   UNL     1     -12.041  55.817  50.823  0.00  0.00    +0.000 C 
ATOM     14  C   UNL     1     -13.681  57.118  52.087  0.00  0.00    +0.000 A 
ATOM     15  C   UNL     1     -15.070  58.839  51.066  0.00  0.00    +0.000 A 
ATOM     16  N   UNL     1     -12.742  56.103  51.971  0.00  0.00    +0.000 N 
ATOM     17  C   UNL     1     -14.168  57.500  53.343  0.00  0.00    +0.000 A 
ATOM     18  C   UNL     1     -15.539  59.215  52.323  0.00  0.00    +0.000 A 
ATOM     19  C   UNL     1     -15.087  58.545  53.461  0.00  0.00    +0.000 A 
ATOM     20  H   UNL     1     -11.678  56.072  48.890  0.00  0.00    +0.000 HD
ATOM     21  H   UNL     1     -12.566  55.548  52.765  0.00  0.00    +0.000 HD
ENDBRANCH   1  13
BRANCH   7  22
ATOM     22  C   UNL     1      -8.849  52.709  52.897  0.00  0.00    +0.000 C 
ATOM     23  C   UNL     1      -8.490  54.023  53.634  0.00  0.00    +0.000 C 
ATOM     24  C   UNL     1      -9.845  51.999  53.840  0.00  0.00    +0.000 C 
ATOM     25  C   UNL     1      -7.568  51.860  52.785  0.00  0.00    +0.000 C 
ENDBRANCH   7  22
BRANCH   5  26
ATOM     26  C   UNL     1      -7.410  53.948  50.176  0.00  0.00    +0.000 C 
BRANCH  26  27
ATOM     27  C   UNL     1      -6.432  54.866  50.909  0.00  0.00    +0.000 C 
BRANCH  27  28
ATOM     28  C   UNL     1      -5.016  54.403  50.690  0.00  0.00    +0.000 C 
ATOM     29  C   UNL     1      -4.639  52.969  50.949  0.00  0.00    +0.000 C 
ATOM     30  C   UNL     1      -4.135  54.051  51.862  0.00  0.00    +0.000 C 
ENDBRANCH  27  28
ENDBRANCH  26  27
ENDBRANCH   5  26
TORSDOF 5
ENDMDL
MODEL 9
REMARK VINA RESULT:      -7.0      3.032      7.862
REMARK  Name = 
REMARK  8 active torsions:
REMARK  status: ('A' for Active; 'I' for Inactive)
REMARK    1  A    between atoms: C_6  and  C_10
REMARK    2  A    between atoms: N_17  and  C_20
REMARK    3  A    between atoms: C_19  and  C_21
REMARK    4  A    between atoms: C_20  and  C_22
REMARK    5  A    between atoms: C_21  and  C_23
REMARK    6  A    between atoms: C_21  and  C_24
REMARK    7  A    between atoms: C_21  and  C_25
REMARK    8  A    between atoms: C_22  and  C_26
REMARK                            x       y       z     vdW  Elec       q    Type
REMARK                         _______ _______ _______ _____ _____    ______ ____
ROOT
ATOM      1  C   UNL     1     -11.740  54.857  48.646  0.00  0.00    +0.000 C 
ATOM      2  C   UNL     1     -10.949  53.833  49.334  0.00  0.00    +0.000 C 
ATOM      3  C   UNL     1     -11.404  54.774  47.353  0.00  0.00    +0.000 C 
ATOM      4  O   UNL     1     -10.971  53.670  50.544  0.00  0.00    +0.000 OA
ATOM      5  N   UNL     1     -10.206  53.150  48.393  0.00  0.00    +0.000 N 
ATOM      6  O   UNL     1     -11.864  55.610  46.364  0.00  0.00    +0.000 OA
ATOM      7  C   UNL     1     -10.444  53.636  47.024  0.00  0.00    +0.000 C 
ENDROOT
BRANCH   1  13
ATOM      8  S   UNL     1     -14.697  56.137  50.839  0.00  0.00    +0.000 S 
ATOM      9  O   UNL     1     -14.338  56.039  52.241  0.00  0.00    +0.000 OA
ATOM     10  O   UNL     1     -16.039  55.800  50.402  0.00  0.00    +0.000 OA
ATOM     11  N   UNL     1     -13.664  55.223  49.982  0.00  0.00    +0.000 N 
ATOM     12  C   UNL     1     -14.449  57.819  50.391  0.00  0.00    +0.000 A 
ATOM     13  C   UNL     1     -12.684  55.780  49.335  0.00  0.00    +0.000 C 
ATOM     14  C   UNL     1     -13.321  58.122  49.640  0.00  0.00    +0.000 A 
ATOM     15  C   UNL     1     -15.363  58.796  50.783  0.00  0.00    +0.000 A 
ATOM     16  N   UNL     1     -12.439  57.129  49.235  0.00  0.00    +0.000 N 
ATOM     17  C   UNL     1     -13.104  59.457  49.283  0.00  0.00    +0.000 A 
ATOM     18  C   UNL     1     -15.141  60.121  50.413  0.00  0.00    +0.000 A 
ATOM     19  C   UNL     1     -14.011  60.451  49.663  0.00  0.00    +0.000 A 
ATOM     20  H   UNL     1     -13.780  54.246  49.952  0.00  0.00    +0.000 HD
ATOM     21  H   UNL     1     -11.578  57.411  48.850  0.00  0.00    +0.000 HD
ENDBRANCH   1  13
BRANCH   7  22
ATOM     22  C   UNL     1     -11.016  52.582  45.998  0.00  0.00    +0.000 C 
ATOM     23  C   UNL     1     -11.356  53.241  44.637  0.00  0.00    +0.000 C 
ATOM     24  C   UNL     1      -9.980  51.492  45.648  0.00  0.00    +0.000 C 
ATOM     25  C   UNL     1     -12.295  51.909  46.533  0.00  0.00    +0.000 C 
ENDBRANCH   7  22
BRANCH   5  26
ATOM     26  C   UNL     1      -9.320  52.071  48.804  0.00  0.00    +0.000 C 
BRANCH  26  27
ATOM     27  C   UNL     1      -7.842  52.272  48.471  0.00  0.00    +0.000 C 
BRANCH  27  28
ATOM     28  C   UNL     1      -7.346  53.567  49.055  0.00  0.00    +0.000 C 
ATOM     29  C   UNL     1      -6.957  54.707  48.153  0.00  0.00    +0.000 C 
ATOM     30  C   UNL     1      -5.898  53.965  48.918  0.00  0.00    +0.000 C 
ENDBRANCH  27  28
ENDBRANCH  26  27
ENDBRANCH   5  26
TORSDOF 5
ENDMDL
