MODEL 1
REMARK VINA RESULT:      -7.5      0.000      0.000
REMARK  Name = 
REMARK  9 active torsions:
REMARK  status: ('A' for Active; 'I' for Inactive)
REMARK    1  A    between atoms: C_6  and  C_10
REMARK    2  A    between atoms: N_17  and  C_20
REMARK    3  A    between atoms: C_19  and  C_21
REMARK    4  A    between atoms: C_20  and  C_22
REMARK    5  A    between atoms: C_21  and  C_23
REMARK    6  A    between atoms: C_21  and  C_24
REMARK    7  A    between atoms: C_22  and  C_25
REMARK    8  A    between atoms: C_25  and  C_26
REMARK    9  A    between atoms: C_25  and  C_27
REMARK                            x       y       z     vdW  Elec       q    Type
REMARK                         _______ _______ _______ _____ _____    ______ ____
ROOT
ATOM      1  C   UNL     1     -10.840  55.234  47.965  0.00  0.00    +0.000 C 
ATOM      2  C   UNL     1     -12.155  55.874  47.817  0.00  0.00    +0.000 C 
ATOM      3  C   UNL     1     -10.488  55.394  49.246  0.00  0.00    +0.000 C 
ATOM      4  O   UNL     1     -12.757  55.937  46.758  0.00  0.00    +0.000 OA
ATOM      5  N   UNL     1     -12.528  56.360  49.048  0.00  0.00    +0.000 N 
ATOM      6  O   UNL     1      -9.301  55.000  49.811  0.00  0.00    +0.000 OA
ATOM      7  C   UNL     1     -11.534  56.083  50.084  0.00  0.00    +0.000 C 
ENDROOT
BRANCH   1  13
ATOM      8  S   UNL     1      -7.949  54.343  45.530  0.00  0.00    +0.000 S 
ATOM      9  O   UNL     1      -6.982  53.505  46.207  0.00  0.00    +0.000 OA
ATOM     10  O   UNL     1      -7.506  55.391  44.627  0.00  0.00    +0.000 OA
ATOM     11  N   UNL     1      -8.894  55.033  46.649  0.00  0.00    +0.000 N 
ATOM     12  C   UNL     1      -8.944  53.262  44.566  0.00  0.00    +0.000 A 
ATOM     13  C   UNL     1     -10.088  54.574  46.870  0.00  0.00    +0.000 C 
ATOM     14  C   UNL     1     -10.223  52.979  45.026  0.00  0.00    +0.000 A 
ATOM     15  C   UNL     1      -8.442  52.721  43.382  0.00  0.00    +0.000 A 
ATOM     16  N   UNL     1     -10.710  53.552  46.193  0.00  0.00    +0.000 N 
ATOM     17  C   UNL     1     -11.018  52.111  44.272  0.00  0.00    +0.000 A 
ATOM     18  C   UNL     1      -9.247  51.865  42.637  0.00  0.00    +0.000 A 
ATOM     19  C   UNL     1     -10.535  51.560  43.083  0.00  0.00    +0.000 A 
ATOM     20  H   UNL     1      -8.561  55.804  47.163  0.00  0.00    +0.000 HD
ATOM     21  H   UNL     1     -11.555  53.205  46.559  0.00  0.00    +0.000 HD
ENDBRANCH   1  13
BRANCH   7  22
ATOM     22  C   UNL     1     -12.077  55.258  51.279  0.00  0.00    +0.000 C 
ATOM     23  C   UNL     1     -11.177  55.367  52.516  0.00  0.00    +0.000 C 
ATOM     24  C   UNL     1     -12.306  53.779  50.949  0.00  0.00    +0.000 C 
ENDBRANCH   7  22
BRANCH   5  25
ATOM     25  C   UNL     1     -13.803  57.016  49.280  0.00  0.00    +0.000 C 
BRANCH  25  26
ATOM     26  C   UNL     1     -13.732  58.098  50.352  0.00  0.00    +0.000 C 
BRANCH  26  27
ATOM     27  C   UNL     1     -14.821  57.943  51.428  0.00  0.00    +0.000 C 
ATOM     28  C   UNL     1     -15.679  56.696  51.204  0.00  0.00    +0.000 C 
ATOM     29  C   UNL     1     -14.171  57.885  52.810  0.00  0.00    +0.000 C 
ENDBRANCH  26  27
ENDBRANCH  25  26
ENDBRANCH   5  25
TORSDOF 5
ENDMDL
MODEL 2
REMARK VINA RESULT:      -7.5      2.689      4.247
REMARK  Name = 
REMARK  9 active torsions:
REMARK  status: ('A' for Active; 'I' for Inactive)
REMARK    1  A    between atoms: C_6  and  C_10
REMARK    2  A    between atoms: N_17  and  C_20
REMARK    3  A    between atoms: C_19  and  C_21
REMARK    4  A    between atoms: C_20  and  C_22
REMARK    5  A    between atoms: C_21  and  C_23
REMARK    6  A    between atoms: C_21  and  C_24
REMARK    7  A    between atoms: C_22  and  C_25
REMARK    8  A    between atoms: C_25  and  C_26
REMARK    9  A    between atoms: C_25  and  C_27
REMARK                            x       y       z     vdW  Elec       q    Type
REMARK                         _______ _______ _______ _____ _____    ______ ____
ROOT
ATOM      1  C   UNL     1     -10.987  55.255  48.683  0.00  0.00    +0.000 C 
ATOM      2  C   UNL     1     -11.514  55.109  50.046  0.00  0.00    +0.000 C 
ATOM      3  C   UNL     1     -11.999  55.708  47.935  0.00  0.00    +0.000 C 
ATOM      4  O   UNL     1     -10.856  54.685  50.981  0.00  0.00    +0.000 OA
ATOM      5  N   UNL     1     -12.827  55.519  50.036  0.00  0.00    +0.000 N 
ATOM      6  O   UNL     1     -11.966  55.930  46.581  0.00  0.00    +0.000 OA
ATOM      7  C   UNL     1     -13.262  55.969  48.714  0.00  0.00    +0.000 C 
ENDROOT
BRANCH   1  13
ATOM      8  S   UNL     1      -8.015  53.940  46.555  0.00  0.00    +0.000 S 
ATOM      9  O   UNL     1      -7.721  54.881  45.494  0.00  0.00    +0.000 OA
ATOM     10  O   UNL     1      -7.973  52.511  46.300  0.00  0.00    +0.000 OA
ATOM     11  N   UNL     1      -9.481  54.285  47.147  0.00  0.00    +0.000 N 
ATOM     12  C   UNL     1      -6.831  54.242  47.818  0.00  0.00    +0.000 A 
ATOM     13  C   UNL     1      -9.599  54.928  48.269  0.00  0.00    +0.000 C 
ATOM     14  C   UNL     1      -7.255  54.922  48.951  0.00  0.00    +0.000 A 
ATOM     15  C   UNL     1      -5.517  53.801  47.663  0.00  0.00    +0.000 A 
ATOM     16  N   UNL     1      -8.576  55.325  49.096  0.00  0.00    +0.000 N 
ATOM     17  C   UNL     1      -6.318  55.176  49.957  0.00  0.00    +0.000 A 
ATOM     18  C   UNL     1      -4.596  54.054  48.674  0.00  0.00    +0.000 A 
ATOM     19  C   UNL     1      -4.997  54.742  49.821  0.00  0.00    +0.000 A 
ATOM     20  H   UNL     1     -10.286  54.006  46.654  0.00  0.00    +0.000 HD
ATOM     21  H   UNL     1      -8.793  55.934  49.838  0.00  0.00    +0.000 HD
ENDBRANCH   1  13
BRANCH   7  22
ATOM     22  C   UNL     1     -13.774  57.432  48.679  0.00  0.00    +0.000 C 
ATOM     23  C   UNL     1     -14.232  57.853  47.277  0.00  0.00    +0.000 C 
ATOM     24  C   UNL     1     -12.755  58.450  49.205  0.00  0.00    +0.000 C 
ENDBRANCH   7  22
BRANCH   5  25
ATOM     25  C   UNL     1     -13.648  55.554  51.233  0.00  0.00    +0.000 C 
BRANCH  25  26
ATOM     26  C   UNL     1     -13.254  56.669  52.196  0.00  0.00    +0.000 C 
BRANCH  26  27
ATOM     27  C   UNL     1     -14.468  57.432  52.754  0.00  0.00    +0.000 C 
ATOM     28  C   UNL     1     -14.383  58.933  52.475  0.00  0.00    +0.000 C 
ATOM     29  C   UNL     1     -15.752  56.863  52.150  0.00  0.00    +0.000 C 
ENDBRANCH  26  27
ENDBRANCH  25  26
ENDBRANCH   5  25
TORSDOF 5
ENDMDL
MODEL 3
REMARK VINA RESULT:      -7.2      3.733      5.980
REMARK  Name = 
REMARK  9 active torsions:
REMARK  status: ('A' for Active; 'I' for Inactive)
REMARK    1  A    between atoms: C_6  and  C_10
REMARK    2  A    between atoms: N_17  and  C_20
REMARK    3  A    between atoms: C_19  and  C_21
REMARK    4  A    between atoms: C_20  and  C_22
REMARK    5  A    between atoms: C_21  and  C_23
REMARK    6  A    between atoms: C_21  and  C_24
REMARK    7  A    between atoms: C_22  and  C_25
REMARK    8  A    between atoms: C_25  and  C_26
REMARK    9  A    between atoms: C_25  and  C_27
REMARK                            x       y       z     vdW  Elec       q    Type
REMARK                         _______ _______ _______ _____ _____    ______ ____
ROOT
ATOM      1  C   UNL     1     -10.221  55.265  50.452  0.00  0.00    +0.000 C 
ATOM      2  C   UNL     1     -11.347  55.322  51.394  0.00  0.00    +0.000 C 
ATOM      3  C   UNL     1     -10.748  55.388  49.229  0.00  0.00    +0.000 C 
ATOM      4  O   UNL     1     -11.220  55.209  52.601  0.00  0.00    +0.000 OA
ATOM      5  N   UNL     1     -12.497  55.508  50.663  0.00  0.00    +0.000 N 
ATOM      6  O   UNL     1     -10.059  55.330  48.043  0.00  0.00    +0.000 OA
ATOM      7  C   UNL     1     -12.239  55.601  49.227  0.00  0.00    +0.000 C 
ENDROOT
BRANCH   1  13
ATOM      8  S   UNL     1      -6.428  54.470  50.184  0.00  0.00    +0.000 S 
ATOM      9  O   UNL     1      -5.739  55.583  49.564  0.00  0.00    +0.000 OA
ATOM     10  O   UNL     1      -6.067  53.105  49.846  0.00  0.00    +0.000 OA
ATOM     11  N   UNL     1      -8.014  54.637  49.905  0.00  0.00    +0.000 N 
ATOM     12  C   UNL     1      -6.158  54.629  51.912  0.00  0.00    +0.000 A 
ATOM     13  C   UNL     1      -8.799  55.084  50.837  0.00  0.00    +0.000 C 
ATOM     14  C   UNL     1      -7.209  55.095  52.690  0.00  0.00    +0.000 A 
ATOM     15  C   UNL     1      -4.921  54.291  52.460  0.00  0.00    +0.000 A 
ATOM     16  N   UNL     1      -8.441  55.398  52.126  0.00  0.00    +0.000 N 
ATOM     17  C   UNL     1      -7.001  55.235  54.065  0.00  0.00    +0.000 A 
ATOM     18  C   UNL     1      -4.729  54.427  53.831  0.00  0.00    +0.000 A 
ATOM     19  C   UNL     1      -5.769  54.900  54.634  0.00  0.00    +0.000 A 
ATOM     20  H   UNL     1      -8.384  54.397  49.024  0.00  0.00    +0.000 HD
ATOM     21  H   UNL     1      -9.101  55.867  52.686  0.00  0.00    +0.000 HD
ENDBRANCH   1  13
BRANCH   7  22
ATOM     22  C   UNL     1     -12.721  56.925  48.582  0.00  0.00    +0.000 C 
ATOM     23  C   UNL     1     -12.475  58.137  49.490  0.00  0.00    +0.000 C 
ATOM     24  C   UNL     1     -14.196  56.901  48.161  0.00  0.00    +0.000 C 
ENDBRANCH   7  22
BRANCH   5  25
ATOM     25  C   UNL     1     -13.803  55.658  51.281  0.00  0.00    +0.000 C 
BRANCH  25  26
ATOM     26  C   UNL     1     -13.855  56.788  52.303  0.00  0.00    +0.000 C 
BRANCH  26  27
ATOM     27  C   UNL     1     -15.213  57.510  52.325  0.00  0.00    +0.000 C 
ATOM     28  C   UNL     1     -15.074  59.009  52.057  0.00  0.00    +0.000 C 
ATOM     29  C   UNL     1     -16.145  56.881  51.288  0.00  0.00    +0.000 C 
ENDBRANCH  26  27
ENDBRANCH  25  26
ENDBRANCH   5  25
TORSDOF 5
ENDMDL
MODEL 4
REMARK VINA RESULT:      -7.0      2.791      7.742
REMARK  Name = 
REMARK  9 active torsions:
REMARK  status: ('A' for Active; 'I' for Inactive)
REMARK    1  A    between atoms: C_6  and  C_10
REMARK    2  A    between atoms: N_17  and  C_20
REMARK    3  A    between atoms: C_19  and  C_21
REMARK    4  A    between atoms: C_20  and  C_22
REMARK    5  A    between atoms: C_21  and  C_23
REMARK    6  A    between atoms: C_21  and  C_24
REMARK    7  A    between atoms: C_22  and  C_25
REMARK    8  A    between atoms: C_25  and  C_26
REMARK    9  A    between atoms: C_25  and  C_27
REMARK                            x       y       z     vdW  Elec       q    Type
REMARK                         _______ _______ _______ _____ _____    ______ ____
ROOT
ATOM      1  C   UNL     1     -12.354  55.085  48.743  0.00  0.00    +0.000 C 
ATOM      2  C   UNL     1     -11.924  54.998  47.340  0.00  0.00    +0.000 C 
ATOM      3  C   UNL     1     -12.045  53.910  49.303  0.00  0.00    +0.000 C 
ATOM      4  O   UNL     1     -12.086  55.895  46.530  0.00  0.00    +0.000 OA
ATOM      5  N   UNL     1     -11.347  53.764  47.153  0.00  0.00    +0.000 N 
ATOM      6  O   UNL     1     -12.324  53.533  50.593  0.00  0.00    +0.000 OA
ATOM      7  C   UNL     1     -11.333  52.961  48.375  0.00  0.00    +0.000 C 
ENDROOT
BRANCH   1  13
ATOM      8  S   UNL     1     -13.502  58.749  49.325  0.00  0.00    +0.000 S 
ATOM      9  O   UNL     1     -14.588  59.069  48.421  0.00  0.00    +0.000 OA
ATOM     10  O   UNL     1     -12.463  59.726  49.598  0.00  0.00    +0.000 OA
ATOM     11  N   UNL     1     -12.777  57.404  48.789  0.00  0.00    +0.000 N 
ATOM     12  C   UNL     1     -14.247  58.389  50.874  0.00  0.00    +0.000 A 
ATOM     13  C   UNL     1     -13.016  56.262  49.358  0.00  0.00    +0.000 C 
ATOM     14  C   UNL     1     -14.326  57.057  51.259  0.00  0.00    +0.000 A 
ATOM     15  C   UNL     1     -14.733  59.423  51.674  0.00  0.00    +0.000 A 
ATOM     16  N   UNL     1     -13.810  56.046  50.459  0.00  0.00    +0.000 N 
ATOM     17  C   UNL     1     -14.926  56.759  52.485  0.00  0.00    +0.000 A 
ATOM     18  C   UNL     1     -15.321  59.114  52.896  0.00  0.00    +0.000 A 
ATOM     19  C   UNL     1     -15.418  57.781  53.301  0.00  0.00    +0.000 A 
ATOM     20  H   UNL     1     -12.152  57.454  48.031  0.00  0.00    +0.000 HD
ATOM     21  H   UNL     1     -14.025  55.115  50.696  0.00  0.00    +0.000 HD
ENDBRANCH   1  13
BRANCH   7  22
ATOM     22  C   UNL     1      -9.917  52.523  48.828  0.00  0.00    +0.000 C 
ATOM     23  C   UNL     1      -9.956  51.285  49.735  0.00  0.00    +0.000 C 
ATOM     24  C   UNL     1      -9.126  53.636  49.525  0.00  0.00    +0.000 C 
ENDBRANCH   7  22
BRANCH   5  25
ATOM     25  C   UNL     1     -10.765  53.354  45.887  0.00  0.00    +0.000 C 
BRANCH  25  26
ATOM     26  C   UNL     1      -9.409  53.998  45.617  0.00  0.00    +0.000 C 
BRANCH  26  27
ATOM     27  C   UNL     1      -8.296  52.964  45.373  0.00  0.00    +0.000 C 
ATOM     28  C   UNL     1      -7.175  53.071  46.407  0.00  0.00    +0.000 C 
ATOM     29  C   UNL     1      -8.891  51.556  45.395  0.00  0.00    +0.000 C 
ENDBRANCH  26  27
ENDBRANCH  25  26
ENDBRANCH   5  25
TORSDOF 5
ENDMDL
MODEL 5
REMARK VINA RESULT:      -6.8      3.022      7.869
REMARK  Name = 
REMARK  9 active torsions:
REMARK  status: ('A' for Active; 'I' for Inactive)
REMARK    1  A    between atoms: C_6  and  C_10
REMARK    2  A    between atoms: N_17  and  C_20
REMARK    3  A    between atoms: C_19  and  C_21
REMARK    4  A    between atoms: C_20  and  C_22
REMARK    5  A    between atoms: C_21  and  C_23
REMARK    6  A    between atoms: C_21  and  C_24
REMARK    7  A    between atoms: C_22  and  C_25
REMARK    8  A    between atoms: C_25  and  C_26
REMARK    9  A    between atoms: C_25  and  C_27
REMARK                            x       y       z     vdW  Elec       q    Type
REMARK                         _______ _______ _______ _____ _____    ______ ____
ROOT
ATOM      1  C   UNL     1     -11.414  56.015  48.848  0.00  0.00    +0.000 C 
ATOM      2  C   UNL     1     -10.318  55.348  49.565  0.00  0.00    +0.000 C 
ATOM      3  C   UNL     1     -11.327  55.614  47.575  0.00  0.00    +0.000 C 
ATOM      4  O   UNL     1     -10.088  55.519  50.750  0.00  0.00    +0.000 OA
ATOM      5  N   UNL     1      -9.649  54.553  48.665  0.00  0.00    +0.000 N 
ATOM      6  O   UNL     1     -12.122  56.038  46.539  0.00  0.00    +0.000 OA
ATOM      7  C   UNL     1     -10.232  54.610  47.325  0.00  0.00    +0.000 C 
ENDROOT
BRANCH   1  13
ATOM      8  S   UNL     1     -13.534  59.214  49.448  0.00  0.00    +0.000 S 
ATOM      9  O   UNL     1     -14.649  59.240  48.525  0.00  0.00    +0.000 OA
ATOM     10  O   UNL     1     -12.807  60.433  49.755  0.00  0.00    +0.000 OA
ATOM     11  N   UNL     1     -12.458  58.129  48.913  0.00  0.00    +0.000 N 
ATOM     12  C   UNL     1     -14.178  58.636  50.977  0.00  0.00    +0.000 A 
ATOM     13  C   UNL     1     -12.384  56.955  49.462  0.00  0.00    +0.000 C 
ATOM     14  C   UNL     1     -13.895  57.327  51.343  0.00  0.00    +0.000 A 
ATOM     15  C   UNL     1     -14.943  59.484  51.777  0.00  0.00    +0.000 A 
ATOM     16  N   UNL     1     -13.107  56.511  50.543  0.00  0.00    +0.000 N 
ATOM     17  C   UNL     1     -14.413  56.855  52.553  0.00  0.00    +0.000 A 
ATOM     18  C   UNL     1     -15.445  59.004  52.983  0.00  0.00    +0.000 A 
ATOM     19  C   UNL     1     -15.181  57.689  53.370  0.00  0.00    +0.000 A 
ATOM     20  H   UNL     1     -11.857  58.361  48.168  0.00  0.00    +0.000 HD
ATOM     21  H   UNL     1     -13.063  55.553  50.765  0.00  0.00    +0.000 HD
ENDBRANCH   1  13
BRANCH   7  22
ATOM     22  C   UNL     1     -10.699  53.238  46.778  0.00  0.00    +0.000 C 
ATOM     23  C   UNL     1     -10.891  53.254  45.256  0.00  0.00    +0.000 C 
ATOM     24  C   UNL     1     -11.978  52.716  47.443  0.00  0.00    +0.000 C 
ENDBRANCH   7  22
BRANCH   5  25
ATOM     25  C   UNL     1      -8.531  53.708  49.045  0.00  0.00    +0.000 C 
BRANCH  25  26
ATOM     26  C   UNL     1      -7.193  54.440  49.022  0.00  0.00    +0.000 C 
BRANCH  26  27
ATOM     27  C   UNL     1      -6.280  54.051  50.197  0.00  0.00    +0.000 C 
ATOM     28  C   UNL     1      -4.805  54.316  49.893  0.00  0.00    +0.000 C 
ATOM     29  C   UNL     1      -6.699  54.823  51.449  0.00  0.00    +0.000 C 
ENDBRANCH  26  27
ENDBRANCH  25  26
ENDBRANCH   5  25
TORSDOF 5
ENDMDL
MODEL 6
REMARK VINA RESULT:      -6.8      3.562      6.511
REMARK  Name = 
REMARK  9 active torsions:
REMARK  status: ('A' for Active; 'I' for Inactive)
REMARK    1  A    between atoms: C_6  and  C_10
REMARK    2  A    between atoms: N_17  and  C_20
REMARK    3  A    between atoms: C_19  and  C_21
REMARK    4  A    between atoms: C_20  and  C_22
REMARK    5  A    between atoms: C_21  and  C_23
REMARK    6  A    between atoms: C_21  and  C_24
REMARK    7  A    between atoms: C_22  and  C_25
REMARK    8  A    between atoms: C_25  and  C_26
REMARK    9  A    between atoms: C_25  and  C_27
REMARK                            x       y       z     vdW  Elec       q    Type
REMARK                         _______ _______ _______ _____ _____    ______ ____
ROOT
ATOM      1  C   UNL     1     -10.705  54.162  50.262  0.00  0.00    +0.000 C 
ATOM      2  C   UNL     1     -11.649  55.265  50.492  0.00  0.00    +0.000 C 
ATOM      3  C   UNL     1     -10.968  53.693  49.037  0.00  0.00    +0.000 C 
ATOM      4  O   UNL     1     -11.702  55.898  51.532  0.00  0.00    +0.000 OA
ATOM      5  N   UNL     1     -12.413  55.408  49.358  0.00  0.00    +0.000 N 
ATOM      6  O   UNL     1     -10.360  52.619  48.437  0.00  0.00    +0.000 OA
ATOM      7  C   UNL     1     -12.045  54.456  48.311  0.00  0.00    +0.000 C 
ENDROOT
BRANCH   1  13
ATOM      8  S   UNL     1      -8.673  51.790  52.571  0.00  0.00    +0.000 S 
ATOM      9  O   UNL     1      -7.727  51.031  51.779  0.00  0.00    +0.000 OA
ATOM     10  O   UNL     1      -9.397  51.153  53.656  0.00  0.00    +0.000 OA
ATOM     11  N   UNL     1      -9.768  52.437  51.570  0.00  0.00    +0.000 N 
ATOM     12  C   UNL     1      -7.759  53.100  53.302  0.00  0.00    +0.000 A 
ATOM     13  C   UNL     1      -9.694  53.690  51.241  0.00  0.00    +0.000 C 
ATOM     14  C   UNL     1      -7.915  54.372  52.767  0.00  0.00    +0.000 A 
ATOM     15  C   UNL     1      -6.915  52.845  54.383  0.00  0.00    +0.000 A 
ATOM     16  N   UNL     1      -8.783  54.606  51.709  0.00  0.00    +0.000 N 
ATOM     17  C   UNL     1      -7.184  55.419  53.335  0.00  0.00    +0.000 A 
ATOM     18  C   UNL     1      -6.200  53.898  54.944  0.00  0.00    +0.000 A 
ATOM     19  C   UNL     1      -6.334  55.185  54.419  0.00  0.00    +0.000 A 
ATOM     20  H   UNL     1     -10.493  51.877  51.209  0.00  0.00    +0.000 HD
ATOM     21  H   UNL     1      -8.744  55.485  51.267  0.00  0.00    +0.000 HD
ENDBRANCH   1  13
BRANCH   7  22
ATOM     22  C   UNL     1     -11.608  55.117  46.979  0.00  0.00    +0.000 C 
ATOM     23  C   UNL     1     -11.849  54.202  45.770  0.00  0.00    +0.000 C 
ATOM     24  C   UNL     1     -10.147  55.583  46.976  0.00  0.00    +0.000 C 
ENDBRANCH   7  22
BRANCH   5  25
ATOM     25  C   UNL     1     -13.422  56.442  49.217  0.00  0.00    +0.000 C 
BRANCH  25  26
ATOM     26  C   UNL     1     -14.711  56.125  49.968  0.00  0.00    +0.000 C 
BRANCH  26  27
ATOM     27  C   UNL     1     -15.198  57.297  50.838  0.00  0.00    +0.000 C 
ATOM     28  C   UNL     1     -15.255  56.928  52.322  0.00  0.00    +0.000 C 
ATOM     29  C   UNL     1     -14.277  58.501  50.638  0.00  0.00    +0.000 C 
ENDBRANCH  26  27
ENDBRANCH  25  26
ENDBRANCH   5  25
TORSDOF 5
ENDMDL
MODEL 7
REMARK VINA RESULT:      -6.8      1.681      2.238
REMARK  Name = 
REMARK  9 active torsions:
REMARK  status: ('A' for Active; 'I' for Inactive)
REMARK    1  A    between atoms: C_6  and  C_10
REMARK    2  A    between atoms: N_17  and  C_20
REMARK    3  A    between atoms: C_19  and  C_21
REMARK    4  A    between atoms: C_20  and  C_22
REMARK    5  A    between atoms: C_21  and  C_23
REMARK    6  A    between atoms: C_21  and  C_24
REMARK    7  A    between atoms: C_22  and  C_25
REMARK    8  A    between atoms: C_25  and  C_26
REMARK    9  A    between atoms: C_25  and  C_27
REMARK                            x       y       z     vdW  Elec       q    Type
REMARK                         _______ _______ _______ _____ _____    ______ ____
ROOT
ATOM      1  C   UNL     1     -11.222  54.988  48.579  0.00  0.00    +0.000 C 
ATOM      2  C   UNL     1     -12.072  56.061  48.046  0.00  0.00    +0.000 C 
ATOM      3  C   UNL     1     -11.206  55.145  49.907  0.00  0.00    +0.000 C 
ATOM      4  O   UNL     1     -12.277  56.229  46.856  0.00  0.00    +0.000 OA
ATOM      5  N   UNL     1     -12.544  56.792  49.111  0.00  0.00    +0.000 N 
ATOM      6  O   UNL     1     -10.486  54.393  50.800  0.00  0.00    +0.000 OA
ATOM      7  C   UNL     1     -12.075  56.274  50.396  0.00  0.00    +0.000 C 
ENDROOT
BRANCH   1  13
ATOM      8  S   UNL     1      -8.735  52.185  47.555  0.00  0.00    +0.000 S 
ATOM      9  O   UNL     1      -9.180  50.917  48.094  0.00  0.00    +0.000 OA
ATOM     10  O   UNL     1      -7.324  52.528  47.558  0.00  0.00    +0.000 OA
ATOM     11  N   UNL     1      -9.524  53.370  48.326  0.00  0.00    +0.000 N 
ATOM     12  C   UNL     1      -9.234  52.202  45.870  0.00  0.00    +0.000 A 
ATOM     13  C   UNL     1     -10.525  53.968  47.756  0.00  0.00    +0.000 C 
ATOM     14  C   UNL     1     -10.329  52.985  45.529  0.00  0.00    +0.000 A 
ATOM     15  C   UNL     1      -8.535  51.449  44.927  0.00  0.00    +0.000 A 
ATOM     16  N   UNL     1     -10.991  53.749  46.481  0.00  0.00    +0.000 N 
ATOM     17  C   UNL     1     -10.740  52.997  44.193  0.00  0.00    +0.000 A 
ATOM     18  C   UNL     1      -8.950  51.476  43.599  0.00  0.00    +0.000 A 
ATOM     19  C   UNL     1     -10.053  52.249  43.233  0.00  0.00    +0.000 A 
ATOM     20  H   UNL     1      -9.243  53.637  49.231  0.00  0.00    +0.000 HD
ATOM     21  H   UNL     1     -11.847  54.162  46.226  0.00  0.00    +0.000 HD
ENDBRANCH   1  13
BRANCH   7  22
ATOM     22  C   UNL     1     -13.213  55.865  51.367  0.00  0.00    +0.000 C 
ATOM     23  C   UNL     1     -14.554  55.680  50.644  0.00  0.00    +0.000 C 
ATOM     24  C   UNL     1     -13.400  56.839  52.537  0.00  0.00    +0.000 C 
ENDBRANCH   7  22
BRANCH   5  25
ATOM     25  C   UNL     1     -13.458  57.909  48.953  0.00  0.00    +0.000 C 
BRANCH  25  26
ATOM     26  C   UNL     1     -12.963  59.186  49.624  0.00  0.00    +0.000 C 
BRANCH  26  27
ATOM     27  C   UNL     1     -14.108  60.138  50.011  0.00  0.00    +0.000 C 
ATOM     28  C   UNL     1     -14.749  60.796  48.788  0.00  0.00    +0.000 C 
ATOM     29  C   UNL     1     -15.167  59.371  50.804  0.00  0.00    +0.000 C 
ENDBRANCH  26  27
ENDBRANCH  25  26
ENDBRANCH   5  25
TORSDOF 5
ENDMDL
MODEL 8
REMARK VINA RESULT:      -6.7      3.794      6.231
REMARK  Name = 
REMARK  9 active torsions:
REMARK  status: ('A' for Active; 'I' for Inactive)
REMARK    1  A    between atoms: C_6  and  C_10
REMARK    2  A    between atoms: N_17  and  C_20
REMARK    3  A    between atoms: C_19  and  C_21
REMARK    4  A    between atoms: C_20  and  C_22
REMARK    5  A    between atoms: C_21  and  C_23
REMARK    6  A    between atoms: C_21  and  C_24
REMARK    7  A    between atoms: C_22  and  C_25
REMARK    8  A    between atoms: C_25  and  C_26
REMARK    9  A    between atoms: C_25  and  C_27
REMARK                            x       y       z     vdW  Elec       q    Type
REMARK                         _______ _______ _______ _____ _____    ______ ____
ROOT
ATOM      1  C   UNL     1      -9.167  54.271  49.827  0.00  0.00    +0.000 C 
ATOM      2  C   UNL     1     -10.258  55.085  50.381  0.00  0.00    +0.000 C 
ATOM      3  C   UNL     1      -9.704  53.551  48.835  0.00  0.00    +0.000 C 
ATOM      4  O   UNL     1     -10.119  55.841  51.327  0.00  0.00    +0.000 OA
ATOM      5  N   UNL     1     -11.394  54.817  49.655  0.00  0.00    +0.000 N 
ATOM      6  O   UNL     1      -9.053  52.608  48.080  0.00  0.00    +0.000 OA
ATOM      7  C   UNL     1     -11.159  53.848  48.585  0.00  0.00    +0.000 C 
ENDROOT
BRANCH   1  13
ATOM      8  S   UNL     1      -5.319  53.754  49.930  0.00  0.00    +0.000 S 
ATOM      9  O   UNL     1      -4.666  54.801  49.172  0.00  0.00    +0.000 OA
ATOM     10  O   UNL     1      -4.840  52.386  49.853  0.00  0.00    +0.000 OA
ATOM     11  N   UNL     1      -6.888  53.742  49.531  0.00  0.00    +0.000 N 
ATOM     12  C   UNL     1      -5.189  54.219  51.619  0.00  0.00    +0.000 A 
ATOM     13  C   UNL     1      -7.769  54.273  50.323  0.00  0.00    +0.000 C 
ATOM     14  C   UNL     1      -6.325  54.720  52.240  0.00  0.00    +0.000 A 
ATOM     15  C   UNL     1      -3.975  54.078  52.291  0.00  0.00    +0.000 A 
ATOM     16  N   UNL     1      -7.530  54.825  51.559  0.00  0.00    +0.000 N 
ATOM     17  C   UNL     1      -6.228  55.103  53.582  0.00  0.00    +0.000 A 
ATOM     18  C   UNL     1      -3.894  54.455  53.628  0.00  0.00    +0.000 A 
ATOM     19  C   UNL     1      -5.021  54.968  54.272  0.00  0.00    +0.000 A 
ATOM     20  H   UNL     1      -7.174  53.331  48.684  0.00  0.00    +0.000 HD
ATOM     21  H   UNL     1      -8.261  55.325  51.989  0.00  0.00    +0.000 HD
ENDBRANCH   1  13
BRANCH   7  22
ATOM     22  C   UNL     1     -11.496  54.375  47.167  0.00  0.00    +0.000 C 
ATOM     23  C   UNL     1     -11.657  53.239  46.148  0.00  0.00    +0.000 C 
ATOM     24  C   UNL     1     -10.479  55.392  46.634  0.00  0.00    +0.000 C 
ENDBRANCH   7  22
BRANCH   5  25
ATOM     25  C   UNL     1     -12.659  55.486  49.901  0.00  0.00    +0.000 C 
BRANCH  25  26
ATOM     26  C   UNL     1     -12.603  56.987  49.637  0.00  0.00    +0.000 C 
BRANCH  26  27
ATOM     27  C   UNL     1     -13.898  57.532  49.012  0.00  0.00    +0.000 C 
ATOM     28  C   UNL     1     -14.091  59.023  49.294  0.00  0.00    +0.000 C 
ATOM     29  C   UNL     1     -13.882  57.286  47.503  0.00  0.00    +0.000 C 
ENDBRANCH  26  27
ENDBRANCH  25  26
ENDBRANCH   5  25
TORSDOF 5
ENDMDL
MODEL 9
REMARK VINA RESULT:      -6.7      3.004      7.828
REMARK  Name = 
REMARK  9 active torsions:
REMARK  status: ('A' for Active; 'I' for Inactive)
REMARK    1  A    between atoms: C_6  and  C_10
REMARK    2  A    between atoms: N_17  and  C_20
REMARK    3  A    between atoms: C_19  and  C_21
REMARK    4  A    between atoms: C_20  and  C_22
REMARK    5  A    between atoms: C_21  and  C_23
REMARK    6  A    between atoms: C_21  and  C_24
REMARK    7  A    between atoms: C_22  and  C_25
REMARK    8  A    between atoms: C_25  and  C_26
REMARK    9  A    between atoms: C_25  and  C_27
REMARK                            x       y       z     vdW  Elec       q    Type
REMARK                         _______ _______ _______ _____ _____    ______ ____
ROOT
ATOM      1  C   UNL     1     -11.238  55.233  48.528  0.00  0.00    +0.000 C 
ATOM      2  C   UNL     1     -10.113  54.432  49.032  0.00  0.00    +0.000 C 
ATOM      3  C   UNL     1     -11.246  55.075  47.200  0.00  0.00    +0.000 C 
ATOM      4  O   UNL     1      -9.801  54.376  50.209  0.00  0.00    +0.000 OA
ATOM      5  N   UNL     1      -9.525  53.810  47.956  0.00  0.00    +0.000 N 
ATOM      6  O   UNL     1     -12.097  55.694  46.319  0.00  0.00    +0.000 OA
ATOM      7  C   UNL     1     -10.194  54.124  46.694  0.00  0.00    +0.000 C 
ENDROOT
BRANCH   1  13
ATOM      8  S   UNL     1     -13.624  56.253  51.418  0.00  0.00    +0.000 S 
ATOM      9  O   UNL     1     -12.853  56.532  52.612  0.00  0.00    +0.000 OA
ATOM     10  O   UNL     1     -14.885  55.538  51.511  0.00  0.00    +0.000 OA
ATOM     11  N   UNL     1     -12.680  55.442  50.383  0.00  0.00    +0.000 N 
ATOM     12  C   UNL     1     -14.004  57.813  50.705  0.00  0.00    +0.000 A 
ATOM     13  C   UNL     1     -12.142  56.054  49.372  0.00  0.00    +0.000 C 
ATOM     14  C   UNL     1     -13.291  58.198  49.578  0.00  0.00    +0.000 A 
ATOM     15  C   UNL     1     -14.993  58.617  51.270  0.00  0.00    +0.000 A 
ATOM     16  N   UNL     1     -12.330  57.368  49.016  0.00  0.00    +0.000 N 
ATOM     17  C   UNL     1     -13.578  59.443  49.009  0.00  0.00    +0.000 A 
ATOM     18  C   UNL     1     -15.275  59.850  50.690  0.00  0.00    +0.000 A 
ATOM     19  C   UNL     1     -14.566  60.263  49.559  0.00  0.00    +0.000 A 
ATOM     20  H   UNL     1     -12.515  54.482  50.521  0.00  0.00    +0.000 HD
ATOM     21  H   UNL     1     -11.747  57.744  48.318  0.00  0.00    +0.000 HD
ENDBRANCH   1  13
BRANCH   7  22
ATOM     22  C   UNL     1     -10.730  52.882  45.936  0.00  0.00    +0.000 C 
ATOM     23  C   UNL     1     -10.940  53.161  44.441  0.00  0.00    +0.000 C 
ATOM     24  C   UNL     1     -12.023  52.312  46.530  0.00  0.00    +0.000 C 
ENDBRANCH   7  22
BRANCH   5  25
ATOM     25  C   UNL     1      -8.405  52.896  48.093  0.00  0.00    +0.000 C 
BRANCH  25  26
ATOM     26  C   UNL     1      -7.104  53.455  47.526  0.00  0.00    +0.000 C 
BRANCH  26  27
ATOM     27  C   UNL     1      -6.039  53.702  48.608  0.00  0.00    +0.000 C 
ATOM     28  C   UNL     1      -4.618  53.550  48.063  0.00  0.00    +0.000 C 
ATOM     29  C   UNL     1      -6.222  55.100  49.198  0.00  0.00    +0.000 C 
ENDBRANCH  26  27
ENDBRANCH  25  26
ENDBRANCH   5  25
TORSDOF 5
ENDMDL
