MODEL 1
REMARK VINA RESULT:      -8.0      0.000      0.000
REMARK  Name = 
REMARK  10 active torsions:
REMARK  status: ('A' for Active; 'I' for Inactive)
REMARK    1  A    between atoms: C_6  and  C_10
REMARK    2  A    between atoms: N_17  and  C_20
REMARK    3  A    between atoms: C_19  and  C_21
REMARK    4  A    between atoms: C_20  and  C_22
REMARK    5  A    between atoms: C_21  and  C_23
REMARK    6  A    between atoms: C_21  and  C_24
REMARK    7  A    between atoms: C_21  and  C_25
REMARK    8  A    between atoms: C_22  and  C_26
REMARK    9  A    between atoms: C_26  and  C_27
REMARK   10  A    between atoms: C_26  and  C_28
REMARK                            x       y       z     vdW  Elec       q    Type
REMARK                         _______ _______ _______ _____ _____    ______ ____
ROOT
ATOM      1  C   UNL     1     -10.807  55.307  47.839  0.00  0.00    +0.000 C 
ATOM      2  C   UNL     1     -12.181  55.796  47.686  0.00  0.00    +0.000 C 
ATOM      3  C   UNL     1     -10.435  55.631  49.084  0.00  0.00    +0.000 C 
ATOM      4  O   UNL     1     -12.806  55.717  46.641  0.00  0.00    +0.000 OA
ATOM      5  N   UNL     1     -12.579  56.343  48.887  0.00  0.00    +0.000 N 
ATOM      6  O   UNL     1      -9.188  55.414  49.617  0.00  0.00    +0.000 OA
ATOM      7  C   UNL     1     -11.532  56.279  49.921  0.00  0.00    +0.000 C 
ENDROOT
BRANCH   1  13
ATOM      8  S   UNL     1      -7.894  54.330  45.451  0.00  0.00    +0.000 S 
ATOM      9  O   UNL     1      -6.933  53.520  46.174  0.00  0.00    +0.000 OA
ATOM     10  O   UNL     1      -7.440  55.331  44.505  0.00  0.00    +0.000 OA
ATOM     11  N   UNL     1      -8.848  55.067  46.529  0.00  0.00    +0.000 N 
ATOM     12  C   UNL     1      -8.879  53.202  44.526  0.00  0.00    +0.000 A 
ATOM     13  C   UNL     1     -10.044  54.612  46.768  0.00  0.00    +0.000 C 
ATOM     14  C   UNL     1     -10.158  52.937  44.988  0.00  0.00    +0.000 A 
ATOM     15  C   UNL     1      -8.368  52.610  43.368  0.00  0.00    +0.000 A 
ATOM     16  N   UNL     1     -10.653  53.560  46.128  0.00  0.00    +0.000 N 
ATOM     17  C   UNL     1     -10.950  52.040  44.264  0.00  0.00    +0.000 A 
ATOM     18  C   UNL     1      -9.168  51.722  42.656  0.00  0.00    +0.000 A 
ATOM     19  C   UNL     1     -10.461  51.439  43.103  0.00  0.00    +0.000 A 
ATOM     20  H   UNL     1      -8.524  55.864  47.005  0.00  0.00    +0.000 HD
ATOM     21  H   UNL     1     -11.499  53.223  46.503  0.00  0.00    +0.000 HD
ENDBRANCH   1  13
BRANCH   7  22
ATOM     22  C   UNL     1     -11.892  55.500  51.247  0.00  0.00    +0.000 C 
ATOM     23  C   UNL     1     -10.648  55.325  52.158  0.00  0.00    +0.000 C 
ATOM     24  C   UNL     1     -12.902  56.270  52.124  0.00  0.00    +0.000 C 
ATOM     25  C   UNL     1     -12.463  54.103  50.947  0.00  0.00    +0.000 C 
ENDBRANCH   7  22
BRANCH   5  26
ATOM     26  C   UNL     1     -13.901  56.935  49.019  0.00  0.00    +0.000 C 
BRANCH  26  27
ATOM     27  C   UNL     1     -13.938  58.435  48.748  0.00  0.00    +0.000 C 
BRANCH  27  28
ATOM     28  C   UNL     1     -13.720  59.283  50.015  0.00  0.00    +0.000 C 
ATOM     29  C   UNL     1     -13.139  60.666  49.708  0.00  0.00    +0.000 C 
ATOM     30  C   UNL     1     -15.047  59.436  50.756  0.00  0.00    +0.000 C 
ENDBRANCH  27  28
ENDBRANCH  26  27
ENDBRANCH   5  26
TORSDOF 5
ENDMDL
MODEL 2
REMARK VINA RESULT:      -7.5      3.631      6.008
REMARK  Name = 
REMARK  10 active torsions:
REMARK  status: ('A' for Active; 'I' for Inactive)
REMARK    1  A    between atoms: C_6  and  C_10
REMARK    2  A    between atoms: N_17  and  C_20
REMARK    3  A    between atoms: C_19  and  C_21
REMARK    4  A    between atoms: C_20  and  C_22
REMARK    5  A    between atoms: C_21  and  C_23
REMARK    6  A    between atoms: C_21  and  C_24
REMARK    7  A    between atoms: C_21  and  C_25
REMARK    8  A    between atoms: C_22  and  C_26
REMARK    9  A    between atoms: C_26  and  C_27
REMARK   10  A    between atoms: C_26  and  C_28
REMARK                            x       y       z     vdW  Elec       q    Type
REMARK                         _______ _______ _______ _____ _____    ______ ____
ROOT
ATOM      1  C   UNL     1     -10.266  55.088  50.530  0.00  0.00    +0.000 C 
ATOM      2  C   UNL     1     -11.300  55.336  51.539  0.00  0.00    +0.000 C 
ATOM      3  C   UNL     1     -10.901  55.039  49.352  0.00  0.00    +0.000 C 
ATOM      4  O   UNL     1     -11.069  55.378  52.736  0.00  0.00    +0.000 OA
ATOM      5  N   UNL     1     -12.508  55.480  50.891  0.00  0.00    +0.000 N 
ATOM      6  O   UNL     1     -10.307  54.758  48.146  0.00  0.00    +0.000 OA
ATOM      7  C   UNL     1     -12.393  55.336  49.429  0.00  0.00    +0.000 C 
ENDROOT
BRANCH   1  13
ATOM      8  S   UNL     1      -6.489  54.260  50.089  0.00  0.00    +0.000 S 
ATOM      9  O   UNL     1      -5.846  55.332  49.353  0.00  0.00    +0.000 OA
ATOM     10  O   UNL     1      -6.133  52.878  49.828  0.00  0.00    +0.000 OA
ATOM     11  N   UNL     1      -8.088  54.402  49.898  0.00  0.00    +0.000 N 
ATOM     12  C   UNL     1      -6.112  54.544  51.785  0.00  0.00    +0.000 A 
ATOM     13  C   UNL     1      -8.820  54.921  50.840  0.00  0.00    +0.000 C 
ATOM     14  C   UNL     1      -7.115  55.062  52.588  0.00  0.00    +0.000 A 
ATOM     15  C   UNL     1      -4.840  54.246  52.280  0.00  0.00    +0.000 A 
ATOM     16  N   UNL     1      -8.380  55.324  52.077  0.00  0.00    +0.000 N 
ATOM     17  C   UNL     1      -6.826  55.295  53.937  0.00  0.00    +0.000 A 
ATOM     18  C   UNL     1      -4.568  54.480  53.624  0.00  0.00    +0.000 A 
ATOM     19  C   UNL     1      -5.564  55.002  54.454  0.00  0.00    +0.000 A 
ATOM     20  H   UNL     1      -8.511  54.092  49.064  0.00  0.00    +0.000 HD
ATOM     21  H   UNL     1      -9.005  55.835  52.642  0.00  0.00    +0.000 HD
ENDBRANCH   1  13
BRANCH   7  22
ATOM     22  C   UNL     1     -12.863  56.566  48.557  0.00  0.00    +0.000 C 
ATOM     23  C   UNL     1     -12.473  56.387  47.066  0.00  0.00    +0.000 C 
ATOM     24  C   UNL     1     -14.399  56.718  48.534  0.00  0.00    +0.000 C 
ATOM     25  C   UNL     1     -12.244  57.885  49.056  0.00  0.00    +0.000 C 
ENDBRANCH   7  22
BRANCH   5  26
ATOM     26  C   UNL     1     -13.725  55.709  51.652  0.00  0.00    +0.000 C 
BRANCH  26  27
ATOM     27  C   UNL     1     -13.761  57.053  52.373  0.00  0.00    +0.000 C 
BRANCH  27  28
ATOM     28  C   UNL     1     -15.120  57.766  52.249  0.00  0.00    +0.000 C 
ATOM     29  C   UNL     1     -15.032  59.072  51.452  0.00  0.00    +0.000 C 
ATOM     30  C   UNL     1     -16.126  56.828  51.586  0.00  0.00    +0.000 C 
ENDBRANCH  27  28
ENDBRANCH  26  27
ENDBRANCH   5  26
TORSDOF 5
ENDMDL
MODEL 3
REMARK VINA RESULT:      -7.3      3.039      7.826
REMARK  Name = 
REMARK  10 active torsions:
REMARK  status: ('A' for Active; 'I' for Inactive)
REMARK    1  A    between atoms: C_6  and  C_10
REMARK    2  A    between atoms: N_17  and  C_20
REMARK    3  A    between atoms: C_19  and  C_21
REMARK    4  A    between atoms: C_20  and  C_22
REMARK    5  A    between atoms: C_21  and  C_23
REMARK    6  A    between atoms: C_21  and  C_24
REMARK    7  A    between atoms: C_21  and  C_25
REMARK    8  A    between atoms: C_22  and  C_26
REMARK    9  A    between atoms: C_26  and  C_27
REMARK   10  A    between atoms: C_26  and  C_28
REMARK                            x       y       z     vdW  Elec       q    Type
REMARK                         _______ _______ _______ _____ _____    ______ ____
ROOT
ATOM      1  C   UNL     1     -11.514  55.860  48.840  0.00  0.00    +0.000 C 
ATOM      2  C   UNL     1     -10.547  55.061  49.599  0.00  0.00    +0.000 C 
ATOM      3  C   UNL     1     -11.354  55.515  47.556  0.00  0.00    +0.000 C 
ATOM      4  O   UNL     1     -10.385  55.175  50.803  0.00  0.00    +0.000 OA
ATOM      5  N   UNL     1      -9.891  54.228  48.718  0.00  0.00    +0.000 N 
ATOM      6  O   UNL     1     -12.022  56.079  46.498  0.00  0.00    +0.000 OA
ATOM      7  C   UNL     1     -10.344  54.397  47.327  0.00  0.00    +0.000 C 
ENDROOT
BRANCH   1  13
ATOM      8  S   UNL     1     -13.511  59.149  49.420  0.00  0.00    +0.000 S 
ATOM      9  O   UNL     1     -14.626  59.202  48.494  0.00  0.00    +0.000 OA
ATOM     10  O   UNL     1     -12.753  60.349  49.720  0.00  0.00    +0.000 OA
ATOM     11  N   UNL     1     -12.472  58.026  48.898  0.00  0.00    +0.000 N 
ATOM     12  C   UNL     1     -14.182  58.605  50.954  0.00  0.00    +0.000 A 
ATOM     13  C   UNL     1     -12.443  56.849  49.451  0.00  0.00    +0.000 C 
ATOM     14  C   UNL     1     -13.946  57.292  51.329  0.00  0.00    +0.000 A 
ATOM     15  C   UNL     1     -14.921  59.486  51.749  0.00  0.00    +0.000 A 
ATOM     16  N   UNL     1     -13.186  56.445  50.534  0.00  0.00    +0.000 N 
ATOM     17  C   UNL     1     -14.477  56.848  52.544  0.00  0.00    +0.000 A 
ATOM     18  C   UNL     1     -15.439  59.030  52.956  0.00  0.00    +0.000 A 
ATOM     19  C   UNL     1     -15.215  57.711  53.356  0.00  0.00    +0.000 A 
ATOM     20  H   UNL     1     -11.857  58.234  48.158  0.00  0.00    +0.000 HD
ATOM     21  H   UNL     1     -13.179  55.487  50.762  0.00  0.00    +0.000 HD
ENDBRANCH   1  13
BRANCH   7  22
ATOM     22  C   UNL     1     -10.932  53.117  46.612  0.00  0.00    +0.000 C 
ATOM     23  C   UNL     1     -11.415  53.441  45.174  0.00  0.00    +0.000 C 
ATOM     24  C   UNL     1      -9.872  52.012  46.419  0.00  0.00    +0.000 C 
ATOM     25  C   UNL     1     -12.122  52.529  47.392  0.00  0.00    +0.000 C 
ENDBRANCH   7  22
BRANCH   5  26
ATOM     26  C   UNL     1      -8.848  53.334  49.195  0.00  0.00    +0.000 C 
BRANCH  26  27
ATOM     27  C   UNL     1      -7.437  53.892  49.045  0.00  0.00    +0.000 C 
BRANCH  27  28
ATOM     28  C   UNL     1      -6.887  54.500  50.349  0.00  0.00    +0.000 C 
ATOM     29  C   UNL     1      -5.444  54.075  50.636  0.00  0.00    +0.000 C 
ATOM     30  C   UNL     1      -6.968  56.023  50.270  0.00  0.00    +0.000 C 
ENDBRANCH  27  28
ENDBRANCH  26  27
ENDBRANCH   5  26
TORSDOF 5
ENDMDL
MODEL 4
REMARK VINA RESULT:      -7.2      3.669      6.674
REMARK  Name = 
REMARK  10 active torsions:
REMARK  status: ('A' for Active; 'I' for Inactive)
REMARK    1  A    between atoms: C_6  and  C_10
REMARK    2  A    between atoms: N_17  and  C_20
REMARK    3  A    between atoms: C_19  and  C_21
REMARK    4  A    between atoms: C_20  and  C_22
REMARK    5  A    between atoms: C_21  and  C_23
REMARK    6  A    between atoms: C_21  and  C_24
REMARK    7  A    between atoms: C_21  and  C_25
REMARK    8  A    between atoms: C_22  and  C_26
REMARK    9  A    between atoms: C_26  and  C_27
REMARK   10  A    between atoms: C_26  and  C_28
REMARK                            x       y       z     vdW  Elec       q    Type
REMARK                         _______ _______ _______ _____ _____    ______ ____
ROOT
ATOM      1  C   UNL     1     -10.752  54.025  50.536  0.00  0.00    +0.000 C 
ATOM      2  C   UNL     1     -11.662  55.138  50.829  0.00  0.00    +0.000 C 
ATOM      3  C   UNL     1     -11.081  53.589  49.314  0.00  0.00    +0.000 C 
ATOM      4  O   UNL     1     -11.674  55.728  51.896  0.00  0.00    +0.000 OA
ATOM      5  N   UNL     1     -12.459  55.343  49.724  0.00  0.00    +0.000 N 
ATOM      6  O   UNL     1     -10.515  52.509  48.683  0.00  0.00    +0.000 OA
ATOM      7  C   UNL     1     -12.167  54.406  48.625  0.00  0.00    +0.000 C 
ENDROOT
BRANCH   1  13
ATOM      8  S   UNL     1      -8.626  51.606  52.719  0.00  0.00    +0.000 S 
ATOM      9  O   UNL     1      -7.707  50.874  51.868  0.00  0.00    +0.000 OA
ATOM     10  O   UNL     1      -9.294  50.935  53.819  0.00  0.00    +0.000 OA
ATOM     11  N   UNL     1      -9.764  52.270  51.783  0.00  0.00    +0.000 N 
ATOM     12  C   UNL     1      -7.685  52.904  53.445  0.00  0.00    +0.000 A 
ATOM     13  C   UNL     1      -9.708  53.533  51.474  0.00  0.00    +0.000 C 
ATOM     14  C   UNL     1      -7.867  54.185  52.948  0.00  0.00    +0.000 A 
ATOM     15  C   UNL     1      -6.795  52.628  54.486  0.00  0.00    +0.000 A 
ATOM     16  N   UNL     1      -8.779  54.436  51.931  0.00  0.00    +0.000 N 
ATOM     17  C   UNL     1      -7.123  55.224  53.514  0.00  0.00    +0.000 A 
ATOM     18  C   UNL     1      -6.064  53.673  55.042  0.00  0.00    +0.000 A 
ATOM     19  C   UNL     1      -6.230  54.973  54.557  0.00  0.00    +0.000 A 
ATOM     20  H   UNL     1     -10.505  51.717  51.446  0.00  0.00    +0.000 HD
ATOM     21  H   UNL     1      -8.758  55.325  51.507  0.00  0.00    +0.000 HD
ENDBRANCH   1  13
BRANCH   7  22
ATOM     22  C   UNL     1     -11.734  55.044  47.246  0.00  0.00    +0.000 C 
ATOM     23  C   UNL     1     -10.257  55.516  47.278  0.00  0.00    +0.000 C 
ATOM     24  C   UNL     1     -11.785  54.027  46.086  0.00  0.00    +0.000 C 
ATOM     25  C   UNL     1     -12.613  56.253  46.880  0.00  0.00    +0.000 C 
ENDBRANCH   7  22
BRANCH   5  26
ATOM     26  C   UNL     1     -13.483  56.376  49.742  0.00  0.00    +0.000 C 
BRANCH  26  27
ATOM     27  C   UNL     1     -14.764  55.966  50.460  0.00  0.00    +0.000 C 
BRANCH  27  28
ATOM     28  C   UNL     1     -15.488  57.152  51.125  0.00  0.00    +0.000 C 
ATOM     29  C   UNL     1     -15.463  57.076  52.655  0.00  0.00    +0.000 C 
ATOM     30  C   UNL     1     -14.846  58.459  50.665  0.00  0.00    +0.000 C 
ENDBRANCH  27  28
ENDBRANCH  26  27
ENDBRANCH   5  26
TORSDOF 5
ENDMDL
MODEL 5
REMARK VINA RESULT:      -7.2      2.791      7.821
REMARK  Name = 
REMARK  10 active torsions:
REMARK  status: ('A' for Active; 'I' for Inactive)
REMARK    1  A    between atoms: C_6  and  C_10
REMARK    2  A    between atoms: N_17  and  C_20
REMARK    3  A    between atoms: C_19  and  C_21
REMARK    4  A    between atoms: C_20  and  C_22
REMARK    5  A    between atoms: C_21  and  C_23
REMARK    6  A    between atoms: C_21  and  C_24
REMARK    7  A    between atoms: C_21  and  C_25
REMARK    8  A    between atoms: C_22  and  C_26
REMARK    9  A    between atoms: C_26  and  C_27
REMARK   10  A    between atoms: C_26  and  C_28
REMARK                            x       y       z     vdW  Elec       q    Type
REMARK                         _______ _______ _______ _____ _____    ______ ____
ROOT
ATOM      1  C   UNL     1     -12.261  55.322  48.618  0.00  0.00    +0.000 C 
ATOM      2  C   UNL     1     -11.864  55.319  47.206  0.00  0.00    +0.000 C 
ATOM      3  C   UNL     1     -11.887  54.135  49.111  0.00  0.00    +0.000 C 
ATOM      4  O   UNL     1     -12.113  56.235  46.440  0.00  0.00    +0.000 OA
ATOM      5  N   UNL     1     -11.214  54.132  46.944  0.00  0.00    +0.000 N 
ATOM      6  O   UNL     1     -12.132  53.698  50.389  0.00  0.00    +0.000 OA
ATOM      7  C   UNL     1     -11.127  53.255  48.125  0.00  0.00    +0.000 C 
ENDROOT
BRANCH   1  13
ATOM      8  S   UNL     1     -13.517  58.928  49.368  0.00  0.00    +0.000 S 
ATOM      9  O   UNL     1     -14.612  59.250  48.473  0.00  0.00    +0.000 OA
ATOM     10  O   UNL     1     -12.519  59.930  49.692  0.00  0.00    +0.000 OA
ATOM     11  N   UNL     1     -12.744  57.636  48.779  0.00  0.00    +0.000 N 
ATOM     12  C   UNL     1     -14.259  58.474  50.897  0.00  0.00    +0.000 A 
ATOM     13  C   UNL     1     -12.952  56.456  49.288  0.00  0.00    +0.000 C 
ATOM     14  C   UNL     1     -14.297  57.126  51.219  0.00  0.00    +0.000 A 
ATOM     15  C   UNL     1     -14.784  59.455  51.743  0.00  0.00    +0.000 A 
ATOM     16  N   UNL     1     -13.744  56.172  50.374  0.00  0.00    +0.000 N 
ATOM     17  C   UNL     1     -14.887  56.753  52.430  0.00  0.00    +0.000 A 
ATOM     18  C   UNL     1     -15.365  59.069  52.946  0.00  0.00    +0.000 A 
ATOM     19  C   UNL     1     -15.414  57.716  53.291  0.00  0.00    +0.000 A 
ATOM     20  H   UNL     1     -12.112  57.741  48.032  0.00  0.00    +0.000 HD
ATOM     21  H   UNL     1     -13.934  55.225  50.567  0.00  0.00    +0.000 HD
ENDBRANCH   1  13
BRANCH   7  22
ATOM     22  C   UNL     1      -9.677  52.842  48.596  0.00  0.00    +0.000 C 
ATOM     23  C   UNL     1      -8.701  54.046  48.549  0.00  0.00    +0.000 C 
ATOM     24  C   UNL     1      -9.646  52.381  50.068  0.00  0.00    +0.000 C 
ATOM     25  C   UNL     1      -9.094  51.721  47.716  0.00  0.00    +0.000 C 
ENDBRANCH   7  22
BRANCH   5  26
ATOM     26  C   UNL     1     -10.731  53.843  45.604  0.00  0.00    +0.000 C 
BRANCH  26  27
ATOM     27  C   UNL     1     -11.590  52.844  44.837  0.00  0.00    +0.000 C 
BRANCH  27  28
ATOM     28  C   UNL     1     -10.903  51.479  44.646  0.00  0.00    +0.000 C 
ATOM     29  C   UNL     1     -11.828  50.301  44.965  0.00  0.00    +0.000 C 
ATOM     30  C   UNL     1     -10.401  51.362  43.208  0.00  0.00    +0.000 C 
ENDBRANCH  27  28
ENDBRANCH  26  27
ENDBRANCH   5  26
TORSDOF 5
ENDMDL
MODEL 6
REMARK VINA RESULT:      -7.1      2.893      7.802
REMARK  Name = 
REMARK  10 active torsions:
REMARK  status: ('A' for Active; 'I' for Inactive)
REMARK    1  A    between atoms: C_6  and  C_10
REMARK    2  A    between atoms: N_17  and  C_20
REMARK    3  A    between atoms: C_19  and  C_21
REMARK    4  A    between atoms: C_20  and  C_22
REMARK    5  A    between atoms: C_21  and  C_23
REMARK    6  A    between atoms: C_21  and  C_24
REMARK    7  A    between atoms: C_21  and  C_25
REMARK    8  A    between atoms: C_22  and  C_26
REMARK    9  A    between atoms: C_26  and  C_27
REMARK   10  A    between atoms: C_26  and  C_28
REMARK                            x       y       z     vdW  Elec       q    Type
REMARK                         _______ _______ _______ _____ _____    ______ ____
ROOT
ATOM      1  C   UNL     1     -10.652  55.741  48.218  0.00  0.00    +0.000 C 
ATOM      2  C   UNL     1      -9.246  55.493  48.552  0.00  0.00    +0.000 C 
ATOM      3  C   UNL     1     -10.793  55.399  46.931  0.00  0.00    +0.000 C 
ATOM      4  O   UNL     1      -8.762  55.757  49.640  0.00  0.00    +0.000 OA
ATOM      5  N   UNL     1      -8.629  54.955  47.444  0.00  0.00    +0.000 N 
ATOM      6  O   UNL     1     -11.946  55.540  46.198  0.00  0.00    +0.000 OA
ATOM      7  C   UNL     1      -9.541  54.806  46.296  0.00  0.00    +0.000 C 
ENDROOT
BRANCH   1  13
ATOM      8  S   UNL     1     -13.091  55.965  51.241  0.00  0.00    +0.000 S 
ATOM      9  O   UNL     1     -12.330  56.193  52.455  0.00  0.00    +0.000 OA
ATOM     10  O   UNL     1     -14.229  55.065  51.252  0.00  0.00    +0.000 OA
ATOM     11  N   UNL     1     -12.073  55.458  50.093  0.00  0.00    +0.000 N 
ATOM     12  C   UNL     1     -13.722  57.536  50.763  0.00  0.00    +0.000 A 
ATOM     13  C   UNL     1     -11.655  56.281  49.175  0.00  0.00    +0.000 C 
ATOM     14  C   UNL     1     -13.111  58.177  49.697  0.00  0.00    +0.000 A 
ATOM     15  C   UNL     1     -14.805  58.096  51.446  0.00  0.00    +0.000 A 
ATOM     16  N   UNL     1     -12.053  57.587  49.017  0.00  0.00    +0.000 N 
ATOM     17  C   UNL     1     -13.601  59.428  49.309  0.00  0.00    +0.000 A 
ATOM     18  C   UNL     1     -15.284  59.339  51.046  0.00  0.00    +0.000 A 
ATOM     19  C   UNL     1     -14.683  60.004  49.975  0.00  0.00    +0.000 A 
ATOM     20  H   UNL     1     -11.767  54.523  50.086  0.00  0.00    +0.000 HD
ATOM     21  H   UNL     1     -11.553  58.143  48.376  0.00  0.00    +0.000 HD
ENDBRANCH   1  13
BRANCH   7  22
ATOM     22  C   UNL     1      -9.724  53.347  45.721  0.00  0.00    +0.000 C 
ATOM     23  C   UNL     1     -10.849  53.294  44.654  0.00  0.00    +0.000 C 
ATOM     24  C   UNL     1      -8.468  52.846  44.977  0.00  0.00    +0.000 C 
ATOM     25  C   UNL     1     -10.074  52.339  46.831  0.00  0.00    +0.000 C 
ENDBRANCH   7  22
BRANCH   5  26
ATOM     26  C   UNL     1      -7.211  54.633  47.480  0.00  0.00    +0.000 C 
BRANCH  26  27
ATOM     27  C   UNL     1      -6.877  53.398  48.309  0.00  0.00    +0.000 C 
BRANCH  27  28
ATOM     28  C   UNL     1      -5.700  53.622  49.277  0.00  0.00    +0.000 C 
ATOM     29  C   UNL     1      -5.310  55.098  49.400  0.00  0.00    +0.000 C 
ATOM     30  C   UNL     1      -6.064  53.071  50.654  0.00  0.00    +0.000 C 
ENDBRANCH  27  28
ENDBRANCH  26  27
ENDBRANCH   5  26
TORSDOF 5
ENDMDL
MODEL 7
REMARK VINA RESULT:      -6.9      2.965      7.847
REMARK  Name = 
REMARK  10 active torsions:
REMARK  status: ('A' for Active; 'I' for Inactive)
REMARK    1  A    between atoms: C_6  and  C_10
REMARK    2  A    between atoms: N_17  and  C_20
REMARK    3  A    between atoms: C_19  and  C_21
REMARK    4  A    between atoms: C_20  and  C_22
REMARK    5  A    between atoms: C_21  and  C_23
REMARK    6  A    between atoms: C_21  and  C_24
REMARK    7  A    between atoms: C_21  and  C_25
REMARK    8  A    between atoms: C_22  and  C_26
REMARK    9  A    between atoms: C_26  and  C_27
REMARK   10  A    between atoms: C_26  and  C_28
REMARK                            x       y       z     vdW  Elec       q    Type
REMARK                         _______ _______ _______ _____ _____    ______ ____
ROOT
ATOM      1  C   UNL     1     -11.514  55.890  48.817  0.00  0.00    +0.000 C 
ATOM      2  C   UNL     1     -10.527  55.105  49.564  0.00  0.00    +0.000 C 
ATOM      3  C   UNL     1     -11.372  55.539  47.532  0.00  0.00    +0.000 C 
ATOM      4  O   UNL     1     -10.346  55.227  50.764  0.00  0.00    +0.000 OA
ATOM      5  N   UNL     1      -9.877  54.274  48.677  0.00  0.00    +0.000 N 
ATOM      6  O   UNL     1     -12.064  56.090  46.482  0.00  0.00    +0.000 OA
ATOM      7  C   UNL     1     -10.354  54.431  47.292  0.00  0.00    +0.000 C 
ENDROOT
BRANCH   1  13
ATOM      8  S   UNL     1     -13.518  59.169  49.426  0.00  0.00    +0.000 S 
ATOM      9  O   UNL     1     -14.636  59.227  48.504  0.00  0.00    +0.000 OA
ATOM     10  O   UNL     1     -12.761  60.369  49.732  0.00  0.00    +0.000 OA
ATOM     11  N   UNL     1     -12.477  58.053  48.893  0.00  0.00    +0.000 N 
ATOM     12  C   UNL     1     -14.182  58.614  50.959  0.00  0.00    +0.000 A 
ATOM     13  C   UNL     1     -12.443  56.872  49.438  0.00  0.00    +0.000 C 
ATOM     14  C   UNL     1     -13.942  57.299  51.324  0.00  0.00    +0.000 A 
ATOM     15  C   UNL     1     -14.919  59.487  51.762  0.00  0.00    +0.000 A 
ATOM     16  N   UNL     1     -13.182  56.458  50.520  0.00  0.00    +0.000 N 
ATOM     17  C   UNL     1     -14.467  56.845  52.538  0.00  0.00    +0.000 A 
ATOM     18  C   UNL     1     -15.433  59.022  52.968  0.00  0.00    +0.000 A 
ATOM     19  C   UNL     1     -15.204  57.700  53.358  0.00  0.00    +0.000 A 
ATOM     20  H   UNL     1     -11.865  58.268  48.153  0.00  0.00    +0.000 HD
ATOM     21  H   UNL     1     -13.173  55.499  50.742  0.00  0.00    +0.000 HD
ENDBRANCH   1  13
BRANCH   7  22
ATOM     22  C   UNL     1     -10.941  53.140  46.594  0.00  0.00    +0.000 C 
ATOM     23  C   UNL     1      -9.900  51.991  46.561  0.00  0.00    +0.000 C 
ATOM     24  C   UNL     1     -12.140  52.549  47.365  0.00  0.00    +0.000 C 
ATOM     25  C   UNL     1     -11.379  53.428  45.146  0.00  0.00    +0.000 C 
ENDBRANCH   7  22
BRANCH   5  26
ATOM     26  C   UNL     1      -8.817  53.394  49.140  0.00  0.00    +0.000 C 
BRANCH  26  27
ATOM     27  C   UNL     1      -9.173  52.600  50.393  0.00  0.00    +0.000 C 
BRANCH  27  28
ATOM     28  C   UNL     1     -10.150  51.442  50.115  0.00  0.00    +0.000 C 
ATOM     29  C   UNL     1      -9.533  50.068  50.395  0.00  0.00    +0.000 C 
ATOM     30  C   UNL     1     -11.405  51.623  50.966  0.00  0.00    +0.000 C 
ENDBRANCH  27  28
ENDBRANCH  26  27
ENDBRANCH   5  26
TORSDOF 5
ENDMDL
MODEL 8
REMARK VINA RESULT:      -6.8      1.366      1.951
REMARK  Name = 
REMARK  10 active torsions:
REMARK  status: ('A' for Active; 'I' for Inactive)
REMARK    1  A    between atoms: C_6  and  C_10
REMARK    2  A    between atoms: N_17  and  C_20
REMARK    3  A    between atoms: C_19  and  C_21
REMARK    4  A    between atoms: C_20  and  C_22
REMARK    5  A    between atoms: C_21  and  C_23
REMARK    6  A    between atoms: C_21  and  C_24
REMARK    7  A    between atoms: C_21  and  C_25
REMARK    8  A    between atoms: C_22  and  C_26
REMARK    9  A    between atoms: C_26  and  C_27
REMARK   10  A    between atoms: C_26  and  C_28
REMARK                            x       y       z     vdW  Elec       q    Type
REMARK                         _______ _______ _______ _____ _____    ______ ____
ROOT
ATOM      1  C   UNL     1     -10.317  54.705  48.394  0.00  0.00    +0.000 C 
ATOM      2  C   UNL     1     -11.447  55.594  48.104  0.00  0.00    +0.000 C 
ATOM      3  C   UNL     1      -9.986  54.930  49.671  0.00  0.00    +0.000 C 
ATOM      4  O   UNL     1     -11.959  55.686  47.001  0.00  0.00    +0.000 OA
ATOM      5  N   UNL     1     -11.768  56.272  49.261  0.00  0.00    +0.000 N 
ATOM      6  O   UNL     1      -8.929  54.349  50.327  0.00  0.00    +0.000 OA
ATOM      7  C   UNL     1     -10.900  55.912  50.395  0.00  0.00    +0.000 C 
ENDROOT
BRANCH   1  13
ATOM      8  S   UNL     1      -7.891  52.117  46.796  0.00  0.00    +0.000 S 
ATOM      9  O   UNL     1      -8.177  50.798  47.329  0.00  0.00    +0.000 OA
ATOM     10  O   UNL     1      -6.519  52.533  46.575  0.00  0.00    +0.000 OA
ATOM     11  N   UNL     1      -8.591  53.214  47.754  0.00  0.00    +0.000 N 
ATOM     12  C   UNL     1      -8.675  52.183  45.221  0.00  0.00    +0.000 A 
ATOM     13  C   UNL     1      -9.710  53.776  47.403  0.00  0.00    +0.000 C 
ATOM     14  C   UNL     1      -9.848  52.913  45.118  0.00  0.00    +0.000 A 
ATOM     15  C   UNL     1      -8.113  51.518  44.128  0.00  0.00    +0.000 A 
ATOM     16  N   UNL     1     -10.372  53.588  46.213  0.00  0.00    +0.000 N 
ATOM     17  C   UNL     1     -10.482  52.970  43.873  0.00  0.00    +0.000 A 
ATOM     18  C   UNL     1      -8.753  51.587  42.895  0.00  0.00    +0.000 A 
ATOM     19  C   UNL     1      -9.937  52.316  42.767  0.00  0.00    +0.000 A 
ATOM     20  H   UNL     1      -8.168  53.459  48.608  0.00  0.00    +0.000 HD
ATOM     21  H   UNL     1     -11.281  53.957  46.131  0.00  0.00    +0.000 HD
ENDBRANCH   1  13
BRANCH   7  22
ATOM     22  C   UNL     1     -11.614  55.323  51.675  0.00  0.00    +0.000 C 
ATOM     23  C   UNL     1     -12.461  54.070  51.326  0.00  0.00    +0.000 C 
ATOM     24  C   UNL     1     -10.608  54.822  52.732  0.00  0.00    +0.000 C 
ATOM     25  C   UNL     1     -12.545  56.358  52.332  0.00  0.00    +0.000 C 
ENDBRANCH   7  22
BRANCH   5  26
ATOM     26  C   UNL     1     -12.843  57.251  49.260  0.00  0.00    +0.000 C 
BRANCH  26  27
ATOM     27  C   UNL     1     -14.239  56.639  49.261  0.00  0.00    +0.000 C 
BRANCH  27  28
ATOM     28  C   UNL     1     -15.265  57.480  50.045  0.00  0.00    +0.000 C 
ATOM     29  C   UNL     1     -15.902  56.705  51.202  0.00  0.00    +0.000 C 
ATOM     30  C   UNL     1     -14.585  58.737  50.582  0.00  0.00    +0.000 C 
ENDBRANCH  27  28
ENDBRANCH  26  27
ENDBRANCH   5  26
TORSDOF 5
ENDMDL
MODEL 9
REMARK VINA RESULT:      -6.8      2.977      7.831
REMARK  Name = 
REMARK  10 active torsions:
REMARK  status: ('A' for Active; 'I' for Inactive)
REMARK    1  A    between atoms: C_6  and  C_10
REMARK    2  A    between atoms: N_17  and  C_20
REMARK    3  A    between atoms: C_19  and  C_21
REMARK    4  A    between atoms: C_20  and  C_22
REMARK    5  A    between atoms: C_21  and  C_23
REMARK    6  A    between atoms: C_21  and  C_24
REMARK    7  A    between atoms: C_21  and  C_25
REMARK    8  A    between atoms: C_22  and  C_26
REMARK    9  A    between atoms: C_26  and  C_27
REMARK   10  A    between atoms: C_26  and  C_28
REMARK                            x       y       z     vdW  Elec       q    Type
REMARK                         _______ _______ _______ _____ _____    ______ ____
ROOT
ATOM      1  C   UNL     1     -11.161  55.768  49.384  0.00  0.00    +0.000 C 
ATOM      2  C   UNL     1     -10.286  55.047  50.314  0.00  0.00    +0.000 C 
ATOM      3  C   UNL     1     -10.819  55.355  48.157  0.00  0.00    +0.000 C 
ATOM      4  O   UNL     1     -10.293  55.235  51.519  0.00  0.00    +0.000 OA
ATOM      5  N   UNL     1      -9.496  54.187  49.582  0.00  0.00    +0.000 N 
ATOM      6  O   UNL     1     -11.351  55.834  46.985  0.00  0.00    +0.000 OA
ATOM      7  C   UNL     1      -9.759  54.260  48.134  0.00  0.00    +0.000 C 
ENDROOT
BRANCH   1  13
ATOM      8  S   UNL     1     -13.397  58.952  49.401  0.00  0.00    +0.000 S 
ATOM      9  O   UNL     1     -14.449  58.805  48.413  0.00  0.00    +0.000 OA
ATOM     10  O   UNL     1     -12.738  60.232  49.581  0.00  0.00    +0.000 OA
ATOM     11  N   UNL     1     -12.256  57.849  49.095  0.00  0.00    +0.000 N 
ATOM     12  C   UNL     1     -14.133  58.566  50.953  0.00  0.00    +0.000 A 
ATOM     13  C   UNL     1     -12.189  56.758  49.802  0.00  0.00    +0.000 C 
ATOM     14  C   UNL     1     -13.840  57.333  51.514  0.00  0.00    +0.000 A 
ATOM     15  C   UNL     1     -14.977  59.487  51.579  0.00  0.00    +0.000 A 
ATOM     16  N   UNL     1     -12.976  56.446  50.885  0.00  0.00    +0.000 N 
ATOM     17  C   UNL     1     -14.421  57.013  52.745  0.00  0.00    +0.000 A 
ATOM     18  C   UNL     1     -15.545  59.157  52.805  0.00  0.00    +0.000 A 
ATOM     19  C   UNL     1     -15.264  57.919  53.390  0.00  0.00    +0.000 A 
ATOM     20  H   UNL     1     -11.608  58.003  48.371  0.00  0.00    +0.000 HD
ATOM     21  H   UNL     1     -12.924  55.529  51.239  0.00  0.00    +0.000 HD
ENDBRANCH   1  13
BRANCH   7  22
ATOM     22  C   UNL     1     -10.212  52.922  47.428  0.00  0.00    +0.000 C 
ATOM     23  C   UNL     1     -10.597  53.165  45.946  0.00  0.00    +0.000 C 
ATOM     24  C   UNL     1      -9.076  51.879  47.361  0.00  0.00    +0.000 C 
ATOM     25  C   UNL     1     -11.423  52.288  48.137  0.00  0.00    +0.000 C 
ENDBRANCH   7  22
BRANCH   5  26
ATOM     26  C   UNL     1      -8.505  53.358  50.249  0.00  0.00    +0.000 C 
BRANCH  26  27
ATOM     27  C   UNL     1      -9.089  52.136  50.950  0.00  0.00    +0.000 C 
BRANCH  27  28
ATOM     28  C   UNL     1      -8.739  52.076  52.448  0.00  0.00    +0.000 C 
ATOM     29  C   UNL     1      -7.734  53.155  52.864  0.00  0.00    +0.000 C 
ATOM     30  C   UNL     1     -10.017  52.221  53.272  0.00  0.00    +0.000 C 
ENDBRANCH  27  28
ENDBRANCH  26  27
ENDBRANCH   5  26
TORSDOF 5
ENDMDL
