MODEL 1
REMARK VINA RESULT:      -8.8      0.000      0.000
REMARK  Name = 
REMARK  7 active torsions:
REMARK  status: ('A' for Active; 'I' for Inactive)
REMARK    1  A    between atoms: C_6  and  C_10
REMARK    2  A    between atoms: N_17  and  C_20
REMARK    3  A    between atoms: C_19  and  C_21
REMARK    4  A    between atoms: C_20  and  C_22
REMARK    5  A    between atoms: C_21  and  C_23
REMARK    6  A    between atoms: C_21  and  C_24
REMARK    7  A    between atoms: C_23  and  C_27
REMARK                            x       y       z     vdW  Elec       q    Type
REMARK                         _______ _______ _______ _____ _____    ______ ____
ROOT
ATOM      1  C   UNL     1     -10.921  55.272  47.905  0.00  0.00    +0.000 C 
ATOM      2  C   UNL     1     -12.223  55.921  47.711  0.00  0.00    +0.000 C 
ATOM      3  C   UNL     1     -10.615  55.470  49.195  0.00  0.00    +0.000 C 
ATOM      4  O   UNL     1     -12.721  56.101  46.610  0.00  0.00    +0.000 OA
ATOM      5  N   UNL     1     -12.716  56.290  48.948  0.00  0.00    +0.000 N 
ATOM      6  O   UNL     1      -9.427  55.110  49.786  0.00  0.00    +0.000 OA
ATOM      7  C   UNL     1     -11.701  56.177  50.001  0.00  0.00    +0.000 C 
ENDROOT
BRANCH   1  13
ATOM      8  S   UNL     1      -7.989  54.346  45.509  0.00  0.00    +0.000 S 
ATOM      9  O   UNL     1      -7.057  53.520  46.248  0.00  0.00    +0.000 OA
ATOM     10  O   UNL     1      -7.502  55.352  44.583  0.00  0.00    +0.000 OA
ATOM     11  N   UNL     1      -8.960  55.090  46.578  0.00  0.00    +0.000 N 
ATOM     12  C   UNL     1      -8.967  53.238  44.554  0.00  0.00    +0.000 A 
ATOM     13  C   UNL     1     -10.149  54.614  46.815  0.00  0.00    +0.000 C 
ATOM     14  C   UNL     1     -10.246  52.962  45.009  0.00  0.00    +0.000 A 
ATOM     15  C   UNL     1      -8.452  52.667  43.388  0.00  0.00    +0.000 A 
ATOM     16  N   UNL     1     -10.743  53.557  46.164  0.00  0.00    +0.000 N 
ATOM     17  C   UNL     1     -11.037  52.084  44.262  0.00  0.00    +0.000 A 
ATOM     18  C   UNL     1      -9.255  51.795  42.649  0.00  0.00    +0.000 A 
ATOM     19  C   UNL     1     -10.547  51.506  43.088  0.00  0.00    +0.000 A 
ATOM     20  H   UNL     1      -8.651  55.899  47.045  0.00  0.00    +0.000 HD
ATOM     21  H   UNL     1     -11.577  53.198  46.542  0.00  0.00    +0.000 HD
ENDBRANCH   1  13
BRANCH   7  22
ATOM     22  C   UNL     1     -12.145  55.408  51.290  0.00  0.00    +0.000 C 
ATOM     23  C   UNL     1     -12.458  53.927  51.002  0.00  0.00    +0.000 C 
BRANCH  22  24
ATOM     24  C   UNL     1     -11.147  55.447  52.474  0.00  0.00    +0.000 C 
ATOM     25  C   UNL     1     -10.570  54.100  52.893  0.00  0.00    +0.000 C 
ENDBRANCH  22  24
ENDBRANCH   7  22
BRANCH   5  26
ATOM     26  C   UNL     1     -13.888  57.148  49.013  0.00  0.00    +0.000 C 
BRANCH  26  27
ATOM     27  C   UNL     1     -14.389  57.437  50.417  0.00  0.00    +0.000 A 
ATOM     28  C   UNL     1     -15.221  56.567  51.140  0.00  0.00    +0.000 A 
ATOM     29  C   UNL     1     -13.988  58.634  51.034  0.00  0.00    +0.000 A 
ATOM     30  C   UNL     1     -15.613  56.870  52.448  0.00  0.00    +0.000 A 
ATOM     31  C   UNL     1     -14.377  58.934  52.342  0.00  0.00    +0.000 A 
ATOM     32  C   UNL     1     -15.182  58.048  53.052  0.00  0.00    +0.000 A 
ENDBRANCH  26  27
ENDBRANCH   5  26
TORSDOF 5
ENDMDL
MODEL 2
REMARK VINA RESULT:      -8.7      2.714      8.162
REMARK  Name = 
REMARK  7 active torsions:
REMARK  status: ('A' for Active; 'I' for Inactive)
REMARK    1  A    between atoms: C_6  and  C_10
REMARK    2  A    between atoms: N_17  and  C_20
REMARK    3  A    between atoms: C_19  and  C_21
REMARK    4  A    between atoms: C_20  and  C_22
REMARK    5  A    between atoms: C_21  and  C_23
REMARK    6  A    between atoms: C_21  and  C_24
REMARK    7  A    between atoms: C_23  and  C_27
REMARK                            x       y       z     vdW  Elec       q    Type
REMARK                         _______ _______ _______ _____ _____    ______ ____
ROOT
ATOM      1  C   UNL     1     -11.100  55.798  49.292  0.00  0.00    +0.000 C 
ATOM      2  C   UNL     1     -11.416  54.472  48.749  0.00  0.00    +0.000 C 
ATOM      3  C   UNL     1      -9.762  55.852  49.336  0.00  0.00    +0.000 C 
ATOM      4  O   UNL     1     -12.545  54.005  48.744  0.00  0.00    +0.000 OA
ATOM      5  N   UNL     1     -10.244  53.890  48.305  0.00  0.00    +0.000 N 
ATOM      6  O   UNL     1      -9.034  56.887  49.875  0.00  0.00    +0.000 OA
ATOM      7  C   UNL     1      -9.059  54.629  48.753  0.00  0.00    +0.000 C 
ENDROOT
BRANCH   1  13
ATOM      8  S   UNL     1     -13.368  58.966  49.388  0.00  0.00    +0.000 S 
ATOM      9  O   UNL     1     -14.404  58.801  48.390  0.00  0.00    +0.000 OA
ATOM     10  O   UNL     1     -12.745  60.263  49.589  0.00  0.00    +0.000 OA
ATOM     11  N   UNL     1     -12.186  57.898  49.071  0.00  0.00    +0.000 N 
ATOM     12  C   UNL     1     -14.103  58.535  50.927  0.00  0.00    +0.000 A 
ATOM     13  C   UNL     1     -12.127  56.781  49.736  0.00  0.00    +0.000 C 
ATOM     14  C   UNL     1     -13.800  57.289  51.451  0.00  0.00    +0.000 A 
ATOM     15  C   UNL     1     -14.957  59.429  51.577  0.00  0.00    +0.000 A 
ATOM     16  N   UNL     1     -12.932  56.424  50.794  0.00  0.00    +0.000 N 
ATOM     17  C   UNL     1     -14.376  56.931  52.674  0.00  0.00    +0.000 A 
ATOM     18  C   UNL     1     -15.522  59.059  52.799  0.00  0.00    +0.000 A 
ATOM     19  C   UNL     1     -15.228  57.810  53.346  0.00  0.00    +0.000 A 
ATOM     20  H   UNL     1     -11.516  58.094  48.377  0.00  0.00    +0.000 HD
ATOM     21  H   UNL     1     -12.889  55.492  51.107  0.00  0.00    +0.000 HD
ENDBRANCH   1  13
BRANCH   7  22
ATOM     22  C   UNL     1      -8.008  54.964  47.642  0.00  0.00    +0.000 C 
ATOM     23  C   UNL     1      -6.979  53.833  47.458  0.00  0.00    +0.000 C 
BRANCH  22  24
ATOM     24  C   UNL     1      -8.589  55.292  46.243  0.00  0.00    +0.000 C 
ATOM     25  C   UNL     1      -7.786  54.769  45.058  0.00  0.00    +0.000 C 
ENDBRANCH  22  24
ENDBRANCH   7  22
BRANCH   5  26
ATOM     26  C   UNL     1     -10.252  52.487  47.925  0.00  0.00    +0.000 C 
BRANCH  26  27
ATOM     27  C   UNL     1     -10.220  52.231  46.429  0.00  0.00    +0.000 A 
ATOM     28  C   UNL     1     -11.110  52.825  45.519  0.00  0.00    +0.000 A 
ATOM     29  C   UNL     1      -9.237  51.364  45.922  0.00  0.00    +0.000 A 
ATOM     30  C   UNL     1     -11.001  52.584  44.145  0.00  0.00    +0.000 A 
ATOM     31  C   UNL     1      -9.126  51.127  44.550  0.00  0.00    +0.000 A 
ATOM     32  C   UNL     1     -10.003  51.743  43.661  0.00  0.00    +0.000 A 
ENDBRANCH  26  27
ENDBRANCH   5  26
TORSDOF 5
ENDMDL
MODEL 3
REMARK VINA RESULT:      -8.6      3.437      5.883
REMARK  Name = 
REMARK  7 active torsions:
REMARK  status: ('A' for Active; 'I' for Inactive)
REMARK    1  A    between atoms: C_6  and  C_10
REMARK    2  A    between atoms: N_17  and  C_20
REMARK    3  A    between atoms: C_19  and  C_21
REMARK    4  A    between atoms: C_20  and  C_22
REMARK    5  A    between atoms: C_21  and  C_23
REMARK    6  A    between atoms: C_21  and  C_24
REMARK    7  A    between atoms: C_23  and  C_27
REMARK                            x       y       z     vdW  Elec       q    Type
REMARK                         _______ _______ _______ _____ _____    ______ ____
ROOT
ATOM      1  C   UNL     1      -9.522  54.949  50.121  0.00  0.00    +0.000 C 
ATOM      2  C   UNL     1     -10.681  54.698  50.985  0.00  0.00    +0.000 C 
ATOM      3  C   UNL     1     -10.034  55.266  48.925  0.00  0.00    +0.000 C 
ATOM      4  O   UNL     1     -10.588  54.202  52.098  0.00  0.00    +0.000 OA
ATOM      5  N   UNL     1     -11.822  55.082  50.309  0.00  0.00    +0.000 N 
ATOM      6  O   UNL     1      -9.296  55.483  47.785  0.00  0.00    +0.000 OA
ATOM      7  C   UNL     1     -11.558  55.348  48.890  0.00  0.00    +0.000 C 
ENDROOT
BRANCH   1  13
ATOM      8  S   UNL     1      -5.696  54.208  50.026  0.00  0.00    +0.000 S 
ATOM      9  O   UNL     1      -5.045  55.323  49.371  0.00  0.00    +0.000 OA
ATOM     10  O   UNL     1      -5.255  52.848  49.769  0.00  0.00    +0.000 OA
ATOM     11  N   UNL     1      -7.283  54.282  49.689  0.00  0.00    +0.000 N 
ATOM     12  C   UNL     1      -5.485  54.470  51.753  0.00  0.00    +0.000 A 
ATOM     13  C   UNL     1      -8.107  54.791  50.560  0.00  0.00    +0.000 C 
ATOM     14  C   UNL     1      -6.572  54.957  52.461  0.00  0.00    +0.000 A 
ATOM     15  C   UNL     1      -4.260  54.194  52.365  0.00  0.00    +0.000 A 
ATOM     16  N   UNL     1      -7.787  55.206  51.832  0.00  0.00    +0.000 N 
ATOM     17  C   UNL     1      -6.421  55.170  53.835  0.00  0.00    +0.000 A 
ATOM     18  C   UNL     1      -4.125  54.409  53.738  0.00  0.00    +0.000 A 
ATOM     19  C   UNL     1      -5.208  54.895  54.470  0.00  0.00    +0.000 A 
ATOM     20  H   UNL     1      -7.623  53.944  48.830  0.00  0.00    +0.000 HD
ATOM     21  H   UNL     1      -8.465  55.716  52.332  0.00  0.00    +0.000 HD
ENDBRANCH   1  13
BRANCH   7  22
ATOM     22  C   UNL     1     -12.114  56.703  48.339  0.00  0.00    +0.000 C 
ATOM     23  C   UNL     1     -13.542  56.558  47.778  0.00  0.00    +0.000 C 
BRANCH  22  24
ATOM     24  C   UNL     1     -12.130  57.882  49.343  0.00  0.00    +0.000 C 
ATOM     25  C   UNL     1     -13.377  58.758  49.310  0.00  0.00    +0.000 C 
ENDBRANCH  22  24
ENDBRANCH   7  22
BRANCH   5  26
ATOM     26  C   UNL     1     -13.121  54.732  50.859  0.00  0.00    +0.000 C 
BRANCH  26  27
ATOM     27  C   UNL     1     -13.865  55.879  51.519  0.00  0.00    +0.000 A 
ATOM     28  C   UNL     1     -13.303  56.704  52.509  0.00  0.00    +0.000 A 
ATOM     29  C   UNL     1     -15.183  56.143  51.109  0.00  0.00    +0.000 A 
ATOM     30  C   UNL     1     -14.025  57.774  53.047  0.00  0.00    +0.000 A 
ATOM     31  C   UNL     1     -15.901  57.214  51.644  0.00  0.00    +0.000 A 
ATOM     32  C   UNL     1     -15.320  58.035  52.606  0.00  0.00    +0.000 A 
ENDBRANCH  26  27
ENDBRANCH   5  26
TORSDOF 5
ENDMDL
MODEL 4
REMARK VINA RESULT:      -8.4      2.782      8.158
REMARK  Name = 
REMARK  7 active torsions:
REMARK  status: ('A' for Active; 'I' for Inactive)
REMARK    1  A    between atoms: C_6  and  C_10
REMARK    2  A    between atoms: N_17  and  C_20
REMARK    3  A    between atoms: C_19  and  C_21
REMARK    4  A    between atoms: C_20  and  C_22
REMARK    5  A    between atoms: C_21  and  C_23
REMARK    6  A    between atoms: C_21  and  C_24
REMARK    7  A    between atoms: C_23  and  C_27
REMARK                            x       y       z     vdW  Elec       q    Type
REMARK                         _______ _______ _______ _____ _____    ______ ____
ROOT
ATOM      1  C   UNL     1     -11.220  55.046  49.138  0.00  0.00    +0.000 C 
ATOM      2  C   UNL     1     -11.430  53.810  48.376  0.00  0.00    +0.000 C 
ATOM      3  C   UNL     1      -9.894  55.143  49.297  0.00  0.00    +0.000 C 
ATOM      4  O   UNL     1     -12.532  53.308  48.210  0.00  0.00    +0.000 OA
ATOM      5  N   UNL     1     -10.202  53.348  47.945  0.00  0.00    +0.000 N 
ATOM      6  O   UNL     1      -9.259  56.107  50.044  0.00  0.00    +0.000 OA
ATOM      7  C   UNL     1      -9.090  54.052  48.594  0.00  0.00    +0.000 C 
ENDROOT
BRANCH   1  13
ATOM      8  S   UNL     1     -14.546  56.154  50.843  0.00  0.00    +0.000 S 
ATOM      9  O   UNL     1     -14.350  56.098  52.276  0.00  0.00    +0.000 OA
ATOM     10  O   UNL     1     -15.805  55.728  50.258  0.00  0.00    +0.000 OA
ATOM     11  N   UNL     1     -13.361  55.297  50.137  0.00  0.00    +0.000 N 
ATOM     12  C   UNL     1     -14.349  57.844  50.393  0.00  0.00    +0.000 A 
ATOM     13  C   UNL     1     -12.324  55.910  49.642  0.00  0.00    +0.000 C 
ATOM     14  C   UNL     1     -13.149  58.211  49.804  0.00  0.00    +0.000 A 
ATOM     15  C   UNL     1     -15.373  58.763  50.631  0.00  0.00    +0.000 A 
ATOM     16  N   UNL     1     -12.151  57.273  49.560  0.00  0.00    +0.000 N 
ATOM     17  C   UNL     1     -12.976  59.550  49.440  0.00  0.00    +0.000 A 
ATOM     18  C   UNL     1     -15.188  60.096  50.259  0.00  0.00    +0.000 A 
ATOM     19  C   UNL     1     -13.989  60.486  49.663  0.00  0.00    +0.000 A 
ATOM     20  H   UNL     1     -13.425  54.317  50.082  0.00  0.00    +0.000 HD
ATOM     21  H   UNL     1     -11.260  57.607  49.311  0.00  0.00    +0.000 HD
ENDBRANCH   1  13
BRANCH   7  22
ATOM     22  C   UNL     1      -7.979  54.593  47.634  0.00  0.00    +0.000 C 
ATOM     23  C   UNL     1      -6.936  53.513  47.288  0.00  0.00    +0.000 C 
BRANCH  22  24
ATOM     24  C   UNL     1      -8.478  55.198  46.299  0.00  0.00    +0.000 C 
ATOM     25  C   UNL     1      -7.663  54.831  45.064  0.00  0.00    +0.000 C 
ENDBRANCH  22  24
ENDBRANCH   7  22
BRANCH   5  26
ATOM     26  C   UNL     1     -10.114  52.021  47.358  0.00  0.00    +0.000 C 
BRANCH  26  27
ATOM     27  C   UNL     1      -9.900  52.002  45.854  0.00  0.00    +0.000 A 
ATOM     28  C   UNL     1      -8.888  51.260  45.222  0.00  0.00    +0.000 A 
ATOM     29  C   UNL     1     -10.768  52.757  45.048  0.00  0.00    +0.000 A 
ATOM     30  C   UNL     1      -8.770  51.249  43.828  0.00  0.00    +0.000 A 
ATOM     31  C   UNL     1     -10.652  52.742  43.656  0.00  0.00    +0.000 A 
ATOM     32  C   UNL     1      -9.659  51.981  43.046  0.00  0.00    +0.000 A 
ENDBRANCH  26  27
ENDBRANCH   5  26
TORSDOF 5
ENDMDL
MODEL 5
REMARK VINA RESULT:      -8.3      3.733      6.087
REMARK  Name = 
REMARK  7 active torsions:
REMARK  status: ('A' for Active; 'I' for Inactive)
REMARK    1  A    between atoms: C_6  and  C_10
REMARK    2  A    between atoms: N_17  and  C_20
REMARK    3  A    between atoms: C_19  and  C_21
REMARK    4  A    between atoms: C_20  and  C_22
REMARK    5  A    between atoms: C_21  and  C_23
REMARK    6  A    between atoms: C_21  and  C_24
REMARK    7  A    between atoms: C_23  and  C_27
REMARK                            x       y       z     vdW  Elec       q    Type
REMARK                         _______ _______ _______ _____ _____    ______ ____
ROOT
ATOM      1  C   UNL     1     -10.229  54.289  50.700  0.00  0.00    +0.000 C 
ATOM      2  C   UNL     1     -11.398  55.043  51.166  0.00  0.00    +0.000 C 
ATOM      3  C   UNL     1     -10.613  53.713  49.553  0.00  0.00    +0.000 C 
ATOM      4  O   UNL     1     -11.471  55.542  52.279  0.00  0.00    +0.000 OA
ATOM      5  N   UNL     1     -12.348  55.042  50.162  0.00  0.00    +0.000 N 
ATOM      6  O   UNL     1      -9.854  52.829  48.823  0.00  0.00    +0.000 OA
ATOM      7  C   UNL     1     -12.020  54.089  49.096  0.00  0.00    +0.000 C 
ENDROOT
BRANCH   1  13
ATOM      8  S   UNL     1      -7.696  54.166  53.660  0.00  0.00    +0.000 S 
ATOM      9  O   UNL     1      -7.803  52.863  54.281  0.00  0.00    +0.000 OA
ATOM     10  O   UNL     1      -7.520  55.355  54.477  0.00  0.00    +0.000 OA
ATOM     11  N   UNL     1      -9.013  54.395  52.738  0.00  0.00    +0.000 N 
ATOM     12  C   UNL     1      -6.290  54.088  52.606  0.00  0.00    +0.000 A 
ATOM     13  C   UNL     1      -8.948  54.192  51.453  0.00  0.00    +0.000 C 
ATOM     14  C   UNL     1      -6.520  53.942  51.247  0.00  0.00    +0.000 A 
ATOM     15  C   UNL     1      -5.002  54.168  53.139  0.00  0.00    +0.000 A 
ATOM     16  N   UNL     1      -7.813  53.883  50.739  0.00  0.00    +0.000 N 
ATOM     17  C   UNL     1      -5.413  53.878  50.395  0.00  0.00    +0.000 A 
ATOM     18  C   UNL     1      -3.906  54.107  52.275  0.00  0.00    +0.000 A 
ATOM     19  C   UNL     1      -4.115  53.963  50.904  0.00  0.00    +0.000 A 
ATOM     20  H   UNL     1      -9.859  54.686  53.147  0.00  0.00    +0.000 HD
ATOM     21  H   UNL     1      -7.924  53.601  49.802  0.00  0.00    +0.000 HD
ENDBRANCH   1  13
BRANCH   7  22
ATOM     22  C   UNL     1     -12.090  54.653  47.637  0.00  0.00    +0.000 C 
ATOM     23  C   UNL     1     -11.015  55.727  47.380  0.00  0.00    +0.000 C 
BRANCH  22  24
ATOM     24  C   UNL     1     -11.976  53.604  46.504  0.00  0.00    +0.000 C 
ATOM     25  C   UNL     1     -10.843  53.830  45.510  0.00  0.00    +0.000 C 
ENDBRANCH  22  24
ENDBRANCH   7  22
BRANCH   5  26
ATOM     26  C   UNL     1     -13.685  55.532  50.455  0.00  0.00    +0.000 C 
BRANCH  26  27
ATOM     27  C   UNL     1     -13.843  57.040  50.375  0.00  0.00    +0.000 A 
ATOM     28  C   UNL     1     -13.548  57.793  49.225  0.00  0.00    +0.000 A 
ATOM     29  C   UNL     1     -14.323  57.721  51.506  0.00  0.00    +0.000 A 
ATOM     30  C   UNL     1     -13.757  59.175  49.200  0.00  0.00    +0.000 A 
ATOM     31  C   UNL     1     -14.534  59.101  51.478  0.00  0.00    +0.000 A 
ATOM     32  C   UNL     1     -14.260  59.827  50.322  0.00  0.00    +0.000 A 
ENDBRANCH  26  27
ENDBRANCH   5  26
TORSDOF 5
ENDMDL
MODEL 6
REMARK VINA RESULT:      -8.2      3.472      6.117
REMARK  Name = 
REMARK  7 active torsions:
REMARK  status: ('A' for Active; 'I' for Inactive)
REMARK    1  A    between atoms: C_6  and  C_10
REMARK    2  A    between atoms: N_17  and  C_20
REMARK    3  A    between atoms: C_19  and  C_21
REMARK    4  A    between atoms: C_20  and  C_22
REMARK    5  A    between atoms: C_21  and  C_23
REMARK    6  A    between atoms: C_21  and  C_24
REMARK    7  A    between atoms: C_23  and  C_27
REMARK                            x       y       z     vdW  Elec       q    Type
REMARK                         _______ _______ _______ _____ _____    ______ ____
ROOT
ATOM      1  C   UNL     1      -9.426  54.259  50.339  0.00  0.00    +0.000 C 
ATOM      2  C   UNL     1     -10.524  54.806  51.144  0.00  0.00    +0.000 C 
ATOM      3  C   UNL     1     -10.015  53.683  49.283  0.00  0.00    +0.000 C 
ATOM      4  O   UNL     1     -10.370  55.238  52.277  0.00  0.00    +0.000 OA
ATOM      5  N   UNL     1     -11.693  54.707  50.415  0.00  0.00    +0.000 N 
ATOM      6  O   UNL     1      -9.361  52.957  48.316  0.00  0.00    +0.000 OA
ATOM      7  C   UNL     1     -11.530  53.862  49.227  0.00  0.00    +0.000 C 
ENDROOT
BRANCH   1  13
ATOM      8  S   UNL     1      -5.537  54.096  50.135  0.00  0.00    +0.000 S 
ATOM      9  O   UNL     1      -5.079  55.281  49.441  0.00  0.00    +0.000 OA
ATOM     10  O   UNL     1      -4.905  52.812  49.886  0.00  0.00    +0.000 OA
ATOM     11  N   UNL     1      -7.127  53.925  49.848  0.00  0.00    +0.000 N 
ATOM     12  C   UNL     1      -5.318  54.422  51.850  0.00  0.00    +0.000 A 
ATOM     13  C   UNL     1      -7.992  54.323  50.736  0.00  0.00    +0.000 C 
ATOM     14  C   UNL     1      -6.444  54.756  52.584  0.00  0.00    +0.000 A 
ATOM     15  C   UNL     1      -4.048  54.345  52.427  0.00  0.00    +0.000 A 
ATOM     16  N   UNL     1      -7.701  54.808  51.990  0.00  0.00    +0.000 N 
ATOM     17  C   UNL     1      -6.287  55.018  53.948  0.00  0.00    +0.000 A 
ATOM     18  C   UNL     1      -3.907  54.606  53.791  0.00  0.00    +0.000 A 
ATOM     19  C   UNL     1      -5.029  54.940  54.550  0.00  0.00    +0.000 A 
ATOM     20  H   UNL     1      -7.436  53.522  49.005  0.00  0.00    +0.000 HD
ATOM     21  H   UNL     1      -8.433  55.221  52.502  0.00  0.00    +0.000 HD
ENDBRANCH   1  13
BRANCH   7  22
ATOM     22  C   UNL     1     -12.053  54.474  47.884  0.00  0.00    +0.000 C 
ATOM     23  C   UNL     1     -11.249  55.719  47.463  0.00  0.00    +0.000 C 
BRANCH  22  24
ATOM     24  C   UNL     1     -12.081  53.511  46.671  0.00  0.00    +0.000 C 
ATOM     25  C   UNL     1     -11.335  53.991  45.432  0.00  0.00    +0.000 C 
ENDBRANCH  22  24
ENDBRANCH   7  22
BRANCH   5  26
ATOM     26  C   UNL     1     -12.961  54.976  51.074  0.00  0.00    +0.000 C 
BRANCH  26  27
ATOM     27  C   UNL     1     -13.377  56.436  51.082  0.00  0.00    +0.000 A 
ATOM     28  C   UNL     1     -13.331  57.265  49.948  0.00  0.00    +0.000 A 
ATOM     29  C   UNL     1     -13.848  56.988  52.285  0.00  0.00    +0.000 A 
ATOM     30  C   UNL     1     -13.770  58.591  50.009  0.00  0.00    +0.000 A 
ATOM     31  C   UNL     1     -14.291  58.312  52.344  0.00  0.00    +0.000 A 
ATOM     32  C   UNL     1     -14.260  59.110  51.204  0.00  0.00    +0.000 A 
ENDBRANCH  26  27
ENDBRANCH   5  26
TORSDOF 5
ENDMDL
MODEL 7
REMARK VINA RESULT:      -8.2      4.300      7.972
REMARK  Name = 
REMARK  7 active torsions:
REMARK  status: ('A' for Active; 'I' for Inactive)
REMARK    1  A    between atoms: C_6  and  C_10
REMARK    2  A    between atoms: N_17  and  C_20
REMARK    3  A    between atoms: C_19  and  C_21
REMARK    4  A    between atoms: C_20  and  C_22
REMARK    5  A    between atoms: C_21  and  C_23
REMARK    6  A    between atoms: C_21  and  C_24
REMARK    7  A    between atoms: C_23  and  C_27
REMARK                            x       y       z     vdW  Elec       q    Type
REMARK                         _______ _______ _______ _____ _____    ______ ____
ROOT
ATOM      1  C   UNL     1     -11.010  54.757  50.831  0.00  0.00    +0.000 C 
ATOM      2  C   UNL     1      -9.581  55.084  50.759  0.00  0.00    +0.000 C 
ATOM      3  C   UNL     1     -11.063  53.421  50.917  0.00  0.00    +0.000 C 
ATOM      4  O   UNL     1      -9.166  56.200  50.485  0.00  0.00    +0.000 OA
ATOM      5  N   UNL     1      -8.856  53.937  51.015  0.00  0.00    +0.000 N 
ATOM      6  O   UNL     1     -12.220  52.677  50.906  0.00  0.00    +0.000 OA
ATOM      7  C   UNL     1      -9.701  52.737  51.002  0.00  0.00    +0.000 C 
ENDROOT
BRANCH   1  13
ATOM      8  S   UNL     1     -13.572  57.302  49.364  0.00  0.00    +0.000 S 
ATOM      9  O   UNL     1     -14.646  56.547  48.752  0.00  0.00    +0.000 OA
ATOM     10  O   UNL     1     -13.071  58.509  48.729  0.00  0.00    +0.000 OA
ATOM     11  N   UNL     1     -12.311  56.301  49.581  0.00  0.00    +0.000 N 
ATOM     12  C   UNL     1     -14.164  57.794  50.946  0.00  0.00    +0.000 A 
ATOM     13  C   UNL     1     -12.100  55.768  50.750  0.00  0.00    +0.000 C 
ATOM     14  C   UNL     1     -13.708  57.086  52.046  0.00  0.00    +0.000 A 
ATOM     15  C   UNL     1     -15.062  58.857  51.064  0.00  0.00    +0.000 A 
ATOM     16  N   UNL     1     -12.799  56.043  51.903  0.00  0.00    +0.000 N 
ATOM     17  C   UNL     1     -14.169  57.465  53.310  0.00  0.00    +0.000 A 
ATOM     18  C   UNL     1     -15.511  59.226  52.334  0.00  0.00    +0.000 A 
ATOM     19  C   UNL     1     -15.061  58.529  53.455  0.00  0.00    +0.000 A 
ATOM     20  H   UNL     1     -11.708  56.096  48.830  0.00  0.00    +0.000 HD
ATOM     21  H   UNL     1     -12.645  55.460  52.681  0.00  0.00    +0.000 HD
ENDBRANCH   1  13
BRANCH   7  22
ATOM     22  C   UNL     1      -9.540  51.781  52.230  0.00  0.00    +0.000 C 
ATOM     23  C   UNL     1      -8.416  50.748  52.017  0.00  0.00    +0.000 C 
BRANCH  22  24
ATOM     24  C   UNL     1      -9.280  52.472  53.592  0.00  0.00    +0.000 C 
ATOM     25  C   UNL     1      -8.190  51.842  54.452  0.00  0.00    +0.000 C 
ENDBRANCH  22  24
ENDBRANCH   7  22
BRANCH   5  26
ATOM     26  C   UNL     1      -7.421  53.943  50.786  0.00  0.00    +0.000 C 
BRANCH  26  27
ATOM     27  C   UNL     1      -6.578  54.159  52.031  0.00  0.00    +0.000 A 
ATOM     28  C   UNL     1      -6.819  55.179  52.966  0.00  0.00    +0.000 A 
ATOM     29  C   UNL     1      -5.505  53.284  52.269  0.00  0.00    +0.000 A 
ATOM     30  C   UNL     1      -6.033  55.300  54.117  0.00  0.00    +0.000 A 
ATOM     31  C   UNL     1      -4.723  53.403  53.420  0.00  0.00    +0.000 A 
ATOM     32  C   UNL     1      -4.992  54.405  54.348  0.00  0.00    +0.000 A 
ENDBRANCH  26  27
ENDBRANCH   5  26
TORSDOF 5
ENDMDL
MODEL 8
REMARK VINA RESULT:      -8.1      3.178      7.840
REMARK  Name = 
REMARK  7 active torsions:
REMARK  status: ('A' for Active; 'I' for Inactive)
REMARK    1  A    between atoms: C_6  and  C_10
REMARK    2  A    between atoms: N_17  and  C_20
REMARK    3  A    between atoms: C_19  and  C_21
REMARK    4  A    between atoms: C_20  and  C_22
REMARK    5  A    between atoms: C_21  and  C_23
REMARK    6  A    between atoms: C_21  and  C_24
REMARK    7  A    between atoms: C_23  and  C_27
REMARK                            x       y       z     vdW  Elec       q    Type
REMARK                         _______ _______ _______ _____ _____    ______ ____
ROOT
ATOM      1  C   UNL     1     -12.372  54.481  49.934  0.00  0.00    +0.000 C 
ATOM      2  C   UNL     1     -12.048  54.240  48.524  0.00  0.00    +0.000 C 
ATOM      3  C   UNL     1     -11.958  53.386  50.585  0.00  0.00    +0.000 C 
ATOM      4  O   UNL     1     -12.454  54.950  47.615  0.00  0.00    +0.000 OA
ATOM      5  N   UNL     1     -11.270  53.102  48.442  0.00  0.00    +0.000 N 
ATOM      6  O   UNL     1     -12.156  53.143  51.924  0.00  0.00    +0.000 OA
ATOM      7  C   UNL     1     -11.245  52.359  49.707  0.00  0.00    +0.000 C 
ENDROOT
BRANCH   1  13
ATOM      8  S   UNL     1     -14.426  56.868  52.231  0.00  0.00    +0.000 S 
ATOM      9  O   UNL     1     -13.555  57.316  53.298  0.00  0.00    +0.000 OA
ATOM     10  O   UNL     1     -15.816  56.546  52.506  0.00  0.00    +0.000 OA
ATOM     11  N   UNL     1     -13.748  55.565  51.539  0.00  0.00    +0.000 N 
ATOM     12  C   UNL     1     -14.453  58.171  51.049  0.00  0.00    +0.000 A 
ATOM     13  C   UNL     1     -13.078  55.696  50.430  0.00  0.00    +0.000 C 
ATOM     14  C   UNL     1     -13.690  58.008  49.904  0.00  0.00    +0.000 A 
ATOM     15  C   UNL     1     -15.219  59.316  51.277  0.00  0.00    +0.000 A 
ATOM     16  N   UNL     1     -12.951  56.849  49.691  0.00  0.00    +0.000 N 
ATOM     17  C   UNL     1     -13.701  59.034  48.954  0.00  0.00    +0.000 A 
ATOM     18  C   UNL     1     -15.223  60.331  50.318  0.00  0.00    +0.000 A 
ATOM     19  C   UNL     1     -14.464  60.186  49.157  0.00  0.00    +0.000 A 
ATOM     20  H   UNL     1     -13.842  54.678  51.955  0.00  0.00    +0.000 HD
ATOM     21  H   UNL     1     -12.291  56.855  48.961  0.00  0.00    +0.000 HD
ENDBRANCH   1  13
BRANCH   7  22
ATOM     22  C   UNL     1      -9.827  51.949  50.225  0.00  0.00    +0.000 C 
ATOM     23  C   UNL     1      -9.330  50.641  49.580  0.00  0.00    +0.000 C 
BRANCH  22  24
ATOM     24  C   UNL     1      -8.710  53.007  50.041  0.00  0.00    +0.000 C 
ATOM     25  C   UNL     1      -8.447  53.903  51.246  0.00  0.00    +0.000 C 
ENDBRANCH  22  24
ENDBRANCH   7  22
BRANCH   5  26
ATOM     26  C   UNL     1     -11.000  52.523  47.136  0.00  0.00    +0.000 C 
BRANCH  26  27
ATOM     27  C   UNL     1      -9.931  53.239  46.330  0.00  0.00    +0.000 A 
ATOM     28  C   UNL     1      -9.130  54.272  46.845  0.00  0.00    +0.000 A 
ATOM     29  C   UNL     1      -9.719  52.839  45.000  0.00  0.00    +0.000 A 
ATOM     30  C   UNL     1      -8.130  54.863  46.065  0.00  0.00    +0.000 A 
ATOM     31  C   UNL     1      -8.718  53.427  44.223  0.00  0.00    +0.000 A 
ATOM     32  C   UNL     1      -7.918  54.433  44.758  0.00  0.00    +0.000 A 
ENDBRANCH  26  27
ENDBRANCH   5  26
TORSDOF 5
ENDMDL
MODEL 9
REMARK VINA RESULT:      -7.9      3.058      8.169
REMARK  Name = 
REMARK  7 active torsions:
REMARK  status: ('A' for Active; 'I' for Inactive)
REMARK    1  A    between atoms: C_6  and  C_10
REMARK    2  A    between atoms: N_17  and  C_20
REMARK    3  A    between atoms: C_19  and  C_21
REMARK    4  A    between atoms: C_20  and  C_22
REMARK    5  A    between atoms: C_21  and  C_23
REMARK    6  A    between atoms: C_21  and  C_24
REMARK    7  A    between atoms: C_23  and  C_27
REMARK                            x       y       z     vdW  Elec       q    Type
REMARK                         _______ _______ _______ _____ _____    ______ ____
ROOT
ATOM      1  C   UNL     1     -11.412  55.675  49.012  0.00  0.00    +0.000 C 
ATOM      2  C   UNL     1     -10.557  54.823  49.845  0.00  0.00    +0.000 C 
ATOM      3  C   UNL     1     -11.109  55.352  47.748  0.00  0.00    +0.000 C 
ATOM      4  O   UNL     1     -10.431  54.980  51.051  0.00  0.00    +0.000 OA
ATOM      5  N   UNL     1      -9.942  53.891  49.032  0.00  0.00    +0.000 N 
ATOM      6  O   UNL     1     -11.608  55.982  46.632  0.00  0.00    +0.000 OA
ATOM      7  C   UNL     1     -10.107  54.208  47.609  0.00  0.00    +0.000 C 
ENDROOT
BRANCH   1  13
ATOM      8  S   UNL     1     -13.423  58.993  49.382  0.00  0.00    +0.000 S 
ATOM      9  O   UNL     1     -14.506  58.965  48.421  0.00  0.00    +0.000 OA
ATOM     10  O   UNL     1     -12.696  60.226  49.629  0.00  0.00    +0.000 OA
ATOM     11  N   UNL     1     -12.340  57.861  48.955  0.00  0.00    +0.000 N 
ATOM     12  C   UNL     1     -14.130  58.528  50.924  0.00  0.00    +0.000 A 
ATOM     13  C   UNL     1     -12.342  56.704  49.554  0.00  0.00    +0.000 C 
ATOM     14  C   UNL     1     -13.905  57.234  51.364  0.00  0.00    +0.000 A 
ATOM     15  C   UNL     1     -14.888  59.443  51.659  0.00  0.00    +0.000 A 
ATOM     16  N   UNL     1     -13.131  56.347  50.623  0.00  0.00    +0.000 N 
ATOM     17  C   UNL     1     -14.460  56.848  52.588  0.00  0.00    +0.000 A 
ATOM     18  C   UNL     1     -15.432  59.045  52.881  0.00  0.00    +0.000 A 
ATOM     19  C   UNL     1     -15.215  57.747  53.344  0.00  0.00    +0.000 A 
ATOM     20  H   UNL     1     -11.684  58.046  48.246  0.00  0.00    +0.000 HD
ATOM     21  H   UNL     1     -13.149  55.397  50.881  0.00  0.00    +0.000 HD
ENDBRANCH   1  13
BRANCH   7  22
ATOM     22  C   UNL     1     -10.602  53.030  46.705  0.00  0.00    +0.000 C 
ATOM     23  C   UNL     1     -12.049  52.615  47.035  0.00  0.00    +0.000 C 
BRANCH  22  24
ATOM     24  C   UNL     1     -10.529  53.277  45.178  0.00  0.00    +0.000 C 
ATOM     25  C   UNL     1      -9.129  53.264  44.575  0.00  0.00    +0.000 C 
ENDBRANCH  22  24
ENDBRANCH   7  22
BRANCH   5  26
ATOM     26  C   UNL     1      -8.875  53.070  49.580  0.00  0.00    +0.000 C 
BRANCH  26  27
ATOM     27  C   UNL     1      -7.473  53.597  49.330  0.00  0.00    +0.000 A 
ATOM     28  C   UNL     1      -6.850  54.564  50.136  0.00  0.00    +0.000 A 
ATOM     29  C   UNL     1      -6.751  53.080  48.240  0.00  0.00    +0.000 A 
ATOM     30  C   UNL     1      -5.538  54.976  49.879  0.00  0.00    +0.000 A 
ATOM     31  C   UNL     1      -5.440  53.490  47.987  0.00  0.00    +0.000 A 
ATOM     32  C   UNL     1      -4.831  54.431  48.811  0.00  0.00    +0.000 A 
ENDBRANCH  26  27
ENDBRANCH   5  26
TORSDOF 5
ENDMDL
