MODEL 1
REMARK VINA RESULT:      -8.4      0.000      0.000
REMARK  Name = 
REMARK  8 active torsions:
REMARK  status: ('A' for Active; 'I' for Inactive)
REMARK    1  A    between atoms: C_6  and  C_10
REMARK    2  A    between atoms: N_17  and  C_20
REMARK    3  A    between atoms: C_19  and  C_21
REMARK    4  A    between atoms: C_20  and  C_22
REMARK    5  A    between atoms: C_22  and  C_25
REMARK    6  A    between atoms: C_25  and  C_28
REMARK    7  A    between atoms: C_25  and  C_29
REMARK    8  A    between atoms: C_25  and  C_30
REMARK                            x       y       z     vdW  Elec       q    Type
REMARK                         _______ _______ _______ _____ _____    ______ ____
ROOT
ATOM      1  C   UNL     1     -10.796  55.236  47.947  0.00  0.00    +0.000 C 
ATOM      2  C   UNL     1     -12.155  55.788  47.860  0.00  0.00    +0.000 C 
ATOM      3  C   UNL     1     -10.374  55.484  49.192  0.00  0.00    +0.000 C 
ATOM      4  O   UNL     1     -12.824  55.780  46.841  0.00  0.00    +0.000 OA
ATOM      5  N   UNL     1     -12.460  56.323  49.094  0.00  0.00    +0.000 N 
ATOM      6  O   UNL     1      -9.094  55.311  49.652  0.00  0.00    +0.000 OA
ATOM      7  C   UNL     1     -11.430  56.053  50.092  0.00  0.00    +0.000 C 
ENDROOT
BRANCH   1  13
ATOM      8  S   UNL     1      -7.910  54.309  45.524  0.00  0.00    +0.000 S 
ATOM      9  O   UNL     1      -6.955  53.465  46.219  0.00  0.00    +0.000 OA
ATOM     10  O   UNL     1      -7.455  55.338  44.617  0.00  0.00    +0.000 OA
ATOM     11  N   UNL     1      -8.860  55.016  46.626  0.00  0.00    +0.000 N 
ATOM     12  C   UNL     1      -8.912  53.225  44.567  0.00  0.00    +0.000 A 
ATOM     13  C   UNL     1     -10.060  54.568  46.850  0.00  0.00    +0.000 C 
ATOM     14  C   UNL     1     -10.192  52.953  45.027  0.00  0.00    +0.000 A 
ATOM     15  C   UNL     1      -8.414  52.685  43.380  0.00  0.00    +0.000 A 
ATOM     16  N   UNL     1     -10.681  53.539  46.188  0.00  0.00    +0.000 N 
ATOM     17  C   UNL     1     -10.997  52.099  44.267  0.00  0.00    +0.000 A 
ATOM     18  C   UNL     1      -9.229  51.841  42.631  0.00  0.00    +0.000 A 
ATOM     19  C   UNL     1     -10.520  51.549  43.074  0.00  0.00    +0.000 A 
ATOM     20  H   UNL     1      -8.528  55.793  47.131  0.00  0.00    +0.000 HD
ATOM     21  H   UNL     1     -11.525  53.193  46.560  0.00  0.00    +0.000 HD
ENDBRANCH   1  13
BRANCH   7  22
ATOM     22  C   UNL     1     -11.955  55.154  51.257  0.00  0.00    +0.000 C 
ATOM     23  C   UNL     1     -11.164  55.268  52.573  0.00  0.00    +0.000 C 
ATOM     24  C   UNL     1     -12.167  53.664  50.926  0.00  0.00    +0.000 C 
ATOM     25  C   UNL     1      -9.908  54.402  52.674  0.00  0.00    +0.000 C 
ATOM     26  C   UNL     1     -10.877  52.862  50.859  0.00  0.00    +0.000 C 
ATOM     27  C   UNL     1     -10.057  52.982  52.136  0.00  0.00    +0.000 C 
ENDBRANCH   7  22
BRANCH   5  28
ATOM     28  C   UNL     1     -13.715  56.990  49.385  0.00  0.00    +0.000 C 
BRANCH  28  29
ATOM     29  C   UNL     1     -13.570  58.045  50.481  0.00  0.00    +0.000 C 
BRANCH  29  30
ATOM     30  C   UNL     1     -14.647  57.969  51.590  0.00  0.00    +0.000 C 
ATOM     31  C   UNL     1     -14.007  57.669  52.956  0.00  0.00    +0.000 C 
ATOM     32  C   UNL     1     -15.355  59.334  51.669  0.00  0.00    +0.000 C 
ATOM     33  C   UNL     1     -15.694  56.891  51.266  0.00  0.00    +0.000 C 
ENDBRANCH  29  30
ENDBRANCH  28  29
ENDBRANCH   5  28
TORSDOF 5
ENDMDL
MODEL 2
REMARK VINA RESULT:      -8.1      2.596      7.649
REMARK  Name = 
REMARK  8 active torsions:
REMARK  status: ('A' for Active; 'I' for Inactive)
REMARK    1  A    between atoms: C_6  and  C_10
REMARK    2  A    between atoms: N_17  and  C_20
REMARK    3  A    between atoms: C_19  and  C_21
REMARK    4  A    between atoms: C_20  and  C_22
REMARK    5  A    between atoms: C_22  and  C_25
REMARK    6  A    between atoms: C_25  and  C_28
REMARK    7  A    between atoms: C_25  and  C_29
REMARK    8  A    between atoms: C_25  and  C_30
REMARK                            x       y       z     vdW  Elec       q    Type
REMARK                         _______ _______ _______ _____ _____    ______ ____
ROOT
ATOM      1  C   UNL     1     -11.691  55.315  49.227  0.00  0.00    +0.000 C 
ATOM      2  C   UNL     1     -11.642  54.796  47.853  0.00  0.00    +0.000 C 
ATOM      3  C   UNL     1     -10.828  54.578  49.934  0.00  0.00    +0.000 C 
ATOM      4  O   UNL     1     -12.347  55.209  46.949  0.00  0.00    +0.000 OA
ATOM      5  N   UNL     1     -10.718  53.772  47.835  0.00  0.00    +0.000 N 
ATOM      6  O   UNL     1     -10.692  54.593  51.298  0.00  0.00    +0.000 OA
ATOM      7  C   UNL     1     -10.010  53.634  49.104  0.00  0.00    +0.000 C 
ENDROOT
BRANCH   1  13
ATOM      8  S   UNL     1     -13.427  58.783  49.388  0.00  0.00    +0.000 S 
ATOM      9  O   UNL     1     -14.497  58.827  48.409  0.00  0.00    +0.000 OA
ATOM     10  O   UNL     1     -12.579  59.935  49.601  0.00  0.00    +0.000 OA
ATOM     11  N   UNL     1     -12.466  57.530  49.035  0.00  0.00    +0.000 N 
ATOM     12  C   UNL     1     -14.194  58.451  50.936  0.00  0.00    +0.000 A 
ATOM     13  C   UNL     1     -12.554  56.420  49.706  0.00  0.00    +0.000 C 
ATOM     14  C   UNL     1     -14.087  57.167  51.449  0.00  0.00    +0.000 A 
ATOM     15  C   UNL     1     -14.868  59.471  51.611  0.00  0.00    +0.000 A 
ATOM     16  N   UNL     1     -13.374  56.180  50.779  0.00  0.00    +0.000 N 
ATOM     17  C   UNL     1     -14.688  56.898  52.682  0.00  0.00    +0.000 A 
ATOM     18  C   UNL     1     -15.456  59.191  52.840  0.00  0.00    +0.000 A 
ATOM     19  C   UNL     1     -15.366  57.905  53.375  0.00  0.00    +0.000 A 
ATOM     20  H   UNL     1     -11.808  57.609  48.307  0.00  0.00    +0.000 HD
ATOM     21  H   UNL     1     -13.462  55.251  51.095  0.00  0.00    +0.000 HD
ENDBRANCH   1  13
BRANCH   7  22
ATOM     22  C   UNL     1      -8.480  53.926  48.964  0.00  0.00    +0.000 C 
ATOM     23  C   UNL     1      -7.611  53.403  50.122  0.00  0.00    +0.000 C 
ATOM     24  C   UNL     1      -8.090  55.385  48.661  0.00  0.00    +0.000 C 
ATOM     25  C   UNL     1      -7.516  54.312  51.348  0.00  0.00    +0.000 C 
ATOM     26  C   UNL     1      -8.177  56.306  49.867  0.00  0.00    +0.000 C 
ATOM     27  C   UNL     1      -7.352  55.797  51.041  0.00  0.00    +0.000 C 
ENDBRANCH   7  22
BRANCH   5  28
ATOM     28  C   UNL     1     -10.417  52.991  46.650  0.00  0.00    +0.000 C 
BRANCH  28  29
ATOM     29  C   UNL     1      -9.964  53.864  45.480  0.00  0.00    +0.000 C 
BRANCH  29  30
ATOM     30  C   UNL     1      -8.562  53.514  44.925  0.00  0.00    +0.000 C 
ATOM     31  C   UNL     1      -8.653  53.052  43.460  0.00  0.00    +0.000 C 
ATOM     32  C   UNL     1      -7.689  54.780  44.987  0.00  0.00    +0.000 C 
ATOM     33  C   UNL     1      -7.895  52.416  45.769  0.00  0.00    +0.000 C 
ENDBRANCH  29  30
ENDBRANCH  28  29
ENDBRANCH   5  28
TORSDOF 5
ENDMDL
MODEL 3
REMARK VINA RESULT:      -8.0      3.110      6.426
REMARK  Name = 
REMARK  8 active torsions:
REMARK  status: ('A' for Active; 'I' for Inactive)
REMARK    1  A    between atoms: C_6  and  C_10
REMARK    2  A    between atoms: N_17  and  C_20
REMARK    3  A    between atoms: C_19  and  C_21
REMARK    4  A    between atoms: C_20  and  C_22
REMARK    5  A    between atoms: C_22  and  C_25
REMARK    6  A    between atoms: C_25  and  C_28
REMARK    7  A    between atoms: C_25  and  C_29
REMARK    8  A    between atoms: C_25  and  C_30
REMARK                            x       y       z     vdW  Elec       q    Type
REMARK                         _______ _______ _______ _____ _____    ______ ____
ROOT
ATOM      1  C   UNL     1     -10.791  53.787  50.588  0.00  0.00    +0.000 C 
ATOM      2  C   UNL     1     -11.827  54.760  50.961  0.00  0.00    +0.000 C 
ATOM      3  C   UNL     1     -11.078  53.397  49.342  0.00  0.00    +0.000 C 
ATOM      4  O   UNL     1     -11.898  55.284  52.059  0.00  0.00    +0.000 OA
ATOM      5  N   UNL     1     -12.669  54.897  49.878  0.00  0.00    +0.000 N 
ATOM      6  O   UNL     1     -10.485  52.360  48.670  0.00  0.00    +0.000 OA
ATOM      7  C   UNL     1     -12.198  54.167  48.705  0.00  0.00    +0.000 C 
ENDROOT
BRANCH   1  13
ATOM      8  S   UNL     1      -8.323  51.411  52.412  0.00  0.00    +0.000 S 
ATOM      9  O   UNL     1      -7.331  50.935  51.466  0.00  0.00    +0.000 OA
ATOM     10  O   UNL     1      -8.880  50.517  53.403  0.00  0.00    +0.000 OA
ATOM     11  N   UNL     1      -9.557  52.044  51.579  0.00  0.00    +0.000 N 
ATOM     12  C   UNL     1      -7.557  52.715  53.310  0.00  0.00    +0.000 A 
ATOM     13  C   UNL     1      -9.677  53.332  51.452  0.00  0.00    +0.000 C 
ATOM     14  C   UNL     1      -7.914  54.016  52.993  0.00  0.00    +0.000 A 
ATOM     15  C   UNL     1      -6.635  52.418  54.316  0.00  0.00    +0.000 A 
ATOM     16  N   UNL     1      -8.868  54.285  52.018  0.00  0.00    +0.000 N 
ATOM     17  C   UNL     1      -7.315  55.057  53.707  0.00  0.00    +0.000 A 
ATOM     18  C   UNL     1      -6.051  53.464  55.024  0.00  0.00    +0.000 A 
ATOM     19  C   UNL     1      -6.391  54.783  54.719  0.00  0.00    +0.000 A 
ATOM     20  H   UNL     1     -10.223  51.449  51.166  0.00  0.00    +0.000 HD
ATOM     21  H   UNL     1      -8.969  55.216  51.714  0.00  0.00    +0.000 HD
ENDBRANCH   1  13
BRANCH   7  22
ATOM     22  C   UNL     1     -11.843  55.119  47.518  0.00  0.00    +0.000 C 
ATOM     23  C   UNL     1     -11.911  54.472  46.123  0.00  0.00    +0.000 C 
ATOM     24  C   UNL     1     -10.522  55.903  47.644  0.00  0.00    +0.000 C 
ATOM     25  C   UNL     1     -10.663  53.706  45.681  0.00  0.00    +0.000 C 
ATOM     26  C   UNL     1      -9.284  55.065  47.370  0.00  0.00    +0.000 C 
ATOM     27  C   UNL     1      -9.337  54.385  46.009  0.00  0.00    +0.000 C 
ENDBRANCH   7  22
BRANCH   5  28
ATOM     28  C   UNL     1     -13.839  55.755  49.881  0.00  0.00    +0.000 C 
BRANCH  28  29
ATOM     29  C   UNL     1     -13.532  57.151  50.423  0.00  0.00    +0.000 C 
BRANCH  29  30
ATOM     30  C   UNL     1     -14.618  57.725  51.366  0.00  0.00    +0.000 C 
ATOM     31  C   UNL     1     -15.043  59.133  50.916  0.00  0.00    +0.000 C 
ATOM     32  C   UNL     1     -15.845  56.799  51.307  0.00  0.00    +0.000 C 
ATOM     33  C   UNL     1     -14.112  57.780  52.817  0.00  0.00    +0.000 C 
ENDBRANCH  29  30
ENDBRANCH  28  29
ENDBRANCH   5  28
TORSDOF 5
ENDMDL
MODEL 4
REMARK VINA RESULT:      -7.9      3.222      6.253
REMARK  Name = 
REMARK  8 active torsions:
REMARK  status: ('A' for Active; 'I' for Inactive)
REMARK    1  A    between atoms: C_6  and  C_10
REMARK    2  A    between atoms: N_17  and  C_20
REMARK    3  A    between atoms: C_19  and  C_21
REMARK    4  A    between atoms: C_20  and  C_22
REMARK    5  A    between atoms: C_22  and  C_25
REMARK    6  A    between atoms: C_25  and  C_28
REMARK    7  A    between atoms: C_25  and  C_29
REMARK    8  A    between atoms: C_25  and  C_30
REMARK                            x       y       z     vdW  Elec       q    Type
REMARK                         _______ _______ _______ _____ _____    ______ ____
ROOT
ATOM      1  C   UNL     1      -9.071  54.168  49.892  0.00  0.00    +0.000 C 
ATOM      2  C   UNL     1     -10.187  54.997  50.370  0.00  0.00    +0.000 C 
ATOM      3  C   UNL     1      -9.573  53.389  48.927  0.00  0.00    +0.000 C 
ATOM      4  O   UNL     1     -10.094  55.792  51.289  0.00  0.00    +0.000 OA
ATOM      5  N   UNL     1     -11.297  54.656  49.626  0.00  0.00    +0.000 N 
ATOM      6  O   UNL     1      -8.930  52.333  48.337  0.00  0.00    +0.000 OA
ATOM      7  C   UNL     1     -10.986  53.721  48.550  0.00  0.00    +0.000 C 
ENDROOT
BRANCH   1  13
ATOM      8  S   UNL     1      -5.218  53.729  50.039  0.00  0.00    +0.000 S 
ATOM      9  O   UNL     1      -4.587  54.784  49.268  0.00  0.00    +0.000 OA
ATOM     10  O   UNL     1      -4.707  52.377  49.988  0.00  0.00    +0.000 OA
ATOM     11  N   UNL     1      -6.784  53.672  49.637  0.00  0.00    +0.000 N 
ATOM     12  C   UNL     1      -5.114  54.225  51.723  0.00  0.00    +0.000 A 
ATOM     13  C   UNL     1      -7.685  54.198  50.413  0.00  0.00    +0.000 C 
ATOM     14  C   UNL     1      -6.263  54.714  52.326  0.00  0.00    +0.000 A 
ATOM     15  C   UNL     1      -3.904  54.103  52.410  0.00  0.00    +0.000 A 
ATOM     16  N   UNL     1      -7.466  54.783  51.634  0.00  0.00    +0.000 N 
ATOM     17  C   UNL     1      -6.189  55.103  53.666  0.00  0.00    +0.000 A 
ATOM     18  C   UNL     1      -3.847  54.488  53.746  0.00  0.00    +0.000 A 
ATOM     19  C   UNL     1      -4.989  54.988  54.374  0.00  0.00    +0.000 A 
ATOM     20  H   UNL     1      -7.057  53.235  48.798  0.00  0.00    +0.000 HD
ATOM     21  H   UNL     1      -8.207  55.284  52.045  0.00  0.00    +0.000 HD
ENDBRANCH   1  13
BRANCH   7  22
ATOM     22  C   UNL     1     -11.236  54.339  47.136  0.00  0.00    +0.000 C 
ATOM     23  C   UNL     1     -11.409  53.315  46.001  0.00  0.00    +0.000 C 
ATOM     24  C   UNL     1     -10.244  55.429  46.685  0.00  0.00    +0.000 C 
ATOM     25  C   UNL     1     -10.116  52.790  45.373  0.00  0.00    +0.000 C 
ATOM     26  C   UNL     1      -8.900  54.884  46.232  0.00  0.00    +0.000 C 
ATOM     27  C   UNL     1      -9.041  53.843  45.130  0.00  0.00    +0.000 C 
ENDBRANCH   7  22
BRANCH   5  28
ATOM     28  C   UNL     1     -12.607  55.245  49.834  0.00  0.00    +0.000 C 
BRANCH  28  29
ATOM     29  C   UNL     1     -12.590  56.765  49.677  0.00  0.00    +0.000 C 
BRANCH  29  30
ATOM     30  C   UNL     1     -13.916  57.370  49.156  0.00  0.00    +0.000 C 
ATOM     31  C   UNL     1     -13.946  58.893  49.374  0.00  0.00    +0.000 C 
ATOM     32  C   UNL     1     -14.015  57.089  47.646  0.00  0.00    +0.000 C 
ATOM     33  C   UNL     1     -15.125  56.728  49.856  0.00  0.00    +0.000 C 
ENDBRANCH  29  30
ENDBRANCH  28  29
ENDBRANCH   5  28
TORSDOF 5
ENDMDL
MODEL 5
REMARK VINA RESULT:      -7.9      2.880      8.062
REMARK  Name = 
REMARK  8 active torsions:
REMARK  status: ('A' for Active; 'I' for Inactive)
REMARK    1  A    between atoms: C_6  and  C_10
REMARK    2  A    between atoms: N_17  and  C_20
REMARK    3  A    between atoms: C_19  and  C_21
REMARK    4  A    between atoms: C_20  and  C_22
REMARK    5  A    between atoms: C_22  and  C_25
REMARK    6  A    between atoms: C_25  and  C_28
REMARK    7  A    between atoms: C_25  and  C_29
REMARK    8  A    between atoms: C_25  and  C_30
REMARK                            x       y       z     vdW  Elec       q    Type
REMARK                         _______ _______ _______ _____ _____    ______ ____
ROOT
ATOM      1  C   UNL     1     -11.336  55.781  49.076  0.00  0.00    +0.000 C 
ATOM      2  C   UNL     1     -10.377  55.005  49.875  0.00  0.00    +0.000 C 
ATOM      3  C   UNL     1     -11.126  55.433  47.802  0.00  0.00    +0.000 C 
ATOM      4  O   UNL     1     -10.259  55.115  51.083  0.00  0.00    +0.000 OA
ATOM      5  N   UNL     1      -9.658  54.217  49.001  0.00  0.00    +0.000 N 
ATOM      6  O   UNL     1     -11.667  56.049  46.704  0.00  0.00    +0.000 OA
ATOM      7  C   UNL     1     -10.158  54.299  47.632  0.00  0.00    +0.000 C 
ENDROOT
BRANCH   1  13
ATOM      8  S   UNL     1     -13.447  59.023  49.383  0.00  0.00    +0.000 S 
ATOM      9  O   UNL     1     -14.531  58.980  48.420  0.00  0.00    +0.000 OA
ATOM     10  O   UNL     1     -12.731  60.255  49.628  0.00  0.00    +0.000 OA
ATOM     11  N   UNL     1     -12.357  57.900  48.974  0.00  0.00    +0.000 N 
ATOM     12  C   UNL     1     -14.148  58.553  50.927  0.00  0.00    +0.000 A 
ATOM     13  C   UNL     1     -12.309  56.764  49.605  0.00  0.00    +0.000 C 
ATOM     14  C   UNL     1     -13.889  57.272  51.392  0.00  0.00    +0.000 A 
ATOM     15  C   UNL     1     -14.921  59.466  51.647  0.00  0.00    +0.000 A 
ATOM     16  N   UNL     1     -13.080  56.396  50.679  0.00  0.00    +0.000 N 
ATOM     17  C   UNL     1     -14.437  56.894  52.621  0.00  0.00    +0.000 A 
ATOM     18  C   UNL     1     -15.454  59.079  52.872  0.00  0.00    +0.000 A 
ATOM     19  C   UNL     1     -15.212  57.793  53.359  0.00  0.00    +0.000 A 
ATOM     20  H   UNL     1     -11.725  58.078  48.241  0.00  0.00    +0.000 HD
ATOM     21  H   UNL     1     -13.058  55.453  50.961  0.00  0.00    +0.000 HD
ENDBRANCH   1  13
BRANCH   7  22
ATOM     22  C   UNL     1     -10.720  52.932  47.124  0.00  0.00    +0.000 C 
ATOM     23  C   UNL     1      -9.655  51.930  46.644  0.00  0.00    +0.000 C 
ATOM     24  C   UNL     1     -11.848  53.007  46.076  0.00  0.00    +0.000 C 
ATOM     25  C   UNL     1      -9.182  52.098  45.200  0.00  0.00    +0.000 C 
ATOM     26  C   UNL     1     -11.363  53.352  44.677  0.00  0.00    +0.000 C 
ATOM     27  C   UNL     1     -10.284  52.395  44.189  0.00  0.00    +0.000 C 
ENDBRANCH   7  22
BRANCH   5  28
ATOM     28  C   UNL     1      -8.590  53.330  49.421  0.00  0.00    +0.000 C 
BRANCH  28  29
ATOM     29  C   UNL     1      -7.233  54.032  49.451  0.00  0.00    +0.000 C 
BRANCH  29  30
ATOM     30  C   UNL     1      -6.236  53.545  48.371  0.00  0.00    +0.000 C 
ATOM     31  C   UNL     1      -6.610  54.106  46.988  0.00  0.00    +0.000 C 
ATOM     32  C   UNL     1      -4.833  54.056  48.745  0.00  0.00    +0.000 C 
ATOM     33  C   UNL     1      -6.199  52.010  48.310  0.00  0.00    +0.000 C 
ENDBRANCH  29  30
ENDBRANCH  28  29
ENDBRANCH   5  28
TORSDOF 5
ENDMDL
MODEL 6
REMARK VINA RESULT:      -7.7      2.933      7.971
REMARK  Name = 
REMARK  8 active torsions:
REMARK  status: ('A' for Active; 'I' for Inactive)
REMARK    1  A    between atoms: C_6  and  C_10
REMARK    2  A    between atoms: N_17  and  C_20
REMARK    3  A    between atoms: C_19  and  C_21
REMARK    4  A    between atoms: C_20  and  C_22
REMARK    5  A    between atoms: C_22  and  C_25
REMARK    6  A    between atoms: C_25  and  C_28
REMARK    7  A    between atoms: C_25  and  C_29
REMARK    8  A    between atoms: C_25  and  C_30
REMARK                            x       y       z     vdW  Elec       q    Type
REMARK                         _______ _______ _______ _____ _____    ______ ____
ROOT
ATOM      1  C   UNL     1     -10.565  55.789  48.411  0.00  0.00    +0.000 C 
ATOM      2  C   UNL     1      -9.168  55.544  48.797  0.00  0.00    +0.000 C 
ATOM      3  C   UNL     1     -10.665  55.426  47.128  0.00  0.00    +0.000 C 
ATOM      4  O   UNL     1      -8.713  55.813  49.895  0.00  0.00    +0.000 OA
ATOM      5  N   UNL     1      -8.524  55.023  47.694  0.00  0.00    +0.000 N 
ATOM      6  O   UNL     1     -11.741  55.661  46.311  0.00  0.00    +0.000 OA
ATOM      7  C   UNL     1      -9.435  54.761  46.585  0.00  0.00    +0.000 C 
ENDROOT
BRANCH   1  13
ATOM      8  S   UNL     1     -13.181  56.053  51.266  0.00  0.00    +0.000 S 
ATOM      9  O   UNL     1     -12.494  56.282  52.523  0.00  0.00    +0.000 OA
ATOM     10  O   UNL     1     -14.317  55.162  51.202  0.00  0.00    +0.000 OA
ATOM     11  N   UNL     1     -12.097  55.538  50.180  0.00  0.00    +0.000 N 
ATOM     12  C   UNL     1     -13.765  57.625  50.736  0.00  0.00    +0.000 A 
ATOM     13  C   UNL     1     -11.620  56.351  49.286  0.00  0.00    +0.000 C 
ATOM     14  C   UNL     1     -13.079  58.259  49.711  0.00  0.00    +0.000 A 
ATOM     15  C   UNL     1     -14.895  58.185  51.335  0.00  0.00    +0.000 A 
ATOM     16  N   UNL     1     -11.983  57.661  49.100  0.00  0.00    +0.000 N 
ATOM     17  C   UNL     1     -13.542  59.505  49.279  0.00  0.00    +0.000 A 
ATOM     18  C   UNL     1     -15.349  59.423  50.891  0.00  0.00    +0.000 A 
ATOM     19  C   UNL     1     -14.673  60.083  49.864  0.00  0.00    +0.000 A 
ATOM     20  H   UNL     1     -11.797  54.601  50.197  0.00  0.00    +0.000 HD
ATOM     21  H   UNL     1     -11.434  58.212  48.496  0.00  0.00    +0.000 HD
ENDBRANCH   1  13
BRANCH   7  22
ATOM     22  C   UNL     1      -9.524  53.239  46.238  0.00  0.00    +0.000 C 
ATOM     23  C   UNL     1      -8.447  52.731  45.263  0.00  0.00    +0.000 C 
ATOM     24  C   UNL     1     -10.902  52.725  45.778  0.00  0.00    +0.000 C 
ATOM     25  C   UNL     1      -8.745  52.930  43.776  0.00  0.00    +0.000 C 
ATOM     26  C   UNL     1     -11.246  53.093  44.344  0.00  0.00    +0.000 C 
ATOM     27  C   UNL     1     -10.182  52.631  43.359  0.00  0.00    +0.000 C 
ENDBRANCH   7  22
BRANCH   5  28
ATOM     28  C   UNL     1      -7.114  54.682  47.682  0.00  0.00    +0.000 C 
BRANCH  28  29
ATOM     29  C   UNL     1      -6.813  53.434  48.512  0.00  0.00    +0.000 C 
BRANCH  29  30
ATOM     30  C   UNL     1      -5.682  53.616  49.554  0.00  0.00    +0.000 C 
ATOM     31  C   UNL     1      -4.482  52.712  49.223  0.00  0.00    +0.000 C 
ATOM     32  C   UNL     1      -5.219  55.083  49.512  0.00  0.00    +0.000 C 
ATOM     33  C   UNL     1      -6.187  53.300  50.972  0.00  0.00    +0.000 C 
ENDBRANCH  29  30
ENDBRANCH  28  29
ENDBRANCH   5  28
TORSDOF 5
ENDMDL
MODEL 7
REMARK VINA RESULT:      -7.7      2.964      6.305
REMARK  Name = 
REMARK  8 active torsions:
REMARK  status: ('A' for Active; 'I' for Inactive)
REMARK    1  A    between atoms: C_6  and  C_10
REMARK    2  A    between atoms: N_17  and  C_20
REMARK    3  A    between atoms: C_19  and  C_21
REMARK    4  A    between atoms: C_20  and  C_22
REMARK    5  A    between atoms: C_22  and  C_25
REMARK    6  A    between atoms: C_25  and  C_28
REMARK    7  A    between atoms: C_25  and  C_29
REMARK    8  A    between atoms: C_25  and  C_30
REMARK                            x       y       z     vdW  Elec       q    Type
REMARK                         _______ _______ _______ _____ _____    ______ ____
ROOT
ATOM      1  C   UNL     1     -10.643  53.965  50.870  0.00  0.00    +0.000 C 
ATOM      2  C   UNL     1     -11.756  54.864  51.205  0.00  0.00    +0.000 C 
ATOM      3  C   UNL     1     -10.843  53.582  49.604  0.00  0.00    +0.000 C 
ATOM      4  O   UNL     1     -11.916  55.362  52.306  0.00  0.00    +0.000 OA
ATOM      5  N   UNL     1     -12.549  54.970  50.081  0.00  0.00    +0.000 N 
ATOM      6  O   UNL     1     -10.152  52.597  48.948  0.00  0.00    +0.000 OA
ATOM      7  C   UNL     1     -11.974  54.293  48.923  0.00  0.00    +0.000 C 
ENDROOT
BRANCH   1  13
ATOM      8  S   UNL     1      -7.080  53.633  52.372  0.00  0.00    +0.000 S 
ATOM      9  O   UNL     1      -6.730  54.869  53.047  0.00  0.00    +0.000 OA
ATOM     10  O   UNL     1      -6.097  52.922  51.585  0.00  0.00    +0.000 OA
ATOM     11  N   UNL     1      -8.354  53.919  51.416  0.00  0.00    +0.000 N 
ATOM     12  C   UNL     1      -7.594  52.518  53.631  0.00  0.00    +0.000 A 
ATOM     13  C   UNL     1      -9.549  53.563  51.783  0.00  0.00    +0.000 C 
ATOM     14  C   UNL     1      -8.953  52.282  53.771  0.00  0.00    +0.000 A 
ATOM     15  C   UNL     1      -6.640  51.892  54.437  0.00  0.00    +0.000 A 
ATOM     16  N   UNL     1      -9.880  52.882  52.928  0.00  0.00    +0.000 N 
ATOM     17  C   UNL     1      -9.368  51.391  54.765  0.00  0.00    +0.000 A 
ATOM     18  C   UNL     1      -7.068  51.003  55.418  0.00  0.00    +0.000 A 
ATOM     19  C   UNL     1      -8.431  50.752  55.582  0.00  0.00    +0.000 A 
ATOM     20  H   UNL     1      -8.223  54.366  50.549  0.00  0.00    +0.000 HD
ATOM     21  H   UNL     1     -10.833  52.816  53.166  0.00  0.00    +0.000 HD
ENDBRANCH   1  13
BRANCH   7  22
ATOM     22  C   UNL     1     -11.620  55.289  47.771  0.00  0.00    +0.000 C 
ATOM     23  C   UNL     1     -11.645  54.681  46.357  0.00  0.00    +0.000 C 
ATOM     24  C   UNL     1     -10.321  56.099  47.947  0.00  0.00    +0.000 C 
ATOM     25  C   UNL     1     -10.371  53.958  45.918  0.00  0.00    +0.000 C 
ATOM     26  C   UNL     1      -9.058  55.300  47.673  0.00  0.00    +0.000 C 
ATOM     27  C   UNL     1      -9.069  54.659  46.292  0.00  0.00    +0.000 C 
ENDBRANCH   7  22
BRANCH   5  28
ATOM     28  C   UNL     1     -13.769  55.754  50.038  0.00  0.00    +0.000 C 
BRANCH  28  29
ATOM     29  C   UNL     1     -13.543  57.202  50.473  0.00  0.00    +0.000 C 
BRANCH  29  30
ATOM     30  C   UNL     1     -14.645  57.772  51.399  0.00  0.00    +0.000 C 
ATOM     31  C   UNL     1     -14.153  57.845  52.855  0.00  0.00    +0.000 C 
ATOM     32  C   UNL     1     -14.985  59.196  50.924  0.00  0.00    +0.000 C 
ATOM     33  C   UNL     1     -15.919  56.914  51.330  0.00  0.00    +0.000 C 
ENDBRANCH  29  30
ENDBRANCH  28  29
ENDBRANCH   5  28
TORSDOF 5
ENDMDL
MODEL 8
REMARK VINA RESULT:      -7.6      2.830      7.559
REMARK  Name = 
REMARK  8 active torsions:
REMARK  status: ('A' for Active; 'I' for Inactive)
REMARK    1  A    between atoms: C_6  and  C_10
REMARK    2  A    between atoms: N_17  and  C_20
REMARK    3  A    between atoms: C_19  and  C_21
REMARK    4  A    between atoms: C_20  and  C_22
REMARK    5  A    between atoms: C_22  and  C_25
REMARK    6  A    between atoms: C_25  and  C_28
REMARK    7  A    between atoms: C_25  and  C_29
REMARK    8  A    between atoms: C_25  and  C_30
REMARK                            x       y       z     vdW  Elec       q    Type
REMARK                         _______ _______ _______ _____ _____    ______ ____
ROOT
ATOM      1  C   UNL     1     -10.821  55.045  50.338  0.00  0.00    +0.000 C 
ATOM      2  C   UNL     1     -10.667  53.790  51.086  0.00  0.00    +0.000 C 
ATOM      3  C   UNL     1      -9.697  55.197  49.630  0.00  0.00    +0.000 C 
ATOM      4  O   UNL     1     -11.492  53.368  51.878  0.00  0.00    +0.000 OA
ATOM      5  N   UNL     1      -9.439  53.260  50.748  0.00  0.00    +0.000 N 
ATOM      6  O   UNL     1      -9.333  56.322  48.937  0.00  0.00    +0.000 OA
ATOM      7  C   UNL     1      -8.775  54.015  49.690  0.00  0.00    +0.000 C 
ENDROOT
BRANCH   1  13
ATOM      8  S   UNL     1     -13.669  57.411  49.174  0.00  0.00    +0.000 S 
ATOM      9  O   UNL     1     -14.743  56.620  48.602  0.00  0.00    +0.000 OA
ATOM     10  O   UNL     1     -13.278  58.664  48.568  0.00  0.00    +0.000 OA
ATOM     11  N   UNL     1     -12.347  56.482  49.267  0.00  0.00    +0.000 N 
ATOM     12  C   UNL     1     -14.169  57.799  50.815  0.00  0.00    +0.000 A 
ATOM     13  C   UNL     1     -11.990  55.952  50.399  0.00  0.00    +0.000 C 
ATOM     14  C   UNL     1     -13.578  57.097  51.855  0.00  0.00    +0.000 A 
ATOM     15  C   UNL     1     -15.119  58.798  51.035  0.00  0.00    +0.000 A 
ATOM     16  N   UNL     1     -12.602  56.138  51.614  0.00  0.00    +0.000 N 
ATOM     17  C   UNL     1     -13.965  57.405  53.162  0.00  0.00    +0.000 A 
ATOM     18  C   UNL     1     -15.490  59.099  52.341  0.00  0.00    +0.000 A 
ATOM     19  C   UNL     1     -14.913  58.403  53.405  0.00  0.00    +0.000 A 
ATOM     20  H   UNL     1     -11.809  56.318  48.460  0.00  0.00    +0.000 HD
ATOM     21  H   UNL     1     -12.332  55.555  52.360  0.00  0.00    +0.000 HD
ENDBRANCH   1  13
BRANCH   7  22
ATOM     22  C   UNL     1      -8.587  53.171  48.388  0.00  0.00    +0.000 C 
ATOM     23  C   UNL     1      -7.657  53.799  47.335  0.00  0.00    +0.000 C 
ATOM     24  C   UNL     1      -9.877  52.689  47.697  0.00  0.00    +0.000 C 
ATOM     25  C   UNL     1      -8.304  54.820  46.397  0.00  0.00    +0.000 C 
ATOM     26  C   UNL     1     -10.595  53.776  46.914  0.00  0.00    +0.000 C 
ATOM     27  C   UNL     1      -9.690  54.440  45.885  0.00  0.00    +0.000 C 
ENDBRANCH   7  22
BRANCH   5  28
ATOM     28  C   UNL     1      -8.919  52.030  51.315  0.00  0.00    +0.000 C 
BRANCH  28  29
ATOM     29  C   UNL     1      -7.651  52.262  52.137  0.00  0.00    +0.000 C 
BRANCH  29  30
ATOM     30  C   UNL     1      -7.906  52.580  53.630  0.00  0.00    +0.000 C 
ATOM     31  C   UNL     1      -6.727  52.109  54.499  0.00  0.00    +0.000 C 
ATOM     32  C   UNL     1      -8.047  54.106  53.780  0.00  0.00    +0.000 C 
ATOM     33  C   UNL     1      -9.203  51.916  54.120  0.00  0.00    +0.000 C 
ENDBRANCH  29  30
ENDBRANCH  28  29
ENDBRANCH   5  28
TORSDOF 5
ENDMDL
MODEL 9
REMARK VINA RESULT:      -7.6      2.289      2.933
REMARK  Name = 
REMARK  8 active torsions:
REMARK  status: ('A' for Active; 'I' for Inactive)
REMARK    1  A    between atoms: C_6  and  C_10
REMARK    2  A    between atoms: N_17  and  C_20
REMARK    3  A    between atoms: C_19  and  C_21
REMARK    4  A    between atoms: C_20  and  C_22
REMARK    5  A    between atoms: C_22  and  C_25
REMARK    6  A    between atoms: C_25  and  C_28
REMARK    7  A    between atoms: C_25  and  C_29
REMARK    8  A    between atoms: C_25  and  C_30
REMARK                            x       y       z     vdW  Elec       q    Type
REMARK                         _______ _______ _______ _____ _____    ______ ____
ROOT
ATOM      1  C   UNL     1     -10.591  54.347  48.059  0.00  0.00    +0.000 C 
ATOM      2  C   UNL     1     -11.731  54.524  48.969  0.00  0.00    +0.000 C 
ATOM      3  C   UNL     1      -9.712  55.305  48.373  0.00  0.00    +0.000 C 
ATOM      4  O   UNL     1     -12.743  53.846  48.926  0.00  0.00    +0.000 OA
ATOM      5  N   UNL     1     -11.435  55.589  49.794  0.00  0.00    +0.000 N 
ATOM      6  O   UNL     1      -8.591  55.630  47.655  0.00  0.00    +0.000 OA
ATOM      7  C   UNL     1     -10.078  56.090  49.598  0.00  0.00    +0.000 C 
ENDROOT
BRANCH   1  13
ATOM      8  S   UNL     1     -10.962  50.953  46.214  0.00  0.00    +0.000 S 
ATOM      9  O   UNL     1     -12.321  50.822  45.724  0.00  0.00    +0.000 OA
ATOM     10  O   UNL     1     -10.274  49.815  46.783  0.00  0.00    +0.000 OA
ATOM     11  N   UNL     1     -10.929  52.140  47.313  0.00  0.00    +0.000 N 
ATOM     12  C   UNL     1      -9.994  51.468  44.838  0.00  0.00    +0.000 A 
ATOM     13  C   UNL     1     -10.480  53.319  46.999  0.00  0.00    +0.000 C 
ATOM     14  C   UNL     1      -9.607  52.799  44.782  0.00  0.00    +0.000 A 
ATOM     15  C   UNL     1      -9.629  50.542  43.859  0.00  0.00    +0.000 A 
ATOM     16  N   UNL     1      -9.945  53.692  45.791  0.00  0.00    +0.000 N 
ATOM     17  C   UNL     1      -8.832  53.213  43.695  0.00  0.00    +0.000 A 
ATOM     18  C   UNL     1      -8.852  50.968  42.786  0.00  0.00    +0.000 A 
ATOM     19  C   UNL     1      -8.453  52.303  42.705  0.00  0.00    +0.000 A 
ATOM     20  H   UNL     1     -11.252  51.969  48.227  0.00  0.00    +0.000 HD
ATOM     21  H   UNL     1      -9.791  54.651  45.630  0.00  0.00    +0.000 HD
ENDBRANCH   1  13
BRANCH   7  22
ATOM     22  C   UNL     1      -9.190  55.908  50.872  0.00  0.00    +0.000 C 
ATOM     23  C   UNL     1      -7.829  56.624  50.822  0.00  0.00    +0.000 C 
ATOM     24  C   UNL     1      -8.979  54.459  51.353  0.00  0.00    +0.000 C 
ATOM     25  C   UNL     1      -6.702  55.868  50.115  0.00  0.00    +0.000 C 
ATOM     26  C   UNL     1      -7.980  53.675  50.519  0.00  0.00    +0.000 C 
ATOM     27  C   UNL     1      -6.632  54.376  50.424  0.00  0.00    +0.000 C 
ENDBRANCH   7  22
BRANCH   5  28
ATOM     28  C   UNL     1     -12.343  56.086  50.810  0.00  0.00    +0.000 C 
BRANCH  28  29
ATOM     29  C   UNL     1     -13.313  57.131  50.260  0.00  0.00    +0.000 C 
BRANCH  29  30
ATOM     30  C   UNL     1     -14.409  57.577  51.259  0.00  0.00    +0.000 C 
ATOM     31  C   UNL     1     -15.686  56.737  51.083  0.00  0.00    +0.000 C 
ATOM     32  C   UNL     1     -13.874  57.364  52.687  0.00  0.00    +0.000 C 
ATOM     33  C   UNL     1     -14.744  59.066  51.078  0.00  0.00    +0.000 C 
ENDBRANCH  29  30
ENDBRANCH  28  29
ENDBRANCH   5  28
TORSDOF 5
ENDMDL
