MODEL 1
REMARK VINA RESULT:      -8.8      0.000      0.000
REMARK  Name = 
REMARK  7 active torsions:
REMARK  status: ('A' for Active; 'I' for Inactive)
REMARK    1  A    between atoms: C_6  and  C_10
REMARK    2  A    between atoms: N_17  and  C_20
REMARK    3  A    between atoms: C_19  and  C_21
REMARK    4  A    between atoms: C_20  and  C_22
REMARK    5  A    between atoms: C_21  and  C_23
REMARK    6  A    between atoms: C_21  and  C_24
REMARK    7  A    between atoms: C_23  and  C_27
REMARK                            x       y       z     vdW  Elec       q    Type
REMARK                         _______ _______ _______ _____ _____    ______ ____
ROOT
ATOM      1  C   UNL     1     -10.924  55.278  47.904  0.00  0.00    +0.000 C 
ATOM      2  C   UNL     1     -12.230  55.916  47.708  0.00  0.00    +0.000 C 
ATOM      3  C   UNL     1     -10.618  55.478  49.191  0.00  0.00    +0.000 C 
ATOM      4  O   UNL     1     -12.733  56.083  46.607  0.00  0.00    +0.000 OA
ATOM      5  N   UNL     1     -12.722  56.288  48.943  0.00  0.00    +0.000 N 
ATOM      6  O   UNL     1      -9.430  55.123  49.782  0.00  0.00    +0.000 OA
ATOM      7  C   UNL     1     -11.706  56.185  49.997  0.00  0.00    +0.000 C 
ENDROOT
BRANCH   1  13
ATOM      8  S   UNL     1      -7.982  54.345  45.516  0.00  0.00    +0.000 S 
ATOM      9  O   UNL     1      -7.054  53.515  46.254  0.00  0.00    +0.000 OA
ATOM     10  O   UNL     1      -7.493  55.357  44.599  0.00  0.00    +0.000 OA
ATOM     11  N   UNL     1      -8.959  55.086  46.586  0.00  0.00    +0.000 N 
ATOM     12  C   UNL     1      -8.959  53.245  44.554  0.00  0.00    +0.000 A 
ATOM     13  C   UNL     1     -10.148  54.615  46.814  0.00  0.00    +0.000 C 
ATOM     14  C   UNL     1     -10.242  52.968  45.002  0.00  0.00    +0.000 A 
ATOM     15  C   UNL     1      -8.441  52.677  43.386  0.00  0.00    +0.000 A 
ATOM     16  N   UNL     1     -10.744  53.564  46.154  0.00  0.00    +0.000 N 
ATOM     17  C   UNL     1     -11.030  52.091  44.249  0.00  0.00    +0.000 A 
ATOM     18  C   UNL     1      -9.237  51.809  42.643  0.00  0.00    +0.000 A 
ATOM     19  C   UNL     1     -10.533  51.519  43.074  0.00  0.00    +0.000 A 
ATOM     20  H   UNL     1      -8.649  55.890  47.061  0.00  0.00    +0.000 HD
ATOM     21  H   UNL     1     -11.584  53.209  46.523  0.00  0.00    +0.000 HD
ENDBRANCH   1  13
BRANCH   7  22
ATOM     22  C   UNL     1     -12.142  55.418  51.288  0.00  0.00    +0.000 C 
ATOM     23  C   UNL     1     -12.495  53.946  50.998  0.00  0.00    +0.000 C 
BRANCH  22  24
ATOM     24  C   UNL     1     -11.119  55.426  52.452  0.00  0.00    +0.000 C 
ATOM     25  C   UNL     1     -10.617  54.057  52.897  0.00  0.00    +0.000 C 
ENDBRANCH  22  24
ENDBRANCH   7  22
BRANCH   5  26
ATOM     26  C   UNL     1     -13.900  57.137  49.009  0.00  0.00    +0.000 C 
BRANCH  26  27
ATOM     27  C   UNL     1     -14.395  57.429  50.416  0.00  0.00    +0.000 A 
ATOM     28  C   UNL     1     -15.227  56.564  51.144  0.00  0.00    +0.000 A 
ATOM     29  C   UNL     1     -13.990  58.627  51.028  0.00  0.00    +0.000 A 
ATOM     30  C   UNL     1     -15.615  56.871  52.452  0.00  0.00    +0.000 A 
ATOM     31  C   UNL     1     -14.376  58.932  52.336  0.00  0.00    +0.000 A 
ATOM     32  C   UNL     1     -15.181  58.050  53.050  0.00  0.00    +0.000 A 
ENDBRANCH  26  27
ENDBRANCH   5  26
TORSDOF 5
ENDMDL
MODEL 2
REMARK VINA RESULT:      -8.7      2.708      8.163
REMARK  Name = 
REMARK  7 active torsions:
REMARK  status: ('A' for Active; 'I' for Inactive)
REMARK    1  A    between atoms: C_6  and  C_10
REMARK    2  A    between atoms: N_17  and  C_20
REMARK    3  A    between atoms: C_19  and  C_21
REMARK    4  A    between atoms: C_20  and  C_22
REMARK    5  A    between atoms: C_21  and  C_23
REMARK    6  A    between atoms: C_21  and  C_24
REMARK    7  A    between atoms: C_23  and  C_27
REMARK                            x       y       z     vdW  Elec       q    Type
REMARK                         _______ _______ _______ _____ _____    ______ ____
ROOT
ATOM      1  C   UNL     1     -11.090  55.772  49.287  0.00  0.00    +0.000 C 
ATOM      2  C   UNL     1     -11.404  54.454  48.727  0.00  0.00    +0.000 C 
ATOM      3  C   UNL     1      -9.754  55.832  49.335  0.00  0.00    +0.000 C 
ATOM      4  O   UNL     1     -12.534  53.988  48.706  0.00  0.00    +0.000 OA
ATOM      5  N   UNL     1     -10.229  53.878  48.285  0.00  0.00    +0.000 N 
ATOM      6  O   UNL     1      -9.031  56.863  49.883  0.00  0.00    +0.000 OA
ATOM      7  C   UNL     1      -9.046  54.615  48.745  0.00  0.00    +0.000 C 
ENDROOT
BRANCH   1  13
ATOM      8  S   UNL     1     -13.364  58.942  49.385  0.00  0.00    +0.000 S 
ATOM      9  O   UNL     1     -14.405  58.776  48.392  0.00  0.00    +0.000 OA
ATOM     10  O   UNL     1     -12.735  60.234  49.580  0.00  0.00    +0.000 OA
ATOM     11  N   UNL     1     -12.186  57.867  49.066  0.00  0.00    +0.000 N 
ATOM     12  C   UNL     1     -14.092  58.514  50.927  0.00  0.00    +0.000 A 
ATOM     13  C   UNL     1     -12.122  56.755  49.734  0.00  0.00    +0.000 C 
ATOM     14  C   UNL     1     -13.790  57.268  51.454  0.00  0.00    +0.000 A 
ATOM     15  C   UNL     1     -14.944  59.411  51.579  0.00  0.00    +0.000 A 
ATOM     16  N   UNL     1     -12.920  56.403  50.799  0.00  0.00    +0.000 N 
ATOM     17  C   UNL     1     -14.364  56.912  52.680  0.00  0.00    +0.000 A 
ATOM     18  C   UNL     1     -15.505  59.046  52.800  0.00  0.00    +0.000 A 
ATOM     19  C   UNL     1     -15.213  57.797  53.351  0.00  0.00    +0.000 A 
ATOM     20  H   UNL     1     -11.521  58.059  48.365  0.00  0.00    +0.000 HD
ATOM     21  H   UNL     1     -12.873  55.473  51.119  0.00  0.00    +0.000 HD
ENDBRANCH   1  13
BRANCH   7  22
ATOM     22  C   UNL     1      -7.992  54.964  47.643  0.00  0.00    +0.000 C 
ATOM     23  C   UNL     1      -6.967  53.831  47.442  0.00  0.00    +0.000 C 
BRANCH  22  24
ATOM     24  C   UNL     1      -8.568  55.318  46.250  0.00  0.00    +0.000 C 
ATOM     25  C   UNL     1      -7.794  54.767  45.058  0.00  0.00    +0.000 C 
ENDBRANCH  22  24
ENDBRANCH   7  22
BRANCH   5  26
ATOM     26  C   UNL     1     -10.231  52.480  47.888  0.00  0.00    +0.000 C 
BRANCH  26  27
ATOM     27  C   UNL     1     -10.211  52.245  46.387  0.00  0.00    +0.000 A 
ATOM     28  C   UNL     1     -11.090  52.872  45.489  0.00  0.00    +0.000 A 
ATOM     29  C   UNL     1      -9.253  51.360  45.865  0.00  0.00    +0.000 A 
ATOM     30  C   UNL     1     -10.994  52.645  44.112  0.00  0.00    +0.000 A 
ATOM     31  C   UNL     1      -9.155  51.136  44.489  0.00  0.00    +0.000 A 
ATOM     32  C   UNL     1     -10.020  51.785  43.613  0.00  0.00    +0.000 A 
ENDBRANCH  26  27
ENDBRANCH   5  26
TORSDOF 5
ENDMDL
MODEL 3
REMARK VINA RESULT:      -8.5      3.416      5.834
REMARK  Name = 
REMARK  7 active torsions:
REMARK  status: ('A' for Active; 'I' for Inactive)
REMARK    1  A    between atoms: C_6  and  C_10
REMARK    2  A    between atoms: N_17  and  C_20
REMARK    3  A    between atoms: C_19  and  C_21
REMARK    4  A    between atoms: C_20  and  C_22
REMARK    5  A    between atoms: C_21  and  C_23
REMARK    6  A    between atoms: C_21  and  C_24
REMARK    7  A    between atoms: C_23  and  C_27
REMARK                            x       y       z     vdW  Elec       q    Type
REMARK                         _______ _______ _______ _____ _____    ______ ____
ROOT
ATOM      1  C   UNL     1      -9.462  54.911  50.070  0.00  0.00    +0.000 C 
ATOM      2  C   UNL     1     -10.616  54.633  50.930  0.00  0.00    +0.000 C 
ATOM      3  C   UNL     1      -9.975  55.249  48.881  0.00  0.00    +0.000 C 
ATOM      4  O   UNL     1     -10.518  54.122  52.036  0.00  0.00    +0.000 OA
ATOM      5  N   UNL     1     -11.761  55.017  50.260  0.00  0.00    +0.000 N 
ATOM      6  O   UNL     1      -9.239  55.500  47.748  0.00  0.00    +0.000 OA
ATOM      7  C   UNL     1     -11.500  55.313  48.846  0.00  0.00    +0.000 C 
ENDROOT
BRANCH   1  13
ATOM      8  S   UNL     1      -5.632  54.171  49.968  0.00  0.00    +0.000 S 
ATOM      9  O   UNL     1      -4.981  55.276  49.294  0.00  0.00    +0.000 OA
ATOM     10  O   UNL     1      -5.201  52.808  49.727  0.00  0.00    +0.000 OA
ATOM     11  N   UNL     1      -7.224  54.246  49.640  0.00  0.00    +0.000 N 
ATOM     12  C   UNL     1      -5.413  54.456  51.688  0.00  0.00    +0.000 A 
ATOM     13  C   UNL     1      -8.042  54.763  50.507  0.00  0.00    +0.000 C 
ATOM     14  C   UNL     1      -6.495  54.954  52.398  0.00  0.00    +0.000 A 
ATOM     15  C   UNL     1      -4.185  54.186  52.299  0.00  0.00    +0.000 A 
ATOM     16  N   UNL     1      -7.715  55.191  51.774  0.00  0.00    +0.000 N 
ATOM     17  C   UNL     1      -6.336  55.189  53.768  0.00  0.00    +0.000 A 
ATOM     18  C   UNL     1      -4.041  54.420  53.665  0.00  0.00    +0.000 A 
ATOM     19  C   UNL     1      -5.118  54.919  54.399  0.00  0.00    +0.000 A 
ATOM     20  H   UNL     1      -7.567  53.901  48.785  0.00  0.00    +0.000 HD
ATOM     21  H   UNL     1      -8.393  55.702  52.272  0.00  0.00    +0.000 HD
ENDBRANCH   1  13
BRANCH   7  22
ATOM     22  C   UNL     1     -12.069  56.672  48.321  0.00  0.00    +0.000 C 
ATOM     23  C   UNL     1     -13.487  56.521  47.737  0.00  0.00    +0.000 C 
BRANCH  22  24
ATOM     24  C   UNL     1     -12.115  57.826  49.353  0.00  0.00    +0.000 C 
ATOM     25  C   UNL     1     -13.349  58.719  49.287  0.00  0.00    +0.000 C 
ENDBRANCH  22  24
ENDBRANCH   7  22
BRANCH   5  26
ATOM     26  C   UNL     1     -13.057  54.645  50.802  0.00  0.00    +0.000 C 
BRANCH  26  27
ATOM     27  C   UNL     1     -13.852  55.796  51.395  0.00  0.00    +0.000 A 
ATOM     28  C   UNL     1     -15.171  56.104  51.025  0.00  0.00    +0.000 A 
ATOM     29  C   UNL     1     -13.238  56.592  52.378  0.00  0.00    +0.000 A 
ATOM     30  C   UNL     1     -15.864  57.153  51.638  0.00  0.00    +0.000 A 
ATOM     31  C   UNL     1     -13.932  57.637  52.993  0.00  0.00    +0.000 A 
ATOM     32  C   UNL     1     -15.247  57.912  52.629  0.00  0.00    +0.000 A 
ENDBRANCH  26  27
ENDBRANCH   5  26
TORSDOF 5
ENDMDL
MODEL 4
REMARK VINA RESULT:      -8.4      2.778      8.183
REMARK  Name = 
REMARK  7 active torsions:
REMARK  status: ('A' for Active; 'I' for Inactive)
REMARK    1  A    between atoms: C_6  and  C_10
REMARK    2  A    between atoms: N_17  and  C_20
REMARK    3  A    between atoms: C_19  and  C_21
REMARK    4  A    between atoms: C_20  and  C_22
REMARK    5  A    between atoms: C_21  and  C_23
REMARK    6  A    between atoms: C_21  and  C_24
REMARK    7  A    between atoms: C_23  and  C_27
REMARK                            x       y       z     vdW  Elec       q    Type
REMARK                         _______ _______ _______ _____ _____    ______ ____
ROOT
ATOM      1  C   UNL     1     -11.148  55.107  49.134  0.00  0.00    +0.000 C 
ATOM      2  C   UNL     1     -11.345  53.852  48.402  0.00  0.00    +0.000 C 
ATOM      3  C   UNL     1      -9.823  55.242  49.262  0.00  0.00    +0.000 C 
ATOM      4  O   UNL     1     -12.439  53.323  48.264  0.00  0.00    +0.000 OA
ATOM      5  N   UNL     1     -10.115  53.408  47.959  0.00  0.00    +0.000 N 
ATOM      6  O   UNL     1      -9.198  56.240  49.970  0.00  0.00    +0.000 OA
ATOM      7  C   UNL     1      -9.007  54.153  48.569  0.00  0.00    +0.000 C 
ENDROOT
BRANCH   1  13
ATOM      8  S   UNL     1     -14.493  56.174  50.837  0.00  0.00    +0.000 S 
ATOM      9  O   UNL     1     -14.300  56.124  52.271  0.00  0.00    +0.000 OA
ATOM     10  O   UNL     1     -15.739  55.725  50.247  0.00  0.00    +0.000 OA
ATOM     11  N   UNL     1     -13.289  55.335  50.135  0.00  0.00    +0.000 N 
ATOM     12  C   UNL     1     -14.319  57.864  50.384  0.00  0.00    +0.000 A 
ATOM     13  C   UNL     1     -12.263  55.961  49.640  0.00  0.00    +0.000 C 
ATOM     14  C   UNL     1     -13.123  58.250  49.797  0.00  0.00    +0.000 A 
ATOM     15  C   UNL     1     -15.358  58.769  50.619  0.00  0.00    +0.000 A 
ATOM     16  N   UNL     1     -12.113  57.327  49.551  0.00  0.00    +0.000 N 
ATOM     17  C   UNL     1     -12.969  59.593  49.434  0.00  0.00    +0.000 A 
ATOM     18  C   UNL     1     -15.193  60.102  50.249  0.00  0.00    +0.000 A 
ATOM     19  C   UNL     1     -13.999  60.512  49.654  0.00  0.00    +0.000 A 
ATOM     20  H   UNL     1     -13.336  54.353  50.087  0.00  0.00    +0.000 HD
ATOM     21  H   UNL     1     -11.228  57.674  49.297  0.00  0.00    +0.000 HD
ENDBRANCH   1  13
BRANCH   7  22
ATOM     22  C   UNL     1      -7.928  54.700  47.577  0.00  0.00    +0.000 C 
ATOM     23  C   UNL     1      -6.842  53.652  47.266  0.00  0.00    +0.000 C 
BRANCH  22  24
ATOM     24  C   UNL     1      -8.465  55.225  46.222  0.00  0.00    +0.000 C 
ATOM     25  C   UNL     1      -7.627  54.869  45.000  0.00  0.00    +0.000 C 
ENDBRANCH  22  24
ENDBRANCH   7  22
BRANCH   5  26
ATOM     26  C   UNL     1     -10.004  52.073  47.396  0.00  0.00    +0.000 C 
BRANCH  26  27
ATOM     27  C   UNL     1      -9.842  52.030  45.887  0.00  0.00    +0.000 A 
ATOM     28  C   UNL     1     -10.704  52.684  44.992  0.00  0.00    +0.000 A 
ATOM     29  C   UNL     1      -8.762  51.306  45.354  0.00  0.00    +0.000 A 
ATOM     30  C   UNL     1     -10.477  52.641  43.613  0.00  0.00    +0.000 A 
ATOM     31  C   UNL     1      -8.534  51.266  43.976  0.00  0.00    +0.000 A 
ATOM     32  C   UNL     1      -9.386  51.940  43.107  0.00  0.00    +0.000 A 
ENDBRANCH  26  27
ENDBRANCH   5  26
TORSDOF 5
ENDMDL
MODEL 5
REMARK VINA RESULT:      -8.3      3.754      6.099
REMARK  Name = 
REMARK  7 active torsions:
REMARK  status: ('A' for Active; 'I' for Inactive)
REMARK    1  A    between atoms: C_6  and  C_10
REMARK    2  A    between atoms: N_17  and  C_20
REMARK    3  A    between atoms: C_19  and  C_21
REMARK    4  A    between atoms: C_20  and  C_22
REMARK    5  A    between atoms: C_21  and  C_23
REMARK    6  A    between atoms: C_21  and  C_24
REMARK    7  A    between atoms: C_23  and  C_27
REMARK                            x       y       z     vdW  Elec       q    Type
REMARK                         _______ _______ _______ _____ _____    ______ ____
ROOT
ATOM      1  C   UNL     1     -10.223  54.251  50.700  0.00  0.00    +0.000 C 
ATOM      2  C   UNL     1     -11.390  55.009  51.163  0.00  0.00    +0.000 C 
ATOM      3  C   UNL     1     -10.601  53.678  49.552  0.00  0.00    +0.000 C 
ATOM      4  O   UNL     1     -11.462  55.514  52.274  0.00  0.00    +0.000 OA
ATOM      5  N   UNL     1     -12.337  55.006  50.158  0.00  0.00    +0.000 N 
ATOM      6  O   UNL     1      -9.839  52.797  48.823  0.00  0.00    +0.000 OA
ATOM      7  C   UNL     1     -12.008  54.053  49.092  0.00  0.00    +0.000 C 
ENDROOT
BRANCH   1  13
ATOM      8  S   UNL     1      -7.691  54.141  53.668  0.00  0.00    +0.000 S 
ATOM      9  O   UNL     1      -7.792  52.839  54.294  0.00  0.00    +0.000 OA
ATOM     10  O   UNL     1      -7.526  55.333  54.476  0.00  0.00    +0.000 OA
ATOM     11  N   UNL     1      -9.007  54.358  52.737  0.00  0.00    +0.000 N 
ATOM     12  C   UNL     1      -6.284  54.065  52.616  0.00  0.00    +0.000 A 
ATOM     13  C   UNL     1      -8.938  54.156  51.456  0.00  0.00    +0.000 C 
ATOM     14  C   UNL     1      -6.508  53.913  51.256  0.00  0.00    +0.000 A 
ATOM     15  C   UNL     1      -4.996  54.153  53.152  0.00  0.00    +0.000 A 
ATOM     16  N   UNL     1      -7.799  53.853  50.744  0.00  0.00    +0.000 N 
ATOM     17  C   UNL     1      -5.398  53.848  50.407  0.00  0.00    +0.000 A 
ATOM     18  C   UNL     1      -3.899  54.091  52.295  0.00  0.00    +0.000 A 
ATOM     19  C   UNL     1      -4.101  53.941  50.923  0.00  0.00    +0.000 A 
ATOM     20  H   UNL     1      -9.857  54.643  53.145  0.00  0.00    +0.000 HD
ATOM     21  H   UNL     1      -7.907  53.574  49.806  0.00  0.00    +0.000 HD
ENDBRANCH   1  13
BRANCH   7  22
ATOM     22  C   UNL     1     -12.072  54.615  47.634  0.00  0.00    +0.000 C 
ATOM     23  C   UNL     1     -11.001  55.693  47.380  0.00  0.00    +0.000 C 
BRANCH  22  24
ATOM     24  C   UNL     1     -11.946  53.565  46.502  0.00  0.00    +0.000 C 
ATOM     25  C   UNL     1     -10.845  53.827  45.480  0.00  0.00    +0.000 C 
ENDBRANCH  22  24
ENDBRANCH   7  22
BRANCH   5  26
ATOM     26  C   UNL     1     -13.674  55.499  50.443  0.00  0.00    +0.000 C 
BRANCH  26  27
ATOM     27  C   UNL     1     -13.819  57.011  50.388  0.00  0.00    +0.000 A 
ATOM     28  C   UNL     1     -13.180  57.820  49.434  0.00  0.00    +0.000 A 
ATOM     29  C   UNL     1     -14.648  57.634  51.336  0.00  0.00    +0.000 A 
ATOM     30  C   UNL     1     -13.388  59.202  49.410  0.00  0.00    +0.000 A 
ATOM     31  C   UNL     1     -14.857  59.015  51.309  0.00  0.00    +0.000 A 
ATOM     32  C   UNL     1     -14.234  59.798  50.341  0.00  0.00    +0.000 A 
ENDBRANCH  26  27
ENDBRANCH   5  26
TORSDOF 5
ENDMDL
MODEL 6
REMARK VINA RESULT:      -8.3      3.328      6.092
REMARK  Name = 
REMARK  7 active torsions:
REMARK  status: ('A' for Active; 'I' for Inactive)
REMARK    1  A    between atoms: C_6  and  C_10
REMARK    2  A    between atoms: N_17  and  C_20
REMARK    3  A    between atoms: C_19  and  C_21
REMARK    4  A    between atoms: C_20  and  C_22
REMARK    5  A    between atoms: C_21  and  C_23
REMARK    6  A    between atoms: C_21  and  C_24
REMARK    7  A    between atoms: C_23  and  C_27
REMARK                            x       y       z     vdW  Elec       q    Type
REMARK                         _______ _______ _______ _____ _____    ______ ____
ROOT
ATOM      1  C   UNL     1      -9.622  54.326  50.131  0.00  0.00    +0.000 C 
ATOM      2  C   UNL     1     -10.745  54.998  50.793  0.00  0.00    +0.000 C 
ATOM      3  C   UNL     1     -10.157  53.682  49.087  0.00  0.00    +0.000 C 
ATOM      4  O   UNL     1     -10.651  55.534  51.887  0.00  0.00    +0.000 OA
ATOM      5  N   UNL     1     -11.860  54.879  49.987  0.00  0.00    +0.000 N 
ATOM      6  O   UNL     1      -9.469  52.843  48.243  0.00  0.00    +0.000 OA
ATOM      7  C   UNL     1     -11.653  53.919  48.896  0.00  0.00    +0.000 C 
ENDROOT
BRANCH   1  13
ATOM      8  S   UNL     1      -5.725  54.128  50.188  0.00  0.00    +0.000 S 
ATOM      9  O   UNL     1      -5.208  55.328  49.565  0.00  0.00    +0.000 OA
ATOM     10  O   UNL     1      -5.098  52.844  49.943  0.00  0.00    +0.000 OA
ATOM     11  N   UNL     1      -7.297  53.989  49.791  0.00  0.00    +0.000 N 
ATOM     12  C   UNL     1      -5.622  54.399  51.922  0.00  0.00    +0.000 A 
ATOM     13  C   UNL     1      -8.215  54.366  50.629  0.00  0.00    +0.000 C 
ATOM     14  C   UNL     1      -6.792  54.725  52.591  0.00  0.00    +0.000 A 
ATOM     15  C   UNL     1      -4.395  54.287  52.583  0.00  0.00    +0.000 A 
ATOM     16  N   UNL     1      -8.005  54.805  51.917  0.00  0.00    +0.000 N 
ATOM     17  C   UNL     1      -6.725  54.946  53.971  0.00  0.00    +0.000 A 
ATOM     18  C   UNL     1      -4.343  54.506  53.958  0.00  0.00    +0.000 A 
ATOM     19  C   UNL     1      -5.509  54.833  54.651  0.00  0.00    +0.000 A 
ATOM     20  H   UNL     1      -7.552  53.620  48.915  0.00  0.00    +0.000 HD
ATOM     21  H   UNL     1      -8.768  55.205  52.393  0.00  0.00    +0.000 HD
ENDBRANCH   1  13
BRANCH   7  22
ATOM     22  C   UNL     1     -12.041  54.422  47.466  0.00  0.00    +0.000 C 
ATOM     23  C   UNL     1     -11.179  55.618  47.018  0.00  0.00    +0.000 C 
BRANCH  22  24
ATOM     24  C   UNL     1     -11.977  53.360  46.340  0.00  0.00    +0.000 C 
ATOM     25  C   UNL     1     -11.125  53.732  45.131  0.00  0.00    +0.000 C 
ENDBRANCH  22  24
ENDBRANCH   7  22
BRANCH   5  26
ATOM     26  C   UNL     1     -13.158  55.267  50.512  0.00  0.00    +0.000 C 
BRANCH  26  27
ATOM     27  C   UNL     1     -13.432  56.762  50.490  0.00  0.00    +0.000 A 
ATOM     28  C   UNL     1     -13.114  57.595  49.406  0.00  0.00    +0.000 A 
ATOM     29  C   UNL     1     -14.048  57.341  51.612  0.00  0.00    +0.000 A 
ATOM     30  C   UNL     1     -13.430  58.957  49.430  0.00  0.00    +0.000 A 
ATOM     31  C   UNL     1     -14.366  58.702  51.634  0.00  0.00    +0.000 A 
ATOM     32  C   UNL     1     -14.064  59.508  50.540  0.00  0.00    +0.000 A 
ENDBRANCH  26  27
ENDBRANCH   5  26
TORSDOF 5
ENDMDL
MODEL 7
REMARK VINA RESULT:      -8.2      3.156      6.393
REMARK  Name = 
REMARK  7 active torsions:
REMARK  status: ('A' for Active; 'I' for Inactive)
REMARK    1  A    between atoms: C_6  and  C_10
REMARK    2  A    between atoms: N_17  and  C_20
REMARK    3  A    between atoms: C_19  and  C_21
REMARK    4  A    between atoms: C_20  and  C_22
REMARK    5  A    between atoms: C_21  and  C_23
REMARK    6  A    between atoms: C_21  and  C_24
REMARK    7  A    between atoms: C_23  and  C_27
REMARK                            x       y       z     vdW  Elec       q    Type
REMARK                         _______ _______ _______ _____ _____    ______ ____
ROOT
ATOM      1  C   UNL     1     -10.701  54.202  50.786  0.00  0.00    +0.000 C 
ATOM      2  C   UNL     1     -11.886  55.014  51.081  0.00  0.00    +0.000 C 
ATOM      3  C   UNL     1     -10.906  53.701  49.563  0.00  0.00    +0.000 C 
ATOM      4  O   UNL     1     -12.121  55.477  52.187  0.00  0.00    +0.000 OA
ATOM      5  N   UNL     1     -12.643  55.112  49.930  0.00  0.00    +0.000 N 
ATOM      6  O   UNL     1     -10.079  52.803  48.931  0.00  0.00    +0.000 OA
ATOM      7  C   UNL     1     -12.188  54.183  48.888  0.00  0.00    +0.000 C 
ENDROOT
BRANCH   1  13
ATOM      8  S   UNL     1      -7.297  54.683  52.633  0.00  0.00    +0.000 S 
ATOM      9  O   UNL     1      -7.427  55.820  53.520  0.00  0.00    +0.000 OA
ATOM     10  O   UNL     1      -6.073  54.471  51.886  0.00  0.00    +0.000 OA
ATOM     11  N   UNL     1      -8.522  54.734  51.563  0.00  0.00    +0.000 N 
ATOM     12  C   UNL     1      -7.510  53.257  53.639  0.00  0.00    +0.000 A 
ATOM     13  C   UNL     1      -9.574  53.995  51.744  0.00  0.00    +0.000 C 
ATOM     14  C   UNL     1      -8.734  52.608  53.581  0.00  0.00    +0.000 A 
ATOM     15  C   UNL     1      -6.471  52.812  54.463  0.00  0.00    +0.000 A 
ATOM     16  N   UNL     1      -9.743  53.055  52.735  0.00  0.00    +0.000 N 
ATOM     17  C   UNL     1      -8.919  51.473  54.378  0.00  0.00    +0.000 A 
ATOM     18  C   UNL     1      -6.667  51.679  55.249  0.00  0.00    +0.000 A 
ATOM     19  C   UNL     1      -7.890  51.008  55.204  0.00  0.00    +0.000 A 
ATOM     20  H   UNL     1      -8.465  55.327  50.779  0.00  0.00    +0.000 HD
ATOM     21  H   UNL     1     -10.643  52.673  52.854  0.00  0.00    +0.000 HD
ENDBRANCH   1  13
BRANCH   7  22
ATOM     22  C   UNL     1     -11.967  54.807  47.471  0.00  0.00    +0.000 C 
ATOM     23  C   UNL     1     -10.719  55.708  47.423  0.00  0.00    +0.000 C 
BRANCH  22  24
ATOM     24  C   UNL     1     -11.852  53.796  46.303  0.00  0.00    +0.000 C 
ATOM     25  C   UNL     1     -10.538  53.829  45.531  0.00  0.00    +0.000 C 
ENDBRANCH  22  24
ENDBRANCH   7  22
BRANCH   5  26
ATOM     26  C   UNL     1     -13.980  55.678  50.007  0.00  0.00    +0.000 C 
BRANCH  26  27
ATOM     27  C   UNL     1     -14.025  57.195  50.083  0.00  0.00    +0.000 A 
ATOM     28  C   UNL     1     -13.168  58.036  49.355  0.00  0.00    +0.000 A 
ATOM     29  C   UNL     1     -14.983  57.791  50.920  0.00  0.00    +0.000 A 
ATOM     30  C   UNL     1     -13.288  59.427  49.436  0.00  0.00    +0.000 A 
ATOM     31  C   UNL     1     -15.103  59.180  50.998  0.00  0.00    +0.000 A 
ATOM     32  C   UNL     1     -14.261  59.998  50.250  0.00  0.00    +0.000 A 
ENDBRANCH  26  27
ENDBRANCH   5  26
TORSDOF 5
ENDMDL
MODEL 8
REMARK VINA RESULT:      -8.1      4.219      7.935
REMARK  Name = 
REMARK  7 active torsions:
REMARK  status: ('A' for Active; 'I' for Inactive)
REMARK    1  A    between atoms: C_6  and  C_10
REMARK    2  A    between atoms: N_17  and  C_20
REMARK    3  A    between atoms: C_19  and  C_21
REMARK    4  A    between atoms: C_20  and  C_22
REMARK    5  A    between atoms: C_21  and  C_23
REMARK    6  A    between atoms: C_21  and  C_24
REMARK    7  A    between atoms: C_23  and  C_27
REMARK                            x       y       z     vdW  Elec       q    Type
REMARK                         _______ _______ _______ _____ _____    ______ ____
ROOT
ATOM      1  C   UNL     1     -10.932  54.850  50.671  0.00  0.00    +0.000 C 
ATOM      2  C   UNL     1      -9.515  55.225  50.625  0.00  0.00    +0.000 C 
ATOM      3  C   UNL     1     -10.946  53.513  50.717  0.00  0.00    +0.000 C 
ATOM      4  O   UNL     1      -9.133  56.363  50.396  0.00  0.00    +0.000 OA
ATOM      5  N   UNL     1      -8.758  54.093  50.849  0.00  0.00    +0.000 N 
ATOM      6  O   UNL     1     -12.079  52.735  50.677  0.00  0.00    +0.000 OA
ATOM      7  C   UNL     1      -9.564  52.868  50.791  0.00  0.00    +0.000 C 
ENDROOT
BRANCH   1  13
ATOM      8  S   UNL     1     -13.606  57.316  49.257  0.00  0.00    +0.000 S 
ATOM      9  O   UNL     1     -14.676  56.531  48.680  0.00  0.00    +0.000 OA
ATOM     10  O   UNL     1     -13.147  58.527  48.603  0.00  0.00    +0.000 OA
ATOM     11  N   UNL     1     -12.314  56.345  49.450  0.00  0.00    +0.000 N 
ATOM     12  C   UNL     1     -14.166  57.803  50.850  0.00  0.00    +0.000 A 
ATOM     13  C   UNL     1     -12.057  55.830  50.615  0.00  0.00    +0.000 C 
ATOM     14  C   UNL     1     -13.664  57.116  51.945  0.00  0.00    +0.000 A 
ATOM     15  C   UNL     1     -15.088  58.846  50.987  0.00  0.00    +0.000 A 
ATOM     16  N   UNL     1     -12.729  56.099  51.786  0.00  0.00    +0.000 N 
ATOM     17  C   UNL     1     -14.104  57.491  53.219  0.00  0.00    +0.000 A 
ATOM     18  C   UNL     1     -15.514  59.212  52.261  0.00  0.00    +0.000 A 
ATOM     19  C   UNL     1     -15.020  58.535  53.377  0.00  0.00    +0.000 A 
ATOM     20  H   UNL     1     -11.729  56.147  48.684  0.00  0.00    +0.000 HD
ATOM     21  H   UNL     1     -12.534  55.530  52.566  0.00  0.00    +0.000 HD
ENDBRANCH   1  13
BRANCH   7  22
ATOM     22  C   UNL     1      -9.386  51.879  51.990  0.00  0.00    +0.000 C 
ATOM     23  C   UNL     1      -8.182  50.937  51.791  0.00  0.00    +0.000 C 
BRANCH  22  24
ATOM     24  C   UNL     1      -9.233  52.534  53.385  0.00  0.00    +0.000 C 
ATOM     25  C   UNL     1      -8.128  51.960  54.264  0.00  0.00    +0.000 C 
ENDBRANCH  22  24
ENDBRANCH   7  22
BRANCH   5  26
ATOM     26  C   UNL     1      -7.321  54.149  50.638  0.00  0.00    +0.000 C 
BRANCH  26  27
ATOM     27  C   UNL     1      -6.497  54.309  51.904  0.00  0.00    +0.000 A 
ATOM     28  C   UNL     1      -6.777  55.258  52.900  0.00  0.00    +0.000 A 
ATOM     29  C   UNL     1      -5.399  53.454  52.096  0.00  0.00    +0.000 A 
ATOM     30  C   UNL     1      -6.005  55.329  54.064  0.00  0.00    +0.000 A 
ATOM     31  C   UNL     1      -4.630  53.522  53.260  0.00  0.00    +0.000 A 
ATOM     32  C   UNL     1      -4.938  54.454  54.247  0.00  0.00    +0.000 A 
ENDBRANCH  26  27
ENDBRANCH   5  26
TORSDOF 5
ENDMDL
MODEL 9
REMARK VINA RESULT:      -8.1      3.177      7.863
REMARK  Name = 
REMARK  7 active torsions:
REMARK  status: ('A' for Active; 'I' for Inactive)
REMARK    1  A    between atoms: C_6  and  C_10
REMARK    2  A    between atoms: N_17  and  C_20
REMARK    3  A    between atoms: C_19  and  C_21
REMARK    4  A    between atoms: C_20  and  C_22
REMARK    5  A    between atoms: C_21  and  C_23
REMARK    6  A    between atoms: C_21  and  C_24
REMARK    7  A    between atoms: C_23  and  C_27
REMARK                            x       y       z     vdW  Elec       q    Type
REMARK                         _______ _______ _______ _____ _____    ______ ____
ROOT
ATOM      1  C   UNL     1     -12.136  54.603  50.068  0.00  0.00    +0.000 C 
ATOM      2  C   UNL     1     -11.914  54.270  48.658  0.00  0.00    +0.000 C 
ATOM      3  C   UNL     1     -11.559  53.617  50.764  0.00  0.00    +0.000 C 
ATOM      4  O   UNL     1     -12.460  54.861  47.738  0.00  0.00    +0.000 OA
ATOM      5  N   UNL     1     -11.040  53.203  48.595  0.00  0.00    +0.000 N 
ATOM      6  O   UNL     1     -11.610  53.482  52.130  0.00  0.00    +0.000 OA
ATOM      7  C   UNL     1     -10.830  52.582  49.909  0.00  0.00    +0.000 C 
ENDROOT
BRANCH   1  13
ATOM      8  S   UNL     1     -14.372  56.913  52.281  0.00  0.00    +0.000 S 
ATOM      9  O   UNL     1     -13.561  57.406  53.374  0.00  0.00    +0.000 OA
ATOM     10  O   UNL     1     -15.751  56.524  52.507  0.00  0.00    +0.000 OA
ATOM     11  N   UNL     1     -13.607  55.639  51.618  0.00  0.00    +0.000 N 
ATOM     12  C   UNL     1     -14.418  58.205  51.090  0.00  0.00    +0.000 A 
ATOM     13  C   UNL     1     -12.909  55.793  50.532  0.00  0.00    +0.000 C 
ATOM     14  C   UNL     1     -13.609  58.074  49.971  0.00  0.00    +0.000 A 
ATOM     15  C   UNL     1     -15.243  59.316  51.284  0.00  0.00    +0.000 A 
ATOM     16  N   UNL     1     -12.814  56.948  49.788  0.00  0.00    +0.000 N 
ATOM     17  C   UNL     1     -13.632  59.096  49.016  0.00  0.00    +0.000 A 
ATOM     18  C   UNL     1     -15.260  60.324  50.323  0.00  0.00    +0.000 A 
ATOM     19  C   UNL     1     -14.456  60.212  49.188  0.00  0.00    +0.000 A 
ATOM     20  H   UNL     1     -13.671  54.752  52.039  0.00  0.00    +0.000 HD
ATOM     21  H   UNL     1     -12.135  56.977  49.076  0.00  0.00    +0.000 HD
ENDBRANCH   1  13
BRANCH   7  22
ATOM     22  C   UNL     1      -9.340  52.351  50.321  0.00  0.00    +0.000 C 
ATOM     23  C   UNL     1      -8.722  51.135  49.605  0.00  0.00    +0.000 C 
BRANCH  22  24
ATOM     24  C   UNL     1      -8.386  53.551  50.098  0.00  0.00    +0.000 C 
ATOM     25  C   UNL     1      -8.025  54.346  51.348  0.00  0.00    +0.000 C 
ENDBRANCH  22  24
ENDBRANCH   7  22
BRANCH   5  26
ATOM     26  C   UNL     1     -10.826  52.537  47.321  0.00  0.00    +0.000 C 
BRANCH  26  27
ATOM     27  C   UNL     1      -9.827  53.222  46.405  0.00  0.00    +0.000 A 
ATOM     28  C   UNL     1      -9.077  54.349  46.775  0.00  0.00    +0.000 A 
ATOM     29  C   UNL     1      -9.634  52.693  45.117  0.00  0.00    +0.000 A 
ATOM     30  C   UNL     1      -8.141  54.910  45.899  0.00  0.00    +0.000 A 
ATOM     31  C   UNL     1      -8.698  53.252  44.244  0.00  0.00    +0.000 A 
ATOM     32  C   UNL     1      -7.946  54.355  44.638  0.00  0.00    +0.000 A 
ENDBRANCH  26  27
ENDBRANCH   5  26
TORSDOF 5
ENDMDL
