MODEL 1
REMARK VINA RESULT:      -8.0      0.000      0.000
REMARK  Name = 
REMARK  7 active torsions:
REMARK  status: ('A' for Active; 'I' for Inactive)
REMARK    1  A    between atoms: C_6  and  C_10
REMARK    2  A    between atoms: N_17  and  C_20
REMARK    3  A    between atoms: C_19  and  C_21
REMARK    4  A    between atoms: C_20  and  C_22
REMARK    5  A    between atoms: C_21  and  C_23
REMARK    6  A    between atoms: C_21  and  C_24
REMARK    7  A    between atoms: C_21  and  C_25
REMARK                            x       y       z     vdW  Elec       q    Type
REMARK                         _______ _______ _______ _____ _____    ______ ____
ROOT
ATOM      1  C   UNL     1     -11.475  55.783  48.944  0.00  0.00    +0.000 C 
ATOM      2  C   UNL     1     -10.586  54.916  49.721  0.00  0.00    +0.000 C 
ATOM      3  C   UNL     1     -11.262  55.460  47.662  0.00  0.00    +0.000 C 
ATOM      4  O   UNL     1     -10.411  55.041  50.924  0.00  0.00    +0.000 OA
ATOM      5  N   UNL     1     -10.033  53.982  48.869  0.00  0.00    +0.000 N 
ATOM      6  O   UNL     1     -11.839  56.090  46.588  0.00  0.00    +0.000 OA
ATOM      7  C   UNL     1     -10.317  54.281  47.459  0.00  0.00    +0.000 C 
ENDROOT
BRANCH   1  13
ATOM      8  S   UNL     1     -13.482  59.087  49.420  0.00  0.00    +0.000 S 
ATOM      9  O   UNL     1     -14.580  59.100  48.475  0.00  0.00    +0.000 OA
ATOM     10  O   UNL     1     -12.734  60.297  49.691  0.00  0.00    +0.000 OA
ATOM     11  N   UNL     1     -12.422  57.949  48.945  0.00  0.00    +0.000 N 
ATOM     12  C   UNL     1     -14.170  58.582  50.956  0.00  0.00    +0.000 A 
ATOM     13  C   UNL     1     -12.396  56.792  49.534  0.00  0.00    +0.000 C 
ATOM     14  C   UNL     1     -13.931  57.283  51.376  0.00  0.00    +0.000 A 
ATOM     15  C   UNL     1     -14.930  59.481  51.712  0.00  0.00    +0.000 A 
ATOM     16  N   UNL     1     -13.150  56.415  50.622  0.00  0.00    +0.000 N 
ATOM     17  C   UNL     1     -14.482  56.871  52.594  0.00  0.00    +0.000 A 
ATOM     18  C   UNL     1     -15.464  59.060  52.926  0.00  0.00    +0.000 A 
ATOM     19  C   UNL     1     -15.240  57.755  53.367  0.00  0.00    +0.000 A 
ATOM     20  H   UNL     1     -11.798  58.139  48.208  0.00  0.00    +0.000 HD
ATOM     21  H   UNL     1     -13.135  55.466  50.883  0.00  0.00    +0.000 HD
ENDBRANCH   1  13
BRANCH   7  22
ATOM     22  C   UNL     1     -10.901  53.093  46.604  0.00  0.00    +0.000 C 
ATOM     23  C   UNL     1     -11.349  53.575  45.201  0.00  0.00    +0.000 C 
ATOM     24  C   UNL     1      -9.837  52.012  46.326  0.00  0.00    +0.000 C 
ATOM     25  C   UNL     1     -12.110  52.436  47.296  0.00  0.00    +0.000 C 
ENDBRANCH   7  22
BRANCH   5  26
ATOM     26  C   UNL     1      -8.993  53.077  49.350  0.00  0.00    +0.000 C 
BRANCH  26  27
ATOM     27  C   UNL     1      -7.570  53.601  49.216  0.00  0.00    +0.000 A 
ATOM     28  N   UNL     1      -7.116  54.378  50.233  0.00  0.00    +0.000 NA
ATOM     29  C   UNL     1      -6.748  53.265  48.137  0.00  0.00    +0.000 A 
ATOM     30  C   UNL     1      -5.845  54.829  50.162  0.00  0.00    +0.000 A 
ATOM     31  C   UNL     1      -5.442  53.748  48.089  0.00  0.00    +0.000 A 
ATOM     32  C   UNL     1      -4.977  54.546  49.123  0.00  0.00    +0.000 A 
ENDBRANCH  26  27
ENDBRANCH   5  26
TORSDOF 4
ENDMDL
MODEL 2
REMARK VINA RESULT:      -7.9      2.483      3.984
REMARK  Name = 
REMARK  7 active torsions:
REMARK  status: ('A' for Active; 'I' for Inactive)
REMARK    1  A    between atoms: C_6  and  C_10
REMARK    2  A    between atoms: N_17  and  C_20
REMARK    3  A    between atoms: C_19  and  C_21
REMARK    4  A    between atoms: C_20  and  C_22
REMARK    5  A    between atoms: C_21  and  C_23
REMARK    6  A    between atoms: C_21  and  C_24
REMARK    7  A    between atoms: C_21  and  C_25
REMARK                            x       y       z     vdW  Elec       q    Type
REMARK                         _______ _______ _______ _____ _____    ______ ____
ROOT
ATOM      1  C   UNL     1     -12.313  54.459  50.012  0.00  0.00    +0.000 C 
ATOM      2  C   UNL     1     -12.023  54.146  48.610  0.00  0.00    +0.000 C 
ATOM      3  C   UNL     1     -11.806  53.441  50.719  0.00  0.00    +0.000 C 
ATOM      4  O   UNL     1     -12.472  54.789  47.674  0.00  0.00    +0.000 OA
ATOM      5  N   UNL     1     -11.182  53.054  48.572  0.00  0.00    +0.000 N 
ATOM      6  O   UNL     1     -11.926  53.294  52.079  0.00  0.00    +0.000 OA
ATOM      7  C   UNL     1     -11.030  52.424  49.890  0.00  0.00    +0.000 C 
ENDROOT
BRANCH   1  13
ATOM      8  S   UNL     1     -14.395  56.863  52.259  0.00  0.00    +0.000 S 
ATOM      9  O   UNL     1     -13.549  57.339  53.334  0.00  0.00    +0.000 OA
ATOM     10  O   UNL     1     -15.779  56.520  52.513  0.00  0.00    +0.000 OA
ATOM     11  N   UNL     1     -13.680  55.565  51.592  0.00  0.00    +0.000 N 
ATOM     12  C   UNL     1     -14.422  58.147  51.059  0.00  0.00    +0.000 A 
ATOM     13  C   UNL     1     -13.032  55.677  50.473  0.00  0.00    +0.000 C 
ATOM     14  C   UNL     1     -13.665  57.974  49.911  0.00  0.00    +0.000 A 
ATOM     15  C   UNL     1     -15.190  59.295  51.279  0.00  0.00    +0.000 A 
ATOM     16  N   UNL     1     -12.931  56.813  49.701  0.00  0.00    +0.000 N 
ATOM     17  C   UNL     1     -13.676  58.995  48.954  0.00  0.00    +0.000 A 
ATOM     18  C   UNL     1     -15.198  60.298  50.314  0.00  0.00    +0.000 A 
ATOM     19  C   UNL     1     -14.441  60.148  49.152  0.00  0.00    +0.000 A 
ATOM     20  H   UNL     1     -13.740  54.689  52.038  0.00  0.00    +0.000 HD
ATOM     21  H   UNL     1     -12.296  56.801  48.949  0.00  0.00    +0.000 HD
ENDBRANCH   1  13
BRANCH   7  22
ATOM     22  C   UNL     1      -9.551  52.160  50.366  0.00  0.00    +0.000 C 
ATOM     23  C   UNL     1      -9.519  51.423  51.728  0.00  0.00    +0.000 C 
ATOM     24  C   UNL     1      -8.797  51.226  49.397  0.00  0.00    +0.000 C 
ATOM     25  C   UNL     1      -8.758  53.472  50.510  0.00  0.00    +0.000 C 
ENDBRANCH   7  22
BRANCH   5  26
ATOM     26  C   UNL     1     -10.844  52.434  47.294  0.00  0.00    +0.000 C 
BRANCH  26  27
ATOM     27  C   UNL     1      -9.778  53.160  46.486  0.00  0.00    +0.000 A 
ATOM     28  N   UNL     1      -9.627  52.765  45.196  0.00  0.00    +0.000 NA
ATOM     29  C   UNL     1      -9.026  54.213  47.015  0.00  0.00    +0.000 A 
ATOM     30  C   UNL     1      -8.714  53.414  44.441  0.00  0.00    +0.000 A 
ATOM     31  C   UNL     1      -8.089  54.862  46.214  0.00  0.00    +0.000 A 
ATOM     32  C   UNL     1      -7.929  54.457  44.897  0.00  0.00    +0.000 A 
ENDBRANCH  26  27
ENDBRANCH   5  26
TORSDOF 4
ENDMDL
MODEL 3
REMARK VINA RESULT:      -7.7      1.340      2.201
REMARK  Name = 
REMARK  7 active torsions:
REMARK  status: ('A' for Active; 'I' for Inactive)
REMARK    1  A    between atoms: C_6  and  C_10
REMARK    2  A    between atoms: N_17  and  C_20
REMARK    3  A    between atoms: C_19  and  C_21
REMARK    4  A    between atoms: C_20  and  C_22
REMARK    5  A    between atoms: C_21  and  C_23
REMARK    6  A    between atoms: C_21  and  C_24
REMARK    7  A    between atoms: C_21  and  C_25
REMARK                            x       y       z     vdW  Elec       q    Type
REMARK                         _______ _______ _______ _____ _____    ______ ____
ROOT
ATOM      1  C   UNL     1     -11.455  55.903  48.865  0.00  0.00    +0.000 C 
ATOM      2  C   UNL     1     -10.446  55.136  49.598  0.00  0.00    +0.000 C 
ATOM      3  C   UNL     1     -11.336  55.525  47.587  0.00  0.00    +0.000 C 
ATOM      4  O   UNL     1     -10.173  55.337  50.772  0.00  0.00    +0.000 OA
ATOM      5  N   UNL     1      -9.912  54.192  48.746  0.00  0.00    +0.000 N 
ATOM      6  O   UNL     1     -12.045  56.059  46.540  0.00  0.00    +0.000 OA
ATOM      7  C   UNL     1     -10.338  54.395  47.355  0.00  0.00    +0.000 C 
ENDROOT
BRANCH   1  13
ATOM      8  S   UNL     1     -13.498  59.169  49.439  0.00  0.00    +0.000 S 
ATOM      9  O   UNL     1     -14.603  59.193  48.503  0.00  0.00    +0.000 OA
ATOM     10  O   UNL     1     -12.763  60.381  49.736  0.00  0.00    +0.000 OA
ATOM     11  N   UNL     1     -12.428  58.057  48.928  0.00  0.00    +0.000 N 
ATOM     12  C   UNL     1     -14.169  58.618  50.967  0.00  0.00    +0.000 A 
ATOM     13  C   UNL     1     -12.383  56.886  49.487  0.00  0.00    +0.000 C 
ATOM     14  C   UNL     1     -13.911  57.311  51.352  0.00  0.00    +0.000 A 
ATOM     15  C   UNL     1     -14.934  59.487  51.751  0.00  0.00    +0.000 A 
ATOM     16  N   UNL     1     -13.125  56.472  50.570  0.00  0.00    +0.000 N 
ATOM     17  C   UNL     1     -14.447  56.862  52.563  0.00  0.00    +0.000 A 
ATOM     18  C   UNL     1     -15.454  59.029  52.958  0.00  0.00    +0.000 A 
ATOM     19  C   UNL     1     -15.210  57.717  53.364  0.00  0.00    +0.000 A 
ATOM     20  H   UNL     1     -11.811  58.274  48.192  0.00  0.00    +0.000 HD
ATOM     21  H   UNL     1     -13.097  55.518  50.808  0.00  0.00    +0.000 HD
ENDBRANCH   1  13
BRANCH   7  22
ATOM     22  C   UNL     1     -10.917  53.130  46.616  0.00  0.00    +0.000 C 
ATOM     23  C   UNL     1     -11.319  53.463  45.158  0.00  0.00    +0.000 C 
ATOM     24  C   UNL     1      -9.863  52.011  46.487  0.00  0.00    +0.000 C 
ATOM     25  C   UNL     1     -12.154  52.567  47.340  0.00  0.00    +0.000 C 
ENDBRANCH   7  22
BRANCH   5  26
ATOM     26  C   UNL     1      -8.776  53.379  49.173  0.00  0.00    +0.000 C 
BRANCH  26  27
ATOM     27  C   UNL     1      -9.082  52.366  50.266  0.00  0.00    +0.000 A 
ATOM     28  N   UNL     1      -8.327  52.448  51.392  0.00  0.00    +0.000 NA
ATOM     29  C   UNL     1     -10.115  51.432  50.153  0.00  0.00    +0.000 A 
ATOM     30  C   UNL     1      -8.597  51.585  52.396  0.00  0.00    +0.000 A 
ATOM     31  C   UNL     1     -10.369  50.553  51.203  0.00  0.00    +0.000 A 
ATOM     32  C   UNL     1      -9.597  50.630  52.352  0.00  0.00    +0.000 A 
ENDBRANCH  26  27
ENDBRANCH   5  26
TORSDOF 4
ENDMDL
MODEL 4
REMARK VINA RESULT:      -7.6      2.701      3.484
REMARK  Name = 
REMARK  7 active torsions:
REMARK  status: ('A' for Active; 'I' for Inactive)
REMARK    1  A    between atoms: C_6  and  C_10
REMARK    2  A    between atoms: N_17  and  C_20
REMARK    3  A    between atoms: C_19  and  C_21
REMARK    4  A    between atoms: C_20  and  C_22
REMARK    5  A    between atoms: C_21  and  C_23
REMARK    6  A    between atoms: C_21  and  C_24
REMARK    7  A    between atoms: C_21  and  C_25
REMARK                            x       y       z     vdW  Elec       q    Type
REMARK                         _______ _______ _______ _____ _____    ______ ____
ROOT
ATOM      1  C   UNL     1     -10.842  54.702  51.289  0.00  0.00    +0.000 C 
ATOM      2  C   UNL     1     -10.205  54.438  52.581  0.00  0.00    +0.000 C 
ATOM      3  C   UNL     1     -10.258  53.865  50.422  0.00  0.00    +0.000 C 
ATOM      4  O   UNL     1     -10.393  55.126  53.573  0.00  0.00    +0.000 OA
ATOM      5  N   UNL     1      -9.413  53.316  52.456  0.00  0.00    +0.000 N 
ATOM      6  O   UNL     1     -10.505  53.834  49.072  0.00  0.00    +0.000 OA
ATOM      7  C   UNL     1      -9.276  52.886  51.058  0.00  0.00    +0.000 C 
ENDROOT
BRANCH   1  13
ATOM      8  S   UNL     1     -13.229  57.179  49.463  0.00  0.00    +0.000 S 
ATOM      9  O   UNL     1     -14.244  56.415  48.768  0.00  0.00    +0.000 OA
ATOM     10  O   UNL     1     -12.642  58.350  48.844  0.00  0.00    +0.000 OA
ATOM     11  N   UNL     1     -12.018  56.169  49.855  0.00  0.00    +0.000 N 
ATOM     12  C   UNL     1     -13.977  57.737  50.952  0.00  0.00    +0.000 A 
ATOM     13  C   UNL     1     -11.911  55.713  51.065  0.00  0.00    +0.000 C 
ATOM     14  C   UNL     1     -13.630  57.092  52.130  0.00  0.00    +0.000 A 
ATOM     15  C   UNL     1     -14.887  58.798  50.925  0.00  0.00    +0.000 A 
ATOM     16  N   UNL     1     -12.702  56.057  52.138  0.00  0.00    +0.000 N 
ATOM     17  C   UNL     1     -14.227  57.525  53.319  0.00  0.00    +0.000 A 
ATOM     18  C   UNL     1     -15.465  59.224  52.117  0.00  0.00    +0.000 A 
ATOM     19  C   UNL     1     -15.135  58.587  53.314  0.00  0.00    +0.000 A 
ATOM     20  H   UNL     1     -11.362  55.903  49.171  0.00  0.00    +0.000 HD
ATOM     21  H   UNL     1     -12.605  55.535  52.966  0.00  0.00    +0.000 HD
ENDBRANCH   1  13
BRANCH   7  22
ATOM     22  C   UNL     1      -9.565  51.364  50.770  0.00  0.00    +0.000 C 
ATOM     23  C   UNL     1      -8.591  50.446  51.551  0.00  0.00    +0.000 C 
ATOM     24  C   UNL     1     -10.970  50.948  51.254  0.00  0.00    +0.000 C 
ATOM     25  C   UNL     1      -9.438  51.036  49.271  0.00  0.00    +0.000 C 
ENDBRANCH   7  22
BRANCH   5  26
ATOM     26  C   UNL     1      -8.544  52.906  53.556  0.00  0.00    +0.000 C 
BRANCH  26  27
ATOM     27  C   UNL     1      -7.152  53.520  53.542  0.00  0.00    +0.000 A 
ATOM     28  N   UNL     1      -6.888  54.436  54.509  0.00  0.00    +0.000 NA
ATOM     29  C   UNL     1      -6.173  53.133  52.623  0.00  0.00    +0.000 A 
ATOM     30  C   UNL     1      -5.649  54.974  54.546  0.00  0.00    +0.000 A 
ATOM     31  C   UNL     1      -4.905  53.707  52.683  0.00  0.00    +0.000 A 
ATOM     32  C   UNL     1      -4.633  54.646  53.666  0.00  0.00    +0.000 A 
ENDBRANCH  26  27
ENDBRANCH   5  26
TORSDOF 4
ENDMDL
MODEL 5
REMARK VINA RESULT:      -7.6      1.709      3.654
REMARK  Name = 
REMARK  7 active torsions:
REMARK  status: ('A' for Active; 'I' for Inactive)
REMARK    1  A    between atoms: C_6  and  C_10
REMARK    2  A    between atoms: N_17  and  C_20
REMARK    3  A    between atoms: C_19  and  C_21
REMARK    4  A    between atoms: C_20  and  C_22
REMARK    5  A    between atoms: C_21  and  C_23
REMARK    6  A    between atoms: C_21  and  C_24
REMARK    7  A    between atoms: C_21  and  C_25
REMARK                            x       y       z     vdW  Elec       q    Type
REMARK                         _______ _______ _______ _____ _____    ______ ____
ROOT
ATOM      1  C   UNL     1     -11.094  54.727  49.904  0.00  0.00    +0.000 C 
ATOM      2  C   UNL     1     -11.054  53.722  48.839  0.00  0.00    +0.000 C 
ATOM      3  C   UNL     1      -9.986  54.527  50.628  0.00  0.00    +0.000 C 
ATOM      4  O   UNL     1     -11.985  53.518  48.075  0.00  0.00    +0.000 OA
ATOM      5  N   UNL     1      -9.821  53.104  48.868  0.00  0.00    +0.000 N 
ATOM      6  O   UNL     1      -9.666  55.207  51.777  0.00  0.00    +0.000 OA
ATOM      7  C   UNL     1      -9.045  53.469  50.061  0.00  0.00    +0.000 C 
ENDROOT
BRANCH   1  13
ATOM      8  S   UNL     1     -13.884  57.304  49.043  0.00  0.00    +0.000 S 
ATOM      9  O   UNL     1     -15.053  56.582  48.582  0.00  0.00    +0.000 OA
ATOM     10  O   UNL     1     -13.487  58.540  48.402  0.00  0.00    +0.000 OA
ATOM     11  N   UNL     1     -12.614  56.291  48.992  0.00  0.00    +0.000 N 
ATOM     12  C   UNL     1     -14.194  57.704  50.726  0.00  0.00    +0.000 A 
ATOM     13  C   UNL     1     -12.181  55.728  50.078  0.00  0.00    +0.000 C 
ATOM     14  C   UNL     1     -13.540  56.961  51.697  0.00  0.00    +0.000 A 
ATOM     15  C   UNL     1     -15.076  58.741  51.049  0.00  0.00    +0.000 A 
ATOM     16  N   UNL     1     -12.648  55.953  51.354  0.00  0.00    +0.000 N 
ATOM     17  C   UNL     1     -13.787  57.268  53.040  0.00  0.00    +0.000 A 
ATOM     18  C   UNL     1     -15.304  59.040  52.389  0.00  0.00    +0.000 A 
ATOM     19  C   UNL     1     -14.660  58.305  53.384  0.00  0.00    +0.000 A 
ATOM     20  H   UNL     1     -12.171  56.105  48.132  0.00  0.00    +0.000 HD
ATOM     21  H   UNL     1     -12.328  55.359  52.070  0.00  0.00    +0.000 HD
ENDBRANCH   1  13
BRANCH   7  22
ATOM     22  C   UNL     1      -7.568  53.954  49.805  0.00  0.00    +0.000 C 
ATOM     23  C   UNL     1      -6.832  54.248  51.137  0.00  0.00    +0.000 C 
ATOM     24  C   UNL     1      -6.719  52.863  49.120  0.00  0.00    +0.000 C 
ATOM     25  C   UNL     1      -7.530  55.229  48.943  0.00  0.00    +0.000 C 
ENDBRANCH   7  22
BRANCH   5  26
ATOM     26  C   UNL     1      -9.556  51.956  48.006  0.00  0.00    +0.000 C 
BRANCH  26  27
ATOM     27  C   UNL     1      -9.204  52.299  46.565  0.00  0.00    +0.000 A 
ATOM     28  N   UNL     1      -9.242  51.273  45.676  0.00  0.00    +0.000 NA
ATOM     29  C   UNL     1      -8.909  53.602  46.157  0.00  0.00    +0.000 A 
ATOM     30  C   UNL     1      -8.970  51.550  44.382  0.00  0.00    +0.000 A 
ATOM     31  C   UNL     1      -8.629  53.858  44.817  0.00  0.00    +0.000 A 
ATOM     32  C   UNL     1      -8.661  52.812  43.907  0.00  0.00    +0.000 A 
ENDBRANCH  26  27
ENDBRANCH   5  26
TORSDOF 4
ENDMDL
MODEL 6
REMARK VINA RESULT:      -7.5      2.332      3.136
REMARK  Name = 
REMARK  7 active torsions:
REMARK  status: ('A' for Active; 'I' for Inactive)
REMARK    1  A    between atoms: C_6  and  C_10
REMARK    2  A    between atoms: N_17  and  C_20
REMARK    3  A    between atoms: C_19  and  C_21
REMARK    4  A    between atoms: C_20  and  C_22
REMARK    5  A    between atoms: C_21  and  C_23
REMARK    6  A    between atoms: C_21  and  C_24
REMARK    7  A    between atoms: C_21  and  C_25
REMARK                            x       y       z     vdW  Elec       q    Type
REMARK                         _______ _______ _______ _____ _____    ______ ____
ROOT
ATOM      1  C   UNL     1     -10.286  55.081  47.837  0.00  0.00    +0.000 C 
ATOM      2  C   UNL     1      -8.825  54.973  47.861  0.00  0.00    +0.000 C 
ATOM      3  C   UNL     1     -10.647  54.796  46.580  0.00  0.00    +0.000 C 
ATOM      4  O   UNL     1      -8.144  55.310  48.817  0.00  0.00    +0.000 OA
ATOM      5  N   UNL     1      -8.408  54.434  46.661  0.00  0.00    +0.000 N 
ATOM      6  O   UNL     1     -11.931  54.857  46.099  0.00  0.00    +0.000 OA
ATOM      7  C   UNL     1      -9.498  54.355  45.680  0.00  0.00    +0.000 C 
ENDROOT
BRANCH   1  13
ATOM      8  S   UNL     1     -11.838  54.984  51.408  0.00  0.00    +0.000 S 
ATOM      9  O   UNL     1     -10.858  55.482  52.351  0.00  0.00    +0.000 OA
ATOM     10  O   UNL     1     -12.674  53.851  51.749  0.00  0.00    +0.000 OA
ATOM     11  N   UNL     1     -11.068  54.627  50.022  0.00  0.00    +0.000 N 
ATOM     12  C   UNL     1     -12.933  56.322  51.093  0.00  0.00    +0.000 A 
ATOM     13  C   UNL     1     -11.124  55.442  49.013  0.00  0.00    +0.000 C 
ATOM     14  C   UNL     1     -12.803  56.993  49.887  0.00  0.00    +0.000 A 
ATOM     15  C   UNL     1     -13.894  56.679  52.044  0.00  0.00    +0.000 A 
ATOM     16  N   UNL     1     -11.859  56.604  48.945  0.00  0.00    +0.000 N 
ATOM     17  C   UNL     1     -13.666  58.064  49.632  0.00  0.00    +0.000 A 
ATOM     18  C   UNL     1     -14.752  57.741  51.772  0.00  0.00    +0.000 A 
ATOM     19  C   UNL     1     -14.638  58.433  50.567  0.00  0.00    +0.000 A 
ATOM     20  H   UNL     1     -10.557  53.789  49.948  0.00  0.00    +0.000 HD
ATOM     21  H   UNL     1     -11.704  57.200  48.177  0.00  0.00    +0.000 HD
ENDBRANCH   1  13
BRANCH   7  22
ATOM     22  C   UNL     1      -9.696  52.960  44.975  0.00  0.00    +0.000 C 
ATOM     23  C   UNL     1      -8.467  52.585  44.109  0.00  0.00    +0.000 C 
ATOM     24  C   UNL     1      -9.816  51.814  46.001  0.00  0.00    +0.000 C 
ATOM     25  C   UNL     1     -10.942  52.952  44.071  0.00  0.00    +0.000 C 
ENDBRANCH   7  22
BRANCH   5  26
ATOM     26  C   UNL     1      -6.984  54.348  46.353  0.00  0.00    +0.000 C 
BRANCH  26  27
ATOM     27  C   UNL     1      -6.211  53.313  47.157  0.00  0.00    +0.000 A 
ATOM     28  N   UNL     1      -5.161  53.776  47.884  0.00  0.00    +0.000 NA
ATOM     29  C   UNL     1      -6.582  51.966  47.197  0.00  0.00    +0.000 A 
ATOM     30  C   UNL     1      -4.475  52.888  48.637  0.00  0.00    +0.000 A 
ATOM     31  C   UNL     1      -5.854  51.073  47.980  0.00  0.00    +0.000 A 
ATOM     32  C   UNL     1      -4.779  51.541  48.719  0.00  0.00    +0.000 A 
ENDBRANCH  26  27
ENDBRANCH   5  26
TORSDOF 4
ENDMDL
MODEL 7
REMARK VINA RESULT:      -7.5      2.963      7.124
REMARK  Name = 
REMARK  7 active torsions:
REMARK  status: ('A' for Active; 'I' for Inactive)
REMARK    1  A    between atoms: C_6  and  C_10
REMARK    2  A    between atoms: N_17  and  C_20
REMARK    3  A    between atoms: C_19  and  C_21
REMARK    4  A    between atoms: C_20  and  C_22
REMARK    5  A    between atoms: C_21  and  C_23
REMARK    6  A    between atoms: C_21  and  C_24
REMARK    7  A    between atoms: C_21  and  C_25
REMARK                            x       y       z     vdW  Elec       q    Type
REMARK                         _______ _______ _______ _____ _____    ______ ____
ROOT
ATOM      1  C   UNL     1      -9.339  54.191  50.286  0.00  0.00    +0.000 C 
ATOM      2  C   UNL     1     -10.747  54.566  50.436  0.00  0.00    +0.000 C 
ATOM      3  C   UNL     1      -9.245  53.624  49.077  0.00  0.00    +0.000 C 
ATOM      4  O   UNL     1     -11.223  54.978  51.483  0.00  0.00    +0.000 OA
ATOM      5  N   UNL     1     -11.379  54.381  49.224  0.00  0.00    +0.000 N 
ATOM      6  O   UNL     1      -8.105  53.056  48.563  0.00  0.00    +0.000 OA
ATOM      7  C   UNL     1     -10.530  53.672  48.258  0.00  0.00    +0.000 C 
ENDROOT
BRANCH   1  13
ATOM      8  S   UNL     1      -7.424  55.781  53.282  0.00  0.00    +0.000 S 
ATOM      9  O   UNL     1      -8.101  55.415  54.509  0.00  0.00    +0.000 OA
ATOM     10  O   UNL     1      -6.891  57.116  53.109  0.00  0.00    +0.000 OA
ATOM     11  N   UNL     1      -8.435  55.490  52.043  0.00  0.00    +0.000 N 
ATOM     12  C   UNL     1      -6.057  54.687  53.137  0.00  0.00    +0.000 A 
ATOM     13  C   UNL     1      -8.290  54.425  51.315  0.00  0.00    +0.000 C 
ATOM     14  C   UNL     1      -6.153  53.649  52.223  0.00  0.00    +0.000 A 
ATOM     15  C   UNL     1      -4.920  54.878  53.929  0.00  0.00    +0.000 A 
ATOM     16  N   UNL     1      -7.282  53.494  51.427  0.00  0.00    +0.000 N 
ATOM     17  C   UNL     1      -5.072  52.769  52.107  0.00  0.00    +0.000 A 
ATOM     18  C   UNL     1      -3.848  53.999  53.796  0.00  0.00    +0.000 A 
ATOM     19  C   UNL     1      -3.924  52.945  52.886  0.00  0.00    +0.000 A 
ATOM     20  H   UNL     1      -9.160  56.126  51.843  0.00  0.00    +0.000 HD
ATOM     21  H   UNL     1      -7.366  52.662  50.907  0.00  0.00    +0.000 HD
ENDBRANCH   1  13
BRANCH   7  22
ATOM     22  C   UNL     1     -10.394  54.337  46.836  0.00  0.00    +0.000 C 
ATOM     23  C   UNL     1      -9.554  55.638  46.898  0.00  0.00    +0.000 C 
ATOM     24  C   UNL     1      -9.634  53.426  45.849  0.00  0.00    +0.000 C 
ATOM     25  C   UNL     1     -11.770  54.681  46.236  0.00  0.00    +0.000 C 
ENDBRANCH   7  22
BRANCH   5  26
ATOM     26  C   UNL     1     -12.827  54.540  49.121  0.00  0.00    +0.000 C 
BRANCH  26  27
ATOM     27  C   UNL     1     -13.348  55.932  49.449  0.00  0.00    +0.000 A 
ATOM     28  N   UNL     1     -14.286  56.008  50.427  0.00  0.00    +0.000 NA
ATOM     29  C   UNL     1     -12.858  57.081  48.822  0.00  0.00    +0.000 A 
ATOM     30  C   UNL     1     -14.744  57.233  50.767  0.00  0.00    +0.000 A 
ATOM     31  C   UNL     1     -13.351  58.331  49.191  0.00  0.00    +0.000 A 
ATOM     32  C   UNL     1     -14.313  58.412  50.186  0.00  0.00    +0.000 A 
ENDBRANCH  26  27
ENDBRANCH   5  26
TORSDOF 4
ENDMDL
MODEL 8
REMARK VINA RESULT:      -7.5      3.435      7.546
REMARK  Name = 
REMARK  7 active torsions:
REMARK  status: ('A' for Active; 'I' for Inactive)
REMARK    1  A    between atoms: C_6  and  C_10
REMARK    2  A    between atoms: N_17  and  C_20
REMARK    3  A    between atoms: C_19  and  C_21
REMARK    4  A    between atoms: C_20  and  C_22
REMARK    5  A    between atoms: C_21  and  C_23
REMARK    6  A    between atoms: C_21  and  C_24
REMARK    7  A    between atoms: C_21  and  C_25
REMARK                            x       y       z     vdW  Elec       q    Type
REMARK                         _______ _______ _______ _____ _____    ______ ____
ROOT
ATOM      1  C   UNL     1     -10.410  53.888  50.454  0.00  0.00    +0.000 C 
ATOM      2  C   UNL     1     -10.927  55.236  50.699  0.00  0.00    +0.000 C 
ATOM      3  C   UNL     1     -10.966  53.494  49.302  0.00  0.00    +0.000 C 
ATOM      4  O   UNL     1     -10.741  55.845  51.742  0.00  0.00    +0.000 OA
ATOM      5  N   UNL     1     -11.611  55.652  49.576  0.00  0.00    +0.000 N 
ATOM      6  O   UNL     1     -10.810  52.251  48.739  0.00  0.00    +0.000 OA
ATOM      7  C   UNL     1     -11.800  54.565  48.607  0.00  0.00    +0.000 C 
ENDROOT
BRANCH   1  13
ATOM      8  S   UNL     1      -8.503  50.980  52.208  0.00  0.00    +0.000 S 
ATOM      9  O   UNL     1      -7.540  50.431  51.275  0.00  0.00    +0.000 OA
ATOM     10  O   UNL     1      -9.260  50.106  53.079  0.00  0.00    +0.000 OA
ATOM     11  N   UNL     1      -9.565  51.876  51.365  0.00  0.00    +0.000 N 
ATOM     12  C   UNL     1      -7.597  52.056  53.261  0.00  0.00    +0.000 A 
ATOM     13  C   UNL     1      -9.464  53.171  51.352  0.00  0.00    +0.000 C 
ATOM     14  C   UNL     1      -7.723  53.421  53.053  0.00  0.00    +0.000 A 
ATOM     15  C   UNL     1      -6.784  51.528  54.270  0.00  0.00    +0.000 A 
ATOM     16  N   UNL     1      -8.558  53.924  52.063  0.00  0.00    +0.000 N 
ATOM     17  C   UNL     1      -6.999  54.284  53.884  0.00  0.00    +0.000 A 
ATOM     18  C   UNL     1      -6.077  52.400  55.093  0.00  0.00    +0.000 A 
ATOM     19  C   UNL     1      -6.185  53.777  54.900  0.00  0.00    +0.000 A 
ATOM     20  H   UNL     1     -10.289  51.435  50.864  0.00  0.00    +0.000 HD
ATOM     21  H   UNL     1      -8.497  54.884  51.856  0.00  0.00    +0.000 HD
ENDBRANCH   1  13
BRANCH   7  22
ATOM     22  C   UNL     1     -11.382  54.881  47.121  0.00  0.00    +0.000 C 
ATOM     23  C   UNL     1     -11.661  53.676  46.187  0.00  0.00    +0.000 C 
ATOM     24  C   UNL     1     -12.213  56.038  46.527  0.00  0.00    +0.000 C 
ATOM     25  C   UNL     1      -9.887  55.236  47.015  0.00  0.00    +0.000 C 
ENDBRANCH   7  22
BRANCH   5  26
ATOM     26  C   UNL     1     -12.357  56.907  49.596  0.00  0.00    +0.000 C 
BRANCH  26  27
ATOM     27  C   UNL     1     -13.658  56.872  50.383  0.00  0.00    +0.000 A 
ATOM     28  N   UNL     1     -14.734  56.344  49.744  0.00  0.00    +0.000 NA
ATOM     29  C   UNL     1     -13.744  57.307  51.709  0.00  0.00    +0.000 A 
ATOM     30  C   UNL     1     -15.897  56.265  50.428  0.00  0.00    +0.000 A 
ATOM     31  C   UNL     1     -14.956  57.216  52.388  0.00  0.00    +0.000 A 
ATOM     32  C   UNL     1     -16.058  56.683  51.737  0.00  0.00    +0.000 A 
ENDBRANCH  26  27
ENDBRANCH   5  26
TORSDOF 4
ENDMDL
MODEL 9
REMARK VINA RESULT:      -7.4      1.878      2.536
REMARK  Name = 
REMARK  7 active torsions:
REMARK  status: ('A' for Active; 'I' for Inactive)
REMARK    1  A    between atoms: C_6  and  C_10
REMARK    2  A    between atoms: N_17  and  C_20
REMARK    3  A    between atoms: C_19  and  C_21
REMARK    4  A    between atoms: C_20  and  C_22
REMARK    5  A    between atoms: C_21  and  C_23
REMARK    6  A    between atoms: C_21  and  C_24
REMARK    7  A    between atoms: C_21  and  C_25
REMARK                            x       y       z     vdW  Elec       q    Type
REMARK                         _______ _______ _______ _____ _____    ______ ____
ROOT
ATOM      1  C   UNL     1     -11.616  54.930  48.581  0.00  0.00    +0.000 C 
ATOM      2  C   UNL     1     -10.732  53.983  49.263  0.00  0.00    +0.000 C 
ATOM      3  C   UNL     1     -11.346  54.798  47.276  0.00  0.00    +0.000 C 
ATOM      4  O   UNL     1     -10.606  53.940  50.478  0.00  0.00    +0.000 OA
ATOM      5  N   UNL     1     -10.121  53.193  48.312  0.00  0.00    +0.000 N 
ATOM      6  O   UNL     1     -11.901  55.561  46.279  0.00  0.00    +0.000 OA
ATOM      7  C   UNL     1     -10.360  53.683  46.948  0.00  0.00    +0.000 C 
ENDROOT
BRANCH   1  13
ATOM      8  S   UNL     1     -14.578  56.098  50.824  0.00  0.00    +0.000 S 
ATOM      9  O   UNL     1     -14.178  55.987  52.212  0.00  0.00    +0.000 OA
ATOM     10  O   UNL     1     -15.919  55.732  50.417  0.00  0.00    +0.000 OA
ATOM     11  N   UNL     1     -13.536  55.231  49.928  0.00  0.00    +0.000 N 
ATOM     12  C   UNL     1     -14.384  57.792  50.397  0.00  0.00    +0.000 A 
ATOM     13  C   UNL     1     -12.588  55.823  49.269  0.00  0.00    +0.000 C 
ATOM     14  C   UNL     1     -13.289  58.141  49.622  0.00  0.00    +0.000 A 
ATOM     15  C   UNL     1     -15.317  58.737  50.837  0.00  0.00    +0.000 A 
ATOM     16  N   UNL     1     -12.389  57.182  49.173  0.00  0.00    +0.000 N 
ATOM     17  C   UNL     1     -13.123  59.489  49.284  0.00  0.00    +0.000 A 
ATOM     18  C   UNL     1     -15.143  60.072  50.486  0.00  0.00    +0.000 A 
ATOM     19  C   UNL     1     -14.047  60.448  49.709  0.00  0.00    +0.000 A 
ATOM     20  H   UNL     1     -13.626  54.251  49.885  0.00  0.00    +0.000 HD
ATOM     21  H   UNL     1     -11.554  57.495  48.758  0.00  0.00    +0.000 HD
ENDBRANCH   1  13
BRANCH   7  22
ATOM     22  C   UNL     1     -10.877  52.616  45.910  0.00  0.00    +0.000 C 
ATOM     23  C   UNL     1     -12.194  51.954  46.388  0.00  0.00    +0.000 C 
ATOM     24  C   UNL     1     -11.232  53.262  44.555  0.00  0.00    +0.000 C 
ATOM     25  C   UNL     1      -9.838  51.504  45.674  0.00  0.00    +0.000 C 
ENDBRANCH   7  22
BRANCH   5  26
ATOM     26  C   UNL     1      -9.073  52.254  48.702  0.00  0.00    +0.000 C 
BRANCH  26  27
ATOM     27  C   UNL     1      -7.657  52.810  48.651  0.00  0.00    +0.000 A 
ATOM     28  N   UNL     1      -6.959  52.576  47.509  0.00  0.00    +0.000 NA
ATOM     29  C   UNL     1      -7.111  53.565  49.692  0.00  0.00    +0.000 A 
ATOM     30  C   UNL     1      -5.712  53.086  47.418  0.00  0.00    +0.000 A 
ATOM     31  C   UNL     1      -5.821  54.076  49.571  0.00  0.00    +0.000 A 
ATOM     32  C   UNL     1      -5.104  53.835  48.409  0.00  0.00    +0.000 A 
ENDBRANCH  26  27
ENDBRANCH   5  26
TORSDOF 4
ENDMDL
