MODEL 1
REMARK VINA RESULT:      -7.5      0.000      0.000
REMARK  Name = 
REMARK  9 active torsions:
REMARK  status: ('A' for Active; 'I' for Inactive)
REMARK    1  A    between atoms: C_6  and  C_10
REMARK    2  A    between atoms: N_17  and  C_20
REMARK    3  A    between atoms: C_19  and  C_21
REMARK    4  A    between atoms: C_20  and  C_22
REMARK    5  A    between atoms: C_21  and  C_23
REMARK    6  A    between atoms: C_21  and  C_24
REMARK    7  A    between atoms: C_22  and  C_25
REMARK    8  A    between atoms: C_25  and  C_26
REMARK    9  A    between atoms: C_25  and  C_27
REMARK                            x       y       z     vdW  Elec       q    Type
REMARK                         _______ _______ _______ _____ _____    ______ ____
ROOT
ATOM      1  C   UNL     1     -10.848  55.218  47.959  0.00  0.00    +0.000 C 
ATOM      2  C   UNL     1     -12.161  55.862  47.810  0.00  0.00    +0.000 C 
ATOM      3  C   UNL     1     -10.497  55.372  49.241  0.00  0.00    +0.000 C 
ATOM      4  O   UNL     1     -12.763  55.931  46.750  0.00  0.00    +0.000 OA
ATOM      5  N   UNL     1     -12.532  56.349  49.043  0.00  0.00    +0.000 N 
ATOM      6  O   UNL     1      -9.310  54.976  49.807  0.00  0.00    +0.000 OA
ATOM      7  C   UNL     1     -11.542  56.064  50.079  0.00  0.00    +0.000 C 
ENDROOT
BRANCH   1  13
ATOM      8  S   UNL     1      -7.952  54.330  45.527  0.00  0.00    +0.000 S 
ATOM      9  O   UNL     1      -6.993  53.480  46.203  0.00  0.00    +0.000 OA
ATOM     10  O   UNL     1      -7.500  55.382  44.637  0.00  0.00    +0.000 OA
ATOM     11  N   UNL     1      -8.898  55.014  46.649  0.00  0.00    +0.000 N 
ATOM     12  C   UNL     1      -8.950  53.262  44.552  0.00  0.00    +0.000 A 
ATOM     13  C   UNL     1     -10.097  54.560  46.863  0.00  0.00    +0.000 C 
ATOM     14  C   UNL     1     -10.231  52.981  45.003  0.00  0.00    +0.000 A 
ATOM     15  C   UNL     1      -8.443  52.725  43.368  0.00  0.00    +0.000 A 
ATOM     16  N   UNL     1     -10.721  53.548  46.173  0.00  0.00    +0.000 N 
ATOM     17  C   UNL     1     -11.026  52.121  44.240  0.00  0.00    +0.000 A 
ATOM     18  C   UNL     1      -9.250  51.880  42.611  0.00  0.00    +0.000 A 
ATOM     19  C   UNL     1     -10.538  51.574  43.048  0.00  0.00    +0.000 A 
ATOM     20  H   UNL     1      -8.562  55.776  47.173  0.00  0.00    +0.000 HD
ATOM     21  H   UNL     1     -11.570  53.202  46.533  0.00  0.00    +0.000 HD
ENDBRANCH   1  13
BRANCH   7  22
ATOM     22  C   UNL     1     -12.093  55.237  51.270  0.00  0.00    +0.000 C 
ATOM     23  C   UNL     1     -11.208  55.357  52.516  0.00  0.00    +0.000 C 
ATOM     24  C   UNL     1     -12.308  53.755  50.941  0.00  0.00    +0.000 C 
ENDBRANCH   7  22
BRANCH   5  25
ATOM     25  C   UNL     1     -13.805  57.008  49.276  0.00  0.00    +0.000 C 
BRANCH  25  26
ATOM     26  C   UNL     1     -13.725  58.101  50.337  0.00  0.00    +0.000 C 
BRANCH  26  27
ATOM     27  C   UNL     1     -14.809  57.961  51.420  0.00  0.00    +0.000 C 
ATOM     28  C   UNL     1     -15.687  56.726  51.203  0.00  0.00    +0.000 C 
ATOM     29  C   UNL     1     -14.151  57.894  52.799  0.00  0.00    +0.000 C 
ENDBRANCH  26  27
ENDBRANCH  25  26
ENDBRANCH   5  25
TORSDOF 5
ENDMDL
MODEL 2
REMARK VINA RESULT:      -7.5      2.701      4.260
REMARK  Name = 
REMARK  9 active torsions:
REMARK  status: ('A' for Active; 'I' for Inactive)
REMARK    1  A    between atoms: C_6  and  C_10
REMARK    2  A    between atoms: N_17  and  C_20
REMARK    3  A    between atoms: C_19  and  C_21
REMARK    4  A    between atoms: C_20  and  C_22
REMARK    5  A    between atoms: C_21  and  C_23
REMARK    6  A    between atoms: C_21  and  C_24
REMARK    7  A    between atoms: C_22  and  C_25
REMARK    8  A    between atoms: C_25  and  C_26
REMARK    9  A    between atoms: C_25  and  C_27
REMARK                            x       y       z     vdW  Elec       q    Type
REMARK                         _______ _______ _______ _____ _____    ______ ____
ROOT
ATOM      1  C   UNL     1     -10.989  55.276  48.693  0.00  0.00    +0.000 C 
ATOM      2  C   UNL     1     -11.514  55.128  50.058  0.00  0.00    +0.000 C 
ATOM      3  C   UNL     1     -12.002  55.729  47.947  0.00  0.00    +0.000 C 
ATOM      4  O   UNL     1     -10.855  54.703  50.994  0.00  0.00    +0.000 OA
ATOM      5  N   UNL     1     -12.830  55.533  50.048  0.00  0.00    +0.000 N 
ATOM      6  O   UNL     1     -11.973  55.950  46.592  0.00  0.00    +0.000 OA
ATOM      7  C   UNL     1     -13.266  55.986  48.729  0.00  0.00    +0.000 C 
ENDROOT
BRANCH   1  13
ATOM      8  S   UNL     1      -8.023  53.948  46.565  0.00  0.00    +0.000 S 
ATOM      9  O   UNL     1      -7.734  54.883  45.495  0.00  0.00    +0.000 OA
ATOM     10  O   UNL     1      -7.981  52.519  46.320  0.00  0.00    +0.000 OA
ATOM     11  N   UNL     1      -9.486  54.299  47.160  0.00  0.00    +0.000 N 
ATOM     12  C   UNL     1      -6.836  54.263  47.821  0.00  0.00    +0.000 A 
ATOM     13  C   UNL     1      -9.603  54.950  48.278  0.00  0.00    +0.000 C 
ATOM     14  C   UNL     1      -7.254  54.951  48.951  0.00  0.00    +0.000 A 
ATOM     15  C   UNL     1      -5.520  53.825  47.660  0.00  0.00    +0.000 A 
ATOM     16  N   UNL     1      -8.575  55.353  49.098  0.00  0.00    +0.000 N 
ATOM     17  C   UNL     1      -6.312  55.217  49.948  0.00  0.00    +0.000 A 
ATOM     18  C   UNL     1      -4.595  54.086  48.667  0.00  0.00    +0.000 A 
ATOM     19  C   UNL     1      -4.988  54.785  49.808  0.00  0.00    +0.000 A 
ATOM     20  H   UNL     1     -10.293  54.018  46.671  0.00  0.00    +0.000 HD
ATOM     21  H   UNL     1      -8.790  55.968  49.836  0.00  0.00    +0.000 HD
ENDBRANCH   1  13
BRANCH   7  22
ATOM     22  C   UNL     1     -13.780  57.449  48.700  0.00  0.00    +0.000 C 
ATOM     23  C   UNL     1     -14.249  57.870  47.301  0.00  0.00    +0.000 C 
ATOM     24  C   UNL     1     -12.760  58.468  49.220  0.00  0.00    +0.000 C 
ENDBRANCH   7  22
BRANCH   5  25
ATOM     25  C   UNL     1     -13.651  55.566  51.245  0.00  0.00    +0.000 C 
BRANCH  25  26
ATOM     26  C   UNL     1     -13.262  56.687  52.204  0.00  0.00    +0.000 C 
BRANCH  26  27
ATOM     27  C   UNL     1     -14.480  57.451  52.752  0.00  0.00    +0.000 C 
ATOM     28  C   UNL     1     -14.383  58.956  52.491  0.00  0.00    +0.000 C 
ATOM     29  C   UNL     1     -15.759  56.897  52.122  0.00  0.00    +0.000 C 
ENDBRANCH  26  27
ENDBRANCH  25  26
ENDBRANCH   5  25
TORSDOF 5
ENDMDL
MODEL 3
REMARK VINA RESULT:      -7.2      3.739      5.991
REMARK  Name = 
REMARK  9 active torsions:
REMARK  status: ('A' for Active; 'I' for Inactive)
REMARK    1  A    between atoms: C_6  and  C_10
REMARK    2  A    between atoms: N_17  and  C_20
REMARK    3  A    between atoms: C_19  and  C_21
REMARK    4  A    between atoms: C_20  and  C_22
REMARK    5  A    between atoms: C_21  and  C_23
REMARK    6  A    between atoms: C_21  and  C_24
REMARK    7  A    between atoms: C_22  and  C_25
REMARK    8  A    between atoms: C_25  and  C_26
REMARK    9  A    between atoms: C_25  and  C_27
REMARK                            x       y       z     vdW  Elec       q    Type
REMARK                         _______ _______ _______ _____ _____    ______ ____
ROOT
ATOM      1  C   UNL     1     -10.207  55.264  50.448  0.00  0.00    +0.000 C 
ATOM      2  C   UNL     1     -11.333  55.318  51.390  0.00  0.00    +0.000 C 
ATOM      3  C   UNL     1     -10.732  55.389  49.224  0.00  0.00    +0.000 C 
ATOM      4  O   UNL     1     -11.210  55.203  52.599  0.00  0.00    +0.000 OA
ATOM      5  N   UNL     1     -12.485  55.500  50.657  0.00  0.00    +0.000 N 
ATOM      6  O   UNL     1     -10.043  55.329  48.038  0.00  0.00    +0.000 OA
ATOM      7  C   UNL     1     -12.225  55.598  49.222  0.00  0.00    +0.000 C 
ENDROOT
BRANCH   1  13
ATOM      8  S   UNL     1      -6.415  54.461  50.181  0.00  0.00    +0.000 S 
ATOM      9  O   UNL     1      -5.725  55.574  49.559  0.00  0.00    +0.000 OA
ATOM     10  O   UNL     1      -6.057  53.097  49.844  0.00  0.00    +0.000 OA
ATOM     11  N   UNL     1      -8.000  54.633  49.903  0.00  0.00    +0.000 N 
ATOM     12  C   UNL     1      -6.146  54.624  51.909  0.00  0.00    +0.000 A 
ATOM     13  C   UNL     1      -8.786  55.084  50.835  0.00  0.00    +0.000 C 
ATOM     14  C   UNL     1      -7.194  55.093  52.688  0.00  0.00    +0.000 A 
ATOM     15  C   UNL     1      -4.905  54.288  52.454  0.00  0.00    +0.000 A 
ATOM     16  N   UNL     1      -8.426  55.398  52.123  0.00  0.00    +0.000 N 
ATOM     17  C   UNL     1      -6.982  55.239  54.061  0.00  0.00    +0.000 A 
ATOM     18  C   UNL     1      -4.713  54.425  53.827  0.00  0.00    +0.000 A 
ATOM     19  C   UNL     1      -5.748  54.905  54.629  0.00  0.00    +0.000 A 
ATOM     20  H   UNL     1      -8.371  54.396  49.023  0.00  0.00    +0.000 HD
ATOM     21  H   UNL     1      -9.085  55.870  52.683  0.00  0.00    +0.000 HD
ENDBRANCH   1  13
BRANCH   7  22
ATOM     22  C   UNL     1     -12.711  56.924  48.581  0.00  0.00    +0.000 C 
ATOM     23  C   UNL     1     -12.478  58.130  49.500  0.00  0.00    +0.000 C 
ATOM     24  C   UNL     1     -14.181  56.894  48.147  0.00  0.00    +0.000 C 
ENDBRANCH   7  22
BRANCH   5  25
ATOM     25  C   UNL     1     -13.792  55.647  51.272  0.00  0.00    +0.000 C 
BRANCH  25  26
ATOM     26  C   UNL     1     -13.848  56.783  52.288  0.00  0.00    +0.000 C 
BRANCH  26  27
ATOM     27  C   UNL     1     -15.212  57.496  52.311  0.00  0.00    +0.000 C 
ATOM     28  C   UNL     1     -15.081  59.001  52.069  0.00  0.00    +0.000 C 
ATOM     29  C   UNL     1     -16.131  56.878  51.256  0.00  0.00    +0.000 C 
ENDBRANCH  26  27
ENDBRANCH  25  26
ENDBRANCH   5  25
TORSDOF 5
ENDMDL
MODEL 4
REMARK VINA RESULT:      -7.1      2.806      7.714
REMARK  Name = 
REMARK  9 active torsions:
REMARK  status: ('A' for Active; 'I' for Inactive)
REMARK    1  A    between atoms: C_6  and  C_10
REMARK    2  A    between atoms: N_17  and  C_20
REMARK    3  A    between atoms: C_19  and  C_21
REMARK    4  A    between atoms: C_20  and  C_22
REMARK    5  A    between atoms: C_21  and  C_23
REMARK    6  A    between atoms: C_21  and  C_24
REMARK    7  A    between atoms: C_22  and  C_25
REMARK    8  A    between atoms: C_25  and  C_26
REMARK    9  A    between atoms: C_25  and  C_27
REMARK                            x       y       z     vdW  Elec       q    Type
REMARK                         _______ _______ _______ _____ _____    ______ ____
ROOT
ATOM      1  C   UNL     1     -12.314  55.285  48.609  0.00  0.00    +0.000 C 
ATOM      2  C   UNL     1     -11.919  55.268  47.194  0.00  0.00    +0.000 C 
ATOM      3  C   UNL     1     -11.961  54.098  49.113  0.00  0.00    +0.000 C 
ATOM      4  O   UNL     1     -12.124  56.192  46.423  0.00  0.00    +0.000 OA
ATOM      5  N   UNL     1     -11.320  54.054  46.940  0.00  0.00    +0.000 N 
ATOM      6  O   UNL     1     -12.200  53.659  50.393  0.00  0.00    +0.000 OA
ATOM      7  C   UNL     1     -11.252  53.205  48.127  0.00  0.00    +0.000 C 
ENDROOT
BRANCH   1  13
ATOM      8  S   UNL     1     -13.510  58.900  49.380  0.00  0.00    +0.000 S 
ATOM      9  O   UNL     1     -14.610  59.247  48.500  0.00  0.00    +0.000 OA
ATOM     10  O   UNL     1     -12.484  59.877  49.689  0.00  0.00    +0.000 OA
ATOM     11  N   UNL     1     -12.773  57.593  48.773  0.00  0.00    +0.000 N 
ATOM     12  C   UNL     1     -14.237  58.451  50.915  0.00  0.00    +0.000 A 
ATOM     13  C   UNL     1     -12.989  56.419  49.287  0.00  0.00    +0.000 C 
ATOM     14  C   UNL     1     -14.294  57.103  51.236  0.00  0.00    +0.000 A 
ATOM     15  C   UNL     1     -14.734  59.441  51.765  0.00  0.00    +0.000 A 
ATOM     16  N   UNL     1     -13.769  56.139  50.383  0.00  0.00    +0.000 N 
ATOM     17  C   UNL     1     -14.883  56.737  52.449  0.00  0.00    +0.000 A 
ATOM     18  C   UNL     1     -15.306  59.063  52.977  0.00  0.00    +0.000 A 
ATOM     19  C   UNL     1     -15.385  57.713  53.317  0.00  0.00    +0.000 A 
ATOM     20  H   UNL     1     -12.158  57.688  48.011  0.00  0.00    +0.000 HD
ATOM     21  H   UNL     1     -13.970  55.195  50.577  0.00  0.00    +0.000 HD
ENDBRANCH   1  13
BRANCH   7  22
ATOM     22  C   UNL     1      -9.812  52.787  48.524  0.00  0.00    +0.000 C 
ATOM     23  C   UNL     1      -9.792  51.497  49.353  0.00  0.00    +0.000 C 
ATOM     24  C   UNL     1      -9.039  53.881  49.269  0.00  0.00    +0.000 C 
ENDBRANCH   7  22
BRANCH   5  25
ATOM     25  C   UNL     1     -10.760  53.710  45.645  0.00  0.00    +0.000 C 
BRANCH  25  26
ATOM     26  C   UNL     1     -11.684  52.828  44.812  0.00  0.00    +0.000 C 
BRANCH  26  27
ATOM     27  C   UNL     1     -11.245  51.353  44.797  0.00  0.00    +0.000 C 
ATOM     28  C   UNL     1      -9.762  51.188  45.135  0.00  0.00    +0.000 C 
ATOM     29  C   UNL     1     -12.095  50.555  45.787  0.00  0.00    +0.000 C 
ENDBRANCH  26  27
ENDBRANCH  25  26
ENDBRANCH   5  25
TORSDOF 5
ENDMDL
MODEL 5
REMARK VINA RESULT:      -7.1      3.025      7.933
REMARK  Name = 
REMARK  9 active torsions:
REMARK  status: ('A' for Active; 'I' for Inactive)
REMARK    1  A    between atoms: C_6  and  C_10
REMARK    2  A    between atoms: N_17  and  C_20
REMARK    3  A    between atoms: C_19  and  C_21
REMARK    4  A    between atoms: C_20  and  C_22
REMARK    5  A    between atoms: C_21  and  C_23
REMARK    6  A    between atoms: C_21  and  C_24
REMARK    7  A    between atoms: C_22  and  C_25
REMARK    8  A    between atoms: C_25  and  C_26
REMARK    9  A    between atoms: C_25  and  C_27
REMARK                            x       y       z     vdW  Elec       q    Type
REMARK                         _______ _______ _______ _____ _____    ______ ____
ROOT
ATOM      1  C   UNL     1     -11.360  56.201  48.790  0.00  0.00    +0.000 C 
ATOM      2  C   UNL     1     -10.183  55.637  49.468  0.00  0.00    +0.000 C 
ATOM      3  C   UNL     1     -11.313  55.762  47.528  0.00  0.00    +0.000 C 
ATOM      4  O   UNL     1      -9.902  55.864  50.634  0.00  0.00    +0.000 OA
ATOM      5  N   UNL     1      -9.505  54.861  48.555  0.00  0.00    +0.000 N 
ATOM      6  O   UNL     1     -12.187  56.097  46.523  0.00  0.00    +0.000 OA
ATOM      7  C   UNL     1     -10.161  54.830  47.250  0.00  0.00    +0.000 C 
ENDROOT
BRANCH   1  13
ATOM      8  S   UNL     1     -13.581  59.316  49.463  0.00  0.00    +0.000 S 
ATOM      9  O   UNL     1     -14.703  59.321  48.545  0.00  0.00    +0.000 OA
ATOM     10  O   UNL     1     -12.895  60.551  49.789  0.00  0.00    +0.000 OA
ATOM     11  N   UNL     1     -12.475  58.276  48.902  0.00  0.00    +0.000 N 
ATOM     12  C   UNL     1     -14.199  58.685  50.983  0.00  0.00    +0.000 A 
ATOM     13  C   UNL     1     -12.358  57.093  49.428  0.00  0.00    +0.000 C 
ATOM     14  C   UNL     1     -13.873  57.380  51.323  0.00  0.00    +0.000 A 
ATOM     15  C   UNL     1     -14.992  59.492  51.800  0.00  0.00    +0.000 A 
ATOM     16  N   UNL     1     -13.061  56.606  50.504  0.00  0.00    +0.000 N 
ATOM     17  C   UNL     1     -14.372  56.867  52.524  0.00  0.00    +0.000 A 
ATOM     18  C   UNL     1     -15.471  58.972  52.999  0.00  0.00    +0.000 A 
ATOM     19  C   UNL     1     -15.166  57.660  53.359  0.00  0.00    +0.000 A 
ATOM     20  H   UNL     1     -11.889  58.541  48.158  0.00  0.00    +0.000 HD
ATOM     21  H   UNL     1     -12.985  55.645  50.707  0.00  0.00    +0.000 HD
ENDBRANCH   1  13
BRANCH   7  22
ATOM     22  C   UNL     1     -10.557  53.407  46.775  0.00  0.00    +0.000 C 
ATOM     23  C   UNL     1     -10.712  53.328  45.251  0.00  0.00    +0.000 C 
ATOM     24  C   UNL     1     -11.828  52.869  47.443  0.00  0.00    +0.000 C 
ENDBRANCH   7  22
BRANCH   5  25
ATOM     25  C   UNL     1      -8.311  54.108  48.898  0.00  0.00    +0.000 C 
BRANCH  25  26
ATOM     26  C   UNL     1      -7.057  54.634  48.207  0.00  0.00    +0.000 C 
BRANCH  26  27
ATOM     27  C   UNL     1      -5.986  55.112  49.203  0.00  0.00    +0.000 C 
ATOM     28  C   UNL     1      -6.456  55.003  50.655  0.00  0.00    +0.000 C 
ATOM     29  C   UNL     1      -4.705  54.298  49.009  0.00  0.00    +0.000 C 
ENDBRANCH  26  27
ENDBRANCH  25  26
ENDBRANCH   5  25
TORSDOF 5
ENDMDL
MODEL 6
REMARK VINA RESULT:      -7.1      3.200      7.605
REMARK  Name = 
REMARK  9 active torsions:
REMARK  status: ('A' for Active; 'I' for Inactive)
REMARK    1  A    between atoms: C_6  and  C_10
REMARK    2  A    between atoms: N_17  and  C_20
REMARK    3  A    between atoms: C_19  and  C_21
REMARK    4  A    between atoms: C_20  and  C_22
REMARK    5  A    between atoms: C_21  and  C_23
REMARK    6  A    between atoms: C_21  and  C_24
REMARK    7  A    between atoms: C_22  and  C_25
REMARK    8  A    between atoms: C_25  and  C_26
REMARK    9  A    between atoms: C_25  and  C_27
REMARK                            x       y       z     vdW  Elec       q    Type
REMARK                         _______ _______ _______ _____ _____    ______ ____
ROOT
ATOM      1  C   UNL     1     -12.245  54.506  49.969  0.00  0.00    +0.000 C 
ATOM      2  C   UNL     1     -12.033  54.163  48.556  0.00  0.00    +0.000 C 
ATOM      3  C   UNL     1     -11.712  53.509  50.683  0.00  0.00    +0.000 C 
ATOM      4  O   UNL     1     -12.428  54.849  47.626  0.00  0.00    +0.000 OA
ATOM      5  N   UNL     1     -11.350  52.968  48.512  0.00  0.00    +0.000 N 
ATOM      6  O   UNL     1     -11.740  53.388  52.051  0.00  0.00    +0.000 OA
ATOM      7  C   UNL     1     -11.046  52.449  49.843  0.00  0.00    +0.000 C 
ENDROOT
BRANCH   1  13
ATOM      8  S   UNL     1     -14.325  56.877  52.237  0.00  0.00    +0.000 S 
ATOM      9  O   UNL     1     -13.495  57.367  53.320  0.00  0.00    +0.000 OA
ATOM     10  O   UNL     1     -15.705  56.504  52.482  0.00  0.00    +0.000 OA
ATOM     11  N   UNL     1     -13.586  55.601  51.572  0.00  0.00    +0.000 N 
ATOM     12  C   UNL     1     -14.373  58.162  51.039  0.00  0.00    +0.000 A 
ATOM     13  C   UNL     1     -12.942  55.724  50.450  0.00  0.00    +0.000 C 
ATOM     14  C   UNL     1     -13.610  58.007  49.891  0.00  0.00    +0.000 A 
ATOM     15  C   UNL     1     -15.160  59.293  51.264  0.00  0.00    +0.000 A 
ATOM     16  N   UNL     1     -12.854  56.860  49.681  0.00  0.00    +0.000 N 
ATOM     17  C   UNL     1     -13.631  59.031  48.941  0.00  0.00    +0.000 A 
ATOM     18  C   UNL     1     -15.182  60.300  50.302  0.00  0.00    +0.000 A 
ATOM     19  C   UNL     1     -14.416  60.172  49.144  0.00  0.00    +0.000 A 
ATOM     20  H   UNL     1     -13.622  54.726  52.021  0.00  0.00    +0.000 HD
ATOM     21  H   UNL     1     -12.213  56.862  48.933  0.00  0.00    +0.000 HD
ENDBRANCH   1  13
BRANCH   7  22
ATOM     22  C   UNL     1      -9.532  52.242  50.111  0.00  0.00    +0.000 C 
ATOM     23  C   UNL     1      -9.276  51.231  51.235  0.00  0.00    +0.000 C 
ATOM     24  C   UNL     1      -8.780  53.542  50.417  0.00  0.00    +0.000 C 
ENDBRANCH   7  22
BRANCH   5  25
ATOM     25  C   UNL     1     -10.926  52.351  47.268  0.00  0.00    +0.000 C 
BRANCH  25  26
ATOM     26  C   UNL     1      -9.519  52.761  46.848  0.00  0.00    +0.000 C 
BRANCH  26  27
ATOM     27  C   UNL     1      -9.510  53.974  45.901  0.00  0.00    +0.000 C 
ATOM     28  C   UNL     1      -9.008  55.243  46.592  0.00  0.00    +0.000 C 
ATOM     29  C   UNL     1      -8.636  53.667  44.683  0.00  0.00    +0.000 C 
ENDBRANCH  26  27
ENDBRANCH  25  26
ENDBRANCH   5  25
TORSDOF 5
ENDMDL
MODEL 7
REMARK VINA RESULT:      -7.0      4.137      7.713
REMARK  Name = 
REMARK  9 active torsions:
REMARK  status: ('A' for Active; 'I' for Inactive)
REMARK    1  A    between atoms: C_6  and  C_10
REMARK    2  A    between atoms: N_17  and  C_20
REMARK    3  A    between atoms: C_19  and  C_21
REMARK    4  A    between atoms: C_20  and  C_22
REMARK    5  A    between atoms: C_21  and  C_23
REMARK    6  A    between atoms: C_21  and  C_24
REMARK    7  A    between atoms: C_22  and  C_25
REMARK    8  A    between atoms: C_25  and  C_26
REMARK    9  A    between atoms: C_25  and  C_27
REMARK                            x       y       z     vdW  Elec       q    Type
REMARK                         _______ _______ _______ _____ _____    ______ ____
ROOT
ATOM      1  C   UNL     1      -9.202  55.539  51.052  0.00  0.00    +0.000 C 
ATOM      2  C   UNL     1      -8.678  55.310  52.406  0.00  0.00    +0.000 C 
ATOM      3  C   UNL     1      -8.138  55.732  50.264  0.00  0.00    +0.000 C 
ATOM      4  O   UNL     1      -9.387  55.127  53.383  0.00  0.00    +0.000 OA
ATOM      5  N   UNL     1      -7.304  55.357  52.338  0.00  0.00    +0.000 N 
ATOM      6  O   UNL     1      -8.168  56.044  48.927  0.00  0.00    +0.000 OA
ATOM      7  C   UNL     1      -6.819  55.593  50.980  0.00  0.00    +0.000 C 
ENDROOT
BRANCH   1  13
ATOM      8  S   UNL     1     -12.458  55.176  48.964  0.00  0.00    +0.000 S 
ATOM      9  O   UNL     1     -12.837  53.779  48.892  0.00  0.00    +0.000 OA
ATOM     10  O   UNL     1     -12.588  56.032  47.800  0.00  0.00    +0.000 OA
ATOM     11  N   UNL     1     -10.920  55.257  49.460  0.00  0.00    +0.000 N 
ATOM     12  C   UNL     1     -13.469  55.892  50.211  0.00  0.00    +0.000 A 
ATOM     13  C   UNL     1     -10.641  55.561  50.692  0.00  0.00    +0.000 C 
ATOM     14  C   UNL     1     -12.888  56.161  51.441  0.00  0.00    +0.000 A 
ATOM     15  C   UNL     1     -14.811  56.167  49.944  0.00  0.00    +0.000 A 
ATOM     16  N   UNL     1     -11.543  55.901  51.672  0.00  0.00    +0.000 N 
ATOM     17  C   UNL     1     -13.689  56.718  52.442  0.00  0.00    +0.000 A 
ATOM     18  C   UNL     1     -15.594  56.734  50.947  0.00  0.00    +0.000 A 
ATOM     19  C   UNL     1     -15.036  57.004  52.195  0.00  0.00    +0.000 A 
ATOM     20  H   UNL     1     -10.191  55.072  48.825  0.00  0.00    +0.000 HD
ATOM     21  H   UNL     1     -11.214  55.962  52.599  0.00  0.00    +0.000 HD
ENDBRANCH   1  13
BRANCH   7  22
ATOM     22  C   UNL     1      -5.883  54.481  50.440  0.00  0.00    +0.000 C 
ATOM     23  C   UNL     1      -5.002  54.975  49.286  0.00  0.00    +0.000 C 
ATOM     24  C   UNL     1      -6.626  53.213  50.003  0.00  0.00    +0.000 C 
ENDBRANCH   7  22
BRANCH   5  25
ATOM     25  C   UNL     1      -6.452  55.122  53.490  0.00  0.00    +0.000 C 
BRANCH  25  26
ATOM     26  C   UNL     1      -6.280  53.642  53.813  0.00  0.00    +0.000 C 
BRANCH  26  27
ATOM     27  C   UNL     1      -4.803  53.210  53.860  0.00  0.00    +0.000 C 
ATOM     28  C   UNL     1      -4.506  52.060  52.896  0.00  0.00    +0.000 C 
ATOM     29  C   UNL     1      -3.908  54.407  53.532  0.00  0.00    +0.000 C 
ENDBRANCH  26  27
ENDBRANCH  25  26
ENDBRANCH   5  25
TORSDOF 5
ENDMDL
MODEL 8
REMARK VINA RESULT:      -7.0      2.908      7.714
REMARK  Name = 
REMARK  9 active torsions:
REMARK  status: ('A' for Active; 'I' for Inactive)
REMARK    1  A    between atoms: C_6  and  C_10
REMARK    2  A    between atoms: N_17  and  C_20
REMARK    3  A    between atoms: C_19  and  C_21
REMARK    4  A    between atoms: C_20  and  C_22
REMARK    5  A    between atoms: C_21  and  C_23
REMARK    6  A    between atoms: C_21  and  C_24
REMARK    7  A    between atoms: C_22  and  C_25
REMARK    8  A    between atoms: C_25  and  C_26
REMARK    9  A    between atoms: C_25  and  C_27
REMARK                            x       y       z     vdW  Elec       q    Type
REMARK                         _______ _______ _______ _____ _____    ______ ____
ROOT
ATOM      1  C   UNL     1     -12.136  54.694  48.446  0.00  0.00    +0.000 C 
ATOM      2  C   UNL     1     -11.599  54.905  47.095  0.00  0.00    +0.000 C 
ATOM      3  C   UNL     1     -11.751  53.469  48.817  0.00  0.00    +0.000 C 
ATOM      4  O   UNL     1     -11.791  55.919  46.441  0.00  0.00    +0.000 OA
ATOM      5  N   UNL     1     -10.891  53.778  46.744  0.00  0.00    +0.000 N 
ATOM      6  O   UNL     1     -12.086  52.836  49.989  0.00  0.00    +0.000 OA
ATOM      7  C   UNL     1     -10.883  52.771  47.802  0.00  0.00    +0.000 C 
ENDROOT
BRANCH   1  13
ATOM      8  S   UNL     1     -14.866  56.144  50.800  0.00  0.00    +0.000 S 
ATOM      9  O   UNL     1     -14.451  55.988  52.180  0.00  0.00    +0.000 OA
ATOM     10  O   UNL     1     -16.246  55.916  50.420  0.00  0.00    +0.000 OA
ATOM     11  N   UNL     1     -13.942  55.182  49.884  0.00  0.00    +0.000 N 
ATOM     12  C   UNL     1     -14.510  57.810  50.370  0.00  0.00    +0.000 A 
ATOM     13  C   UNL     1     -12.957  55.677  49.195  0.00  0.00    +0.000 C 
ATOM     14  C   UNL     1     -13.403  58.050  49.568  0.00  0.00    +0.000 A 
ATOM     15  C   UNL     1     -15.329  58.839  50.836  0.00  0.00    +0.000 A 
ATOM     16  N   UNL     1     -12.618  57.005  49.096  0.00  0.00    +0.000 N 
ATOM     17  C   UNL     1     -13.106  59.374  49.233  0.00  0.00    +0.000 A 
ATOM     18  C   UNL     1     -15.028  60.152  50.484  0.00  0.00    +0.000 A 
ATOM     19  C   UNL     1     -13.916  60.420  49.687  0.00  0.00    +0.000 A 
ATOM     20  H   UNL     1     -14.125  54.215  49.850  0.00  0.00    +0.000 HD
ATOM     21  H   UNL     1     -11.763  57.231  48.664  0.00  0.00    +0.000 HD
ENDBRANCH   1  13
BRANCH   7  22
ATOM     22  C   UNL     1      -9.464  52.383  48.295  0.00  0.00    +0.000 C 
ATOM     23  C   UNL     1      -9.427  50.974  48.901  0.00  0.00    +0.000 C 
ATOM     24  C   UNL     1      -8.867  53.380  49.294  0.00  0.00    +0.000 C 
ENDBRANCH   7  22
BRANCH   5  25
ATOM     25  C   UNL     1     -10.179  53.658  45.484  0.00  0.00    +0.000 C 
BRANCH  25  26
ATOM     26  C   UNL     1     -11.007  52.988  44.393  0.00  0.00    +0.000 C 
BRANCH  26  27
ATOM     27  C   UNL     1     -10.634  51.509  44.187  0.00  0.00    +0.000 C 
ATOM     28  C   UNL     1      -9.247  51.179  44.741  0.00  0.00    +0.000 C 
ATOM     29  C   UNL     1     -11.684  50.618  44.852  0.00  0.00    +0.000 C 
ENDBRANCH  26  27
ENDBRANCH  25  26
ENDBRANCH   5  25
TORSDOF 5
ENDMDL
MODEL 9
REMARK VINA RESULT:      -6.8      3.606      6.569
REMARK  Name = 
REMARK  9 active torsions:
REMARK  status: ('A' for Active; 'I' for Inactive)
REMARK    1  A    between atoms: C_6  and  C_10
REMARK    2  A    between atoms: N_17  and  C_20
REMARK    3  A    between atoms: C_19  and  C_21
REMARK    4  A    between atoms: C_20  and  C_22
REMARK    5  A    between atoms: C_21  and  C_23
REMARK    6  A    between atoms: C_21  and  C_24
REMARK    7  A    between atoms: C_22  and  C_25
REMARK    8  A    between atoms: C_25  and  C_26
REMARK    9  A    between atoms: C_25  and  C_27
REMARK                            x       y       z     vdW  Elec       q    Type
REMARK                         _______ _______ _______ _____ _____    ______ ____
ROOT
ATOM      1  C   UNL     1     -10.780  54.071  50.334  0.00  0.00    +0.000 C 
ATOM      2  C   UNL     1     -11.761  55.133  50.594  0.00  0.00    +0.000 C 
ATOM      3  C   UNL     1     -11.025  53.626  49.096  0.00  0.00    +0.000 C 
ATOM      4  O   UNL     1     -11.839  55.738  51.651  0.00  0.00    +0.000 OA
ATOM      5  N   UNL     1     -12.533  55.277  49.463  0.00  0.00    +0.000 N 
ATOM      6  O   UNL     1     -10.381  52.588  48.468  0.00  0.00    +0.000 OA
ATOM      7  C   UNL     1     -12.130  54.370  48.391  0.00  0.00    +0.000 C 
ENDROOT
BRANCH   1  13
ATOM      8  S   UNL     1      -8.716  51.717  52.634  0.00  0.00    +0.000 S 
ATOM      9  O   UNL     1      -7.779  50.953  51.834  0.00  0.00    +0.000 OA
ATOM     10  O   UNL     1      -9.425  51.087  53.731  0.00  0.00    +0.000 OA
ATOM     11  N   UNL     1      -9.822  52.357  51.641  0.00  0.00    +0.000 N 
ATOM     12  C   UNL     1      -7.793  53.034  53.341  0.00  0.00    +0.000 A 
ATOM     13  C   UNL     1      -9.754  53.609  51.301  0.00  0.00    +0.000 C 
ATOM     14  C   UNL     1      -7.953  54.301  52.800  0.00  0.00    +0.000 A 
ATOM     15  C   UNL     1      -6.931  52.784  54.410  0.00  0.00    +0.000 A 
ATOM     16  N   UNL     1      -8.837  54.528  51.752  0.00  0.00    +0.000 N 
ATOM     17  C   UNL     1      -7.212  55.351  53.348  0.00  0.00    +0.000 A 
ATOM     18  C   UNL     1      -6.208  53.842  54.955  0.00  0.00    +0.000 A 
ATOM     19  C   UNL     1      -6.345  55.123  54.422  0.00  0.00    +0.000 A 
ATOM     20  H   UNL     1     -10.550  51.794  51.292  0.00  0.00    +0.000 HD
ATOM     21  H   UNL     1      -8.803  55.403  51.303  0.00  0.00    +0.000 HD
ENDBRANCH   1  13
BRANCH   7  22
ATOM     22  C   UNL     1     -11.717  55.085  47.078  0.00  0.00    +0.000 C 
ATOM     23  C   UNL     1     -11.859  54.173  45.853  0.00  0.00    +0.000 C 
ATOM     24  C   UNL     1     -10.299  55.667  47.116  0.00  0.00    +0.000 C 
ENDBRANCH   7  22
BRANCH   5  25
ATOM     25  C   UNL     1     -13.579  56.278  49.348  0.00  0.00    +0.000 C 
BRANCH  25  26
ATOM     26  C   UNL     1     -13.036  57.701  49.272  0.00  0.00    +0.000 C 
BRANCH  26  27
ATOM     27  C   UNL     1     -14.011  58.742  49.852  0.00  0.00    +0.000 C 
ATOM     28  C   UNL     1     -14.449  58.392  51.276  0.00  0.00    +0.000 C 
ATOM     29  C   UNL     1     -13.355  60.123  49.835  0.00  0.00    +0.000 C 
ENDBRANCH  26  27
ENDBRANCH  25  26
ENDBRANCH   5  25
TORSDOF 5
ENDMDL
