MODEL 1
REMARK VINA RESULT:      -7.8      0.000      0.000
REMARK  Name = 
REMARK  8 active torsions:
REMARK  status: ('A' for Active; 'I' for Inactive)
REMARK    1  A    between atoms: C_6  and  C_10
REMARK    2  A    between atoms: N_17  and  C_20
REMARK    3  A    between atoms: C_19  and  C_21
REMARK    4  A    between atoms: C_20  and  C_22
REMARK    5  A    between atoms: C_21  and  C_23
REMARK    6  A    between atoms: C_21  and  C_24
REMARK    7  A    between atoms: C_21  and  C_25
REMARK    8  A    between atoms: C_22  and  C_26
REMARK                            x       y       z     vdW  Elec       q    Type
REMARK                         _______ _______ _______ _____ _____    ______ ____
ROOT
ATOM      1  C   UNL     1     -10.731  55.243  47.779  0.00  0.00    +0.000 C 
ATOM      2  C   UNL     1     -12.121  55.690  47.640  0.00  0.00    +0.000 C 
ATOM      3  C   UNL     1     -10.352  55.602  49.011  0.00  0.00    +0.000 C 
ATOM      4  O   UNL     1     -12.762  55.571  46.607  0.00  0.00    +0.000 OA
ATOM      5  N   UNL     1     -12.517  56.262  48.831  0.00  0.00    +0.000 N 
ATOM      6  O   UNL     1      -9.088  55.443  49.527  0.00  0.00    +0.000 OA
ATOM      7  C   UNL     1     -11.459  56.226  49.855  0.00  0.00    +0.000 C 
ENDROOT
BRANCH   1  13
ATOM      8  S   UNL     1      -7.822  54.301  45.363  0.00  0.00    +0.000 S 
ATOM      9  O   UNL     1      -6.849  53.491  46.072  0.00  0.00    +0.000 OA
ATOM     10  O   UNL     1      -7.381  55.317  44.426  0.00  0.00    +0.000 OA
ATOM     11  N   UNL     1      -8.774  55.025  46.459  0.00  0.00    +0.000 N 
ATOM     12  C   UNL     1      -8.805  53.179  44.435  0.00  0.00    +0.000 A 
ATOM     13  C   UNL     1      -9.963  54.564  46.697  0.00  0.00    +0.000 C 
ATOM     14  C   UNL     1     -10.079  52.900  44.902  0.00  0.00    +0.000 A 
ATOM     15  C   UNL     1      -8.301  52.600  43.266  0.00  0.00    +0.000 A 
ATOM     16  N   UNL     1     -10.571  53.511  46.051  0.00  0.00    +0.000 N 
ATOM     17  C   UNL     1     -10.870  52.000  44.181  0.00  0.00    +0.000 A 
ATOM     18  C   UNL     1      -9.101  51.712  42.552  0.00  0.00    +0.000 A 
ATOM     19  C   UNL     1     -10.385  51.411  43.008  0.00  0.00    +0.000 A 
ATOM     20  H   UNL     1      -8.447  55.817  46.946  0.00  0.00    +0.000 HD
ATOM     21  H   UNL     1     -11.412  53.167  46.429  0.00  0.00    +0.000 HD
ENDBRANCH   1  13
BRANCH   7  22
ATOM     22  C   UNL     1     -11.793  55.431  51.177  0.00  0.00    +0.000 C 
ATOM     23  C   UNL     1     -10.556  55.336  52.107  0.00  0.00    +0.000 C 
ATOM     24  C   UNL     1     -12.863  56.147  52.031  0.00  0.00    +0.000 C 
ATOM     25  C   UNL     1     -12.271  53.999  50.869  0.00  0.00    +0.000 C 
ENDBRANCH   7  22
BRANCH   5  26
ATOM     26  C   UNL     1     -13.857  56.808  48.972  0.00  0.00    +0.000 C 
BRANCH  26  27
ATOM     27  C   UNL     1     -14.058  58.214  48.406  0.00  0.00    +0.000 C 
BRANCH  27  28
ATOM     28  C   UNL     1     -13.696  59.249  49.438  0.00  0.00    +0.000 C 
ATOM     29  C   UNL     1     -14.612  59.511  50.603  0.00  0.00    +0.000 C 
ATOM     30  C   UNL     1     -14.462  60.544  49.522  0.00  0.00    +0.000 C 
ENDBRANCH  27  28
ENDBRANCH  26  27
ENDBRANCH   5  26
TORSDOF 5
ENDMDL
MODEL 2
REMARK VINA RESULT:      -7.7      3.680      6.110
REMARK  Name = 
REMARK  8 active torsions:
REMARK  status: ('A' for Active; 'I' for Inactive)
REMARK    1  A    between atoms: C_6  and  C_10
REMARK    2  A    between atoms: N_17  and  C_20
REMARK    3  A    between atoms: C_19  and  C_21
REMARK    4  A    between atoms: C_20  and  C_22
REMARK    5  A    between atoms: C_21  and  C_23
REMARK    6  A    between atoms: C_21  and  C_24
REMARK    7  A    between atoms: C_21  and  C_25
REMARK    8  A    between atoms: C_22  and  C_26
REMARK                            x       y       z     vdW  Elec       q    Type
REMARK                         _______ _______ _______ _____ _____    ______ ____
ROOT
ATOM      1  C   UNL     1     -10.343  55.093  50.623  0.00  0.00    +0.000 C 
ATOM      2  C   UNL     1     -11.394  55.393  51.602  0.00  0.00    +0.000 C 
ATOM      3  C   UNL     1     -10.964  54.981  49.442  0.00  0.00    +0.000 C 
ATOM      4  O   UNL     1     -11.180  55.504  52.799  0.00  0.00    +0.000 OA
ATOM      5  N   UNL     1     -12.598  55.488  50.936  0.00  0.00    +0.000 N 
ATOM      6  O   UNL     1     -10.358  54.624  48.262  0.00  0.00    +0.000 OA
ATOM      7  C   UNL     1     -12.458  55.289  49.483  0.00  0.00    +0.000 C 
ENDROOT
BRANCH   1  13
ATOM      8  S   UNL     1      -6.530  54.373  50.270  0.00  0.00    +0.000 S 
ATOM      9  O   UNL     1      -5.881  55.508  49.642  0.00  0.00    +0.000 OA
ATOM     10  O   UNL     1      -6.139  53.021  49.918  0.00  0.00    +0.000 OA
ATOM     11  N   UNL     1      -8.128  54.502  50.022  0.00  0.00    +0.000 N 
ATOM     12  C   UNL     1      -6.226  54.532  51.994  0.00  0.00    +0.000 A 
ATOM     13  C   UNL     1      -8.904  54.929  50.970  0.00  0.00    +0.000 C 
ATOM     14  C   UNL     1      -7.268  54.970  52.795  0.00  0.00    +0.000 A 
ATOM     15  C   UNL     1      -4.968  54.219  52.519  0.00  0.00    +0.000 A 
ATOM     16  N   UNL     1      -8.519  55.247  52.254  0.00  0.00    +0.000 N 
ATOM     17  C   UNL     1      -7.039  55.113  54.167  0.00  0.00    +0.000 A 
ATOM     18  C   UNL     1      -4.754  54.356  53.888  0.00  0.00    +0.000 A 
ATOM     19  C   UNL     1      -5.788  54.803  54.712  0.00  0.00    +0.000 A 
ATOM     20  H   UNL     1      -8.509  54.255  49.148  0.00  0.00    +0.000 HD
ATOM     21  H   UNL     1      -9.177  55.701  52.828  0.00  0.00    +0.000 HD
ENDBRANCH   1  13
BRANCH   7  22
ATOM     22  C   UNL     1     -12.896  56.498  48.568  0.00  0.00    +0.000 C 
ATOM     23  C   UNL     1     -14.432  56.706  48.602  0.00  0.00    +0.000 C 
ATOM     24  C   UNL     1     -12.314  57.841  49.061  0.00  0.00    +0.000 C 
ATOM     25  C   UNL     1     -12.476  56.277  47.102  0.00  0.00    +0.000 C 
ENDBRANCH   7  22
BRANCH   5  26
ATOM     26  C   UNL     1     -13.822  55.767  51.670  0.00  0.00    +0.000 C 
BRANCH  26  27
ATOM     27  C   UNL     1     -13.830  57.074  52.463  0.00  0.00    +0.000 C 
BRANCH  27  28
ATOM     28  C   UNL     1     -15.062  57.875  52.135  0.00  0.00    +0.000 C 
ATOM     29  C   UNL     1     -14.944  59.177  51.388  0.00  0.00    +0.000 C 
ATOM     30  C   UNL     1     -15.335  59.180  52.840  0.00  0.00    +0.000 C 
ENDBRANCH  27  28
ENDBRANCH  26  27
ENDBRANCH   5  26
TORSDOF 5
ENDMDL
MODEL 3
REMARK VINA RESULT:      -7.4      3.050      7.865
REMARK  Name = 
REMARK  8 active torsions:
REMARK  status: ('A' for Active; 'I' for Inactive)
REMARK    1  A    between atoms: C_6  and  C_10
REMARK    2  A    between atoms: N_17  and  C_20
REMARK    3  A    between atoms: C_19  and  C_21
REMARK    4  A    between atoms: C_20  and  C_22
REMARK    5  A    between atoms: C_21  and  C_23
REMARK    6  A    between atoms: C_21  and  C_24
REMARK    7  A    between atoms: C_21  and  C_25
REMARK    8  A    between atoms: C_22  and  C_26
REMARK                            x       y       z     vdW  Elec       q    Type
REMARK                         _______ _______ _______ _____ _____    ______ ____
ROOT
ATOM      1  C   UNL     1     -11.508  55.786  48.838  0.00  0.00    +0.000 C 
ATOM      2  C   UNL     1     -10.565  54.972  49.612  0.00  0.00    +0.000 C 
ATOM      3  C   UNL     1     -11.319  55.448  47.557  0.00  0.00    +0.000 C 
ATOM      4  O   UNL     1     -10.434  55.070  50.823  0.00  0.00    +0.000 OA
ATOM      5  N   UNL     1      -9.884  54.147  48.742  0.00  0.00    +0.000 N 
ATOM      6  O   UNL     1     -11.946  56.034  46.484  0.00  0.00    +0.000 OA
ATOM      7  C   UNL     1     -10.318  54.316  47.345  0.00  0.00    +0.000 C 
ENDROOT
BRANCH   1  13
ATOM      8  S   UNL     1     -13.483  59.098  49.404  0.00  0.00    +0.000 S 
ATOM      9  O   UNL     1     -14.596  59.160  48.475  0.00  0.00    +0.000 OA
ATOM     10  O   UNL     1     -12.711  60.289  49.700  0.00  0.00    +0.000 OA
ATOM     11  N   UNL     1     -12.450  57.961  48.881  0.00  0.00    +0.000 N 
ATOM     12  C   UNL     1     -14.159  58.565  50.936  0.00  0.00    +0.000 A 
ATOM     13  C   UNL     1     -12.430  56.790  49.440  0.00  0.00    +0.000 C 
ATOM     14  C   UNL     1     -13.937  57.251  51.317  0.00  0.00    +0.000 A 
ATOM     15  C   UNL     1     -14.890  59.454  51.731  0.00  0.00    +0.000 A 
ATOM     16  N   UNL     1     -13.181  56.394  50.524  0.00  0.00    +0.000 N 
ATOM     17  C   UNL     1     -14.478  56.808  52.528  0.00  0.00    +0.000 A 
ATOM     18  C   UNL     1     -15.415  59.004  52.940  0.00  0.00    +0.000 A 
ATOM     19  C   UNL     1     -15.211  57.682  53.338  0.00  0.00    +0.000 A 
ATOM     20  H   UNL     1     -11.837  58.161  48.137  0.00  0.00    +0.000 HD
ATOM     21  H   UNL     1     -13.183  55.436  50.753  0.00  0.00    +0.000 HD
ENDBRANCH   1  13
BRANCH   7  22
ATOM     22  C   UNL     1     -10.923  53.039  46.642  0.00  0.00    +0.000 C 
ATOM     23  C   UNL     1     -11.442  53.369  45.219  0.00  0.00    +0.000 C 
ATOM     24  C   UNL     1      -9.861  51.940  46.420  0.00  0.00    +0.000 C 
ATOM     25  C   UNL     1     -12.094  52.450  47.452  0.00  0.00    +0.000 C 
ENDBRANCH   7  22
BRANCH   5  26
ATOM     26  C   UNL     1      -8.868  53.234  49.241  0.00  0.00    +0.000 C 
BRANCH  26  27
ATOM     27  C   UNL     1      -7.438  53.529  48.789  0.00  0.00    +0.000 C 
BRANCH  27  28
ATOM     28  C   UNL     1      -6.690  54.265  49.869  0.00  0.00    +0.000 C 
ATOM     29  C   UNL     1      -6.870  55.749  50.041  0.00  0.00    +0.000 C 
ATOM     30  C   UNL     1      -5.570  55.209  49.516  0.00  0.00    +0.000 C 
ENDBRANCH  27  28
ENDBRANCH  26  27
ENDBRANCH   5  26
TORSDOF 5
ENDMDL
MODEL 4
REMARK VINA RESULT:      -7.3      2.985      7.509
REMARK  Name = 
REMARK  8 active torsions:
REMARK  status: ('A' for Active; 'I' for Inactive)
REMARK    1  A    between atoms: C_6  and  C_10
REMARK    2  A    between atoms: N_17  and  C_20
REMARK    3  A    between atoms: C_19  and  C_21
REMARK    4  A    between atoms: C_20  and  C_22
REMARK    5  A    between atoms: C_21  and  C_23
REMARK    6  A    between atoms: C_21  and  C_24
REMARK    7  A    between atoms: C_21  and  C_25
REMARK    8  A    between atoms: C_22  and  C_26
REMARK                            x       y       z     vdW  Elec       q    Type
REMARK                         _______ _______ _______ _____ _____    ______ ____
ROOT
ATOM      1  C   UNL     1     -12.335  54.703  49.108  0.00  0.00    +0.000 C 
ATOM      2  C   UNL     1     -11.983  54.443  47.708  0.00  0.00    +0.000 C 
ATOM      3  C   UNL     1     -12.005  53.594  49.781  0.00  0.00    +0.000 C 
ATOM      4  O   UNL     1     -12.205  55.234  46.805  0.00  0.00    +0.000 OA
ATOM      5  N   UNL     1     -11.413  53.189  47.627  0.00  0.00    +0.000 N 
ATOM      6  O   UNL     1     -12.243  53.381  51.118  0.00  0.00    +0.000 OA
ATOM      7  C   UNL     1     -11.313  52.527  48.938  0.00  0.00    +0.000 C 
ENDROOT
BRANCH   1  13
ATOM      8  S   UNL     1     -13.369  58.455  49.311  0.00  0.00    +0.000 S 
ATOM      9  O   UNL     1     -14.419  58.718  48.345  0.00  0.00    +0.000 OA
ATOM     10  O   UNL     1     -12.311  59.425  49.523  0.00  0.00    +0.000 OA
ATOM     11  N   UNL     1     -12.669  57.043  48.926  0.00  0.00    +0.000 N 
ATOM     12  C   UNL     1     -14.172  58.266  50.863  0.00  0.00    +0.000 A 
ATOM     13  C   UNL     1     -12.963  55.966  49.588  0.00  0.00    +0.000 C 
ATOM     14  C   UNL     1     -14.308  56.983  51.367  0.00  0.00    +0.000 A 
ATOM     15  C   UNL     1     -14.648  59.387  51.551  0.00  0.00    +0.000 A 
ATOM     16  N   UNL     1     -13.800  55.886  50.678  0.00  0.00    +0.000 N 
ATOM     17  C   UNL     1     -14.956  56.815  52.595  0.00  0.00    +0.000 A 
ATOM     18  C   UNL     1     -15.282  59.208  52.777  0.00  0.00    +0.000 A 
ATOM     19  C   UNL     1     -15.437  57.923  53.299  0.00  0.00    +0.000 A 
ATOM     20  H   UNL     1     -12.020  57.003  48.187  0.00  0.00    +0.000 HD
ATOM     21  H   UNL     1     -14.057  54.989  50.993  0.00  0.00    +0.000 HD
ENDBRANCH   1  13
BRANCH   7  22
ATOM     22  C   UNL     1      -9.859  52.158  49.426  0.00  0.00    +0.000 C 
ATOM     23  C   UNL     1      -9.894  51.355  50.752  0.00  0.00    +0.000 C 
ATOM     24  C   UNL     1      -9.132  51.226  48.431  0.00  0.00    +0.000 C 
ATOM     25  C   UNL     1      -9.002  53.418  49.653  0.00  0.00    +0.000 C 
ENDBRANCH   7  22
BRANCH   5  26
ATOM     26  C   UNL     1     -10.978  52.664  46.342  0.00  0.00    +0.000 C 
BRANCH  26  27
ATOM     27  C   UNL     1     -10.228  53.652  45.447  0.00  0.00    +0.000 C 
BRANCH  27  28
ATOM     28  C   UNL     1      -8.845  53.900  45.989  0.00  0.00    +0.000 C 
ATOM     29  C   UNL     1      -8.468  55.259  46.513  0.00  0.00    +0.000 C 
ATOM     30  C   UNL     1      -7.870  54.761  45.227  0.00  0.00    +0.000 C 
ENDBRANCH  27  28
ENDBRANCH  26  27
ENDBRANCH   5  26
TORSDOF 5
ENDMDL
MODEL 5
REMARK VINA RESULT:      -7.3      3.699      6.753
REMARK  Name = 
REMARK  8 active torsions:
REMARK  status: ('A' for Active; 'I' for Inactive)
REMARK    1  A    between atoms: C_6  and  C_10
REMARK    2  A    between atoms: N_17  and  C_20
REMARK    3  A    between atoms: C_19  and  C_21
REMARK    4  A    between atoms: C_20  and  C_22
REMARK    5  A    between atoms: C_21  and  C_23
REMARK    6  A    between atoms: C_21  and  C_24
REMARK    7  A    between atoms: C_21  and  C_25
REMARK    8  A    between atoms: C_22  and  C_26
REMARK                            x       y       z     vdW  Elec       q    Type
REMARK                         _______ _______ _______ _____ _____    ______ ____
ROOT
ATOM      1  C   UNL     1     -10.799  54.081  50.622  0.00  0.00    +0.000 C 
ATOM      2  C   UNL     1     -11.716  55.195  50.893  0.00  0.00    +0.000 C 
ATOM      3  C   UNL     1     -11.131  53.621  49.410  0.00  0.00    +0.000 C 
ATOM      4  O   UNL     1     -11.726  55.811  51.948  0.00  0.00    +0.000 OA
ATOM      5  N   UNL     1     -12.529  55.369  49.793  0.00  0.00    +0.000 N 
ATOM      6  O   UNL     1     -10.571  52.523  48.802  0.00  0.00    +0.000 OA
ATOM      7  C   UNL     1     -12.218  54.427  48.705  0.00  0.00    +0.000 C 
ENDROOT
BRANCH   1  13
ATOM      8  S   UNL     1      -8.766  51.744  52.986  0.00  0.00    +0.000 S 
ATOM      9  O   UNL     1      -7.923  50.869  52.191  0.00  0.00    +0.000 OA
ATOM     10  O   UNL     1      -9.446  51.233  54.161  0.00  0.00    +0.000 OA
ATOM     11  N   UNL     1      -9.891  52.388  52.010  0.00  0.00    +0.000 N 
ATOM     12  C   UNL     1      -7.723  53.039  53.554  0.00  0.00    +0.000 A 
ATOM     13  C   UNL     1      -9.762  53.606  51.579  0.00  0.00    +0.000 C 
ATOM     14  C   UNL     1      -7.833  54.274  52.936  0.00  0.00    +0.000 A 
ATOM     15  C   UNL     1      -6.820  52.810  54.598  0.00  0.00    +0.000 A 
ATOM     16  N   UNL     1      -8.759  54.486  51.920  0.00  0.00    +0.000 N 
ATOM     17  C   UNL     1      -7.001  55.312  53.369  0.00  0.00    +0.000 A 
ATOM     18  C   UNL     1      -6.004  53.854  55.026  0.00  0.00    +0.000 A 
ATOM     19  C   UNL     1      -6.093  55.104  54.412  0.00  0.00    +0.000 A 
ATOM     20  H   UNL     1     -10.673  51.853  51.743  0.00  0.00    +0.000 HD
ATOM     21  H   UNL     1      -8.694  55.324  51.408  0.00  0.00    +0.000 HD
ENDBRANCH   1  13
BRANCH   7  22
ATOM     22  C   UNL     1     -11.766  55.066  47.334  0.00  0.00    +0.000 C 
ATOM     23  C   UNL     1     -10.295  55.552  47.395  0.00  0.00    +0.000 C 
ATOM     24  C   UNL     1     -11.785  54.039  46.181  0.00  0.00    +0.000 C 
ATOM     25  C   UNL     1     -12.651  56.267  46.953  0.00  0.00    +0.000 C 
ENDBRANCH   7  22
BRANCH   5  26
ATOM     26  C   UNL     1     -13.550  56.405  49.793  0.00  0.00    +0.000 C 
BRANCH  26  27
ATOM     27  C   UNL     1     -14.888  56.009  50.417  0.00  0.00    +0.000 C 
BRANCH  27  28
ATOM     28  C   UNL     1     -15.442  57.149  51.230  0.00  0.00    +0.000 C 
ATOM     29  C   UNL     1     -14.517  58.042  52.013  0.00  0.00    +0.000 C 
ATOM     30  C   UNL     1     -15.428  57.090  52.737  0.00  0.00    +0.000 C 
ENDBRANCH  27  28
ENDBRANCH  26  27
ENDBRANCH   5  26
TORSDOF 5
ENDMDL
MODEL 6
REMARK VINA RESULT:      -7.1      4.279      8.101
REMARK  Name = 
REMARK  8 active torsions:
REMARK  status: ('A' for Active; 'I' for Inactive)
REMARK    1  A    between atoms: C_6  and  C_10
REMARK    2  A    between atoms: N_17  and  C_20
REMARK    3  A    between atoms: C_19  and  C_21
REMARK    4  A    between atoms: C_20  and  C_22
REMARK    5  A    between atoms: C_21  and  C_23
REMARK    6  A    between atoms: C_21  and  C_24
REMARK    7  A    between atoms: C_21  and  C_25
REMARK    8  A    between atoms: C_22  and  C_26
REMARK                            x       y       z     vdW  Elec       q    Type
REMARK                         _______ _______ _______ _____ _____    ______ ____
ROOT
ATOM      1  C   UNL     1     -10.853  54.894  50.859  0.00  0.00    +0.000 C 
ATOM      2  C   UNL     1      -9.560  55.094  50.196  0.00  0.00    +0.000 C 
ATOM      3  C   UNL     1     -10.763  53.716  51.489  0.00  0.00    +0.000 C 
ATOM      4  O   UNL     1      -9.318  56.054  49.479  0.00  0.00    +0.000 OA
ATOM      5  N   UNL     1      -8.740  54.030  50.507  0.00  0.00    +0.000 N 
ATOM      6  O   UNL     1     -11.787  53.105  52.172  0.00  0.00    +0.000 OA
ATOM      7  C   UNL     1      -9.388  53.059  51.404  0.00  0.00    +0.000 C 
ENDROOT
BRANCH   1  13
ATOM      8  S   UNL     1     -13.504  57.327  49.363  0.00  0.00    +0.000 S 
ATOM      9  O   UNL     1     -14.558  56.560  48.725  0.00  0.00    +0.000 OA
ATOM     10  O   UNL     1     -13.014  58.546  48.748  0.00  0.00    +0.000 OA
ATOM     11  N   UNL     1     -12.231  56.347  49.591  0.00  0.00    +0.000 N 
ATOM     12  C   UNL     1     -14.129  57.795  50.937  0.00  0.00    +0.000 A 
ATOM     13  C   UNL     1     -11.994  55.847  50.765  0.00  0.00    +0.000 C 
ATOM     14  C   UNL     1     -13.656  57.113  52.047  0.00  0.00    +0.000 A 
ATOM     15  C   UNL     1     -15.069  58.825  51.045  0.00  0.00    +0.000 A 
ATOM     16  N   UNL     1     -12.699  56.111  51.918  0.00  0.00    +0.000 N 
ATOM     17  C   UNL     1     -14.152  57.465  53.306  0.00  0.00    +0.000 A 
ATOM     18  C   UNL     1     -15.548  59.173  52.305  0.00  0.00    +0.000 A 
ATOM     19  C   UNL     1     -15.092  58.493  53.435  0.00  0.00    +0.000 A 
ATOM     20  H   UNL     1     -11.637  56.132  48.836  0.00  0.00    +0.000 HD
ATOM     21  H   UNL     1     -12.512  55.552  52.706  0.00  0.00    +0.000 HD
ENDBRANCH   1  13
BRANCH   7  22
ATOM     22  C   UNL     1      -8.693  52.827  52.801  0.00  0.00    +0.000 C 
ATOM     23  C   UNL     1      -9.585  51.976  53.742  0.00  0.00    +0.000 C 
ATOM     24  C   UNL     1      -7.386  52.014  52.672  0.00  0.00    +0.000 C 
ATOM     25  C   UNL     1      -8.388  54.160  53.509  0.00  0.00    +0.000 C 
ENDBRANCH   7  22
BRANCH   5  26
ATOM     26  C   UNL     1      -7.391  53.963  49.967  0.00  0.00    +0.000 C 
BRANCH  26  27
ATOM     27  C   UNL     1      -6.388  54.941  50.579  0.00  0.00    +0.000 C 
BRANCH  27  28
ATOM     28  C   UNL     1      -4.981  54.456  50.352  0.00  0.00    +0.000 C 
ATOM     29  C   UNL     1      -4.675  52.982  50.364  0.00  0.00    +0.000 C 
ATOM     30  C   UNL     1      -4.187  53.857  51.484  0.00  0.00    +0.000 C 
ENDBRANCH  27  28
ENDBRANCH  26  27
ENDBRANCH   5  26
TORSDOF 5
ENDMDL
MODEL 7
REMARK VINA RESULT:      -7.0      1.799      1.986
REMARK  Name = 
REMARK  8 active torsions:
REMARK  status: ('A' for Active; 'I' for Inactive)
REMARK    1  A    between atoms: C_6  and  C_10
REMARK    2  A    between atoms: N_17  and  C_20
REMARK    3  A    between atoms: C_19  and  C_21
REMARK    4  A    between atoms: C_20  and  C_22
REMARK    5  A    between atoms: C_21  and  C_23
REMARK    6  A    between atoms: C_21  and  C_24
REMARK    7  A    between atoms: C_21  and  C_25
REMARK    8  A    between atoms: C_22  and  C_26
REMARK                            x       y       z     vdW  Elec       q    Type
REMARK                         _______ _______ _______ _____ _____    ______ ____
ROOT
ATOM      1  C   UNL     1     -10.603  54.700  48.029  0.00  0.00    +0.000 C 
ATOM      2  C   UNL     1     -11.946  55.235  47.781  0.00  0.00    +0.000 C 
ATOM      3  C   UNL     1     -10.246  55.153  49.237  0.00  0.00    +0.000 C 
ATOM      4  O   UNL     1     -12.553  55.060  46.736  0.00  0.00    +0.000 OA
ATOM      5  N   UNL     1     -12.342  55.954  48.890  0.00  0.00    +0.000 N 
ATOM      6  O   UNL     1      -9.020  54.952  49.825  0.00  0.00    +0.000 OA
ATOM      7  C   UNL     1     -11.332  55.943  49.961  0.00  0.00    +0.000 C 
ENDROOT
BRANCH   1  13
ATOM      8  S   UNL     1      -9.176  53.339  44.668  0.00  0.00    +0.000 S 
ATOM      9  O   UNL     1      -8.090  54.193  44.224  0.00  0.00    +0.000 OA
ATOM     10  O   UNL     1     -10.127  52.809  43.709  0.00  0.00    +0.000 OA
ATOM     11  N   UNL     1     -10.018  54.138  45.802  0.00  0.00    +0.000 N 
ATOM     12  C   UNL     1      -8.420  51.945  45.423  0.00  0.00    +0.000 A 
ATOM     13  C   UNL     1      -9.850  53.858  47.058  0.00  0.00    +0.000 C 
ATOM     14  C   UNL     1      -8.429  51.877  46.807  0.00  0.00    +0.000 A 
ATOM     15  C   UNL     1      -7.836  50.947  44.636  0.00  0.00    +0.000 A 
ATOM     16  N   UNL     1      -9.042  52.867  47.569  0.00  0.00    +0.000 N 
ATOM     17  C   UNL     1      -7.821  50.779  47.424  0.00  0.00    +0.000 A 
ATOM     18  C   UNL     1      -7.242  49.854  45.261  0.00  0.00    +0.000 A 
ATOM     19  C   UNL     1      -7.233  49.769  46.654  0.00  0.00    +0.000 A 
ATOM     20  H   UNL     1     -10.657  54.838  45.536  0.00  0.00    +0.000 HD
ATOM     21  H   UNL     1      -8.887  52.858  48.541  0.00  0.00    +0.000 HD
ENDBRANCH   1  13
BRANCH   7  22
ATOM     22  C   UNL     1     -11.781  55.315  51.338  0.00  0.00    +0.000 C 
ATOM     23  C   UNL     1     -10.601  55.250  52.342  0.00  0.00    +0.000 C 
ATOM     24  C   UNL     1     -12.846  56.178  52.050  0.00  0.00    +0.000 C 
ATOM     25  C   UNL     1     -12.331  53.888  51.155  0.00  0.00    +0.000 C 
ENDBRANCH   7  22
BRANCH   5  26
ATOM     26  C   UNL     1     -13.639  56.612  48.912  0.00  0.00    +0.000 C 
BRANCH  26  27
ATOM     27  C   UNL     1     -13.650  58.060  48.422  0.00  0.00    +0.000 C 
BRANCH  27  28
ATOM     28  C   UNL     1     -13.497  59.005  49.585  0.00  0.00    +0.000 C 
ATOM     29  C   UNL     1     -14.650  59.249  50.521  0.00  0.00    +0.000 C 
ATOM     30  C   UNL     1     -14.203  60.337  49.585  0.00  0.00    +0.000 C 
ENDBRANCH  27  28
ENDBRANCH  26  27
ENDBRANCH   5  26
TORSDOF 5
ENDMDL
MODEL 8
REMARK VINA RESULT:      -7.0      2.887      7.861
REMARK  Name = 
REMARK  8 active torsions:
REMARK  status: ('A' for Active; 'I' for Inactive)
REMARK    1  A    between atoms: C_6  and  C_10
REMARK    2  A    between atoms: N_17  and  C_20
REMARK    3  A    between atoms: C_19  and  C_21
REMARK    4  A    between atoms: C_20  and  C_22
REMARK    5  A    between atoms: C_21  and  C_23
REMARK    6  A    between atoms: C_21  and  C_24
REMARK    7  A    between atoms: C_21  and  C_25
REMARK    8  A    between atoms: C_22  and  C_26
REMARK                            x       y       z     vdW  Elec       q    Type
REMARK                         _______ _______ _______ _____ _____    ______ ____
ROOT
ATOM      1  C   UNL     1     -11.948  54.741  48.594  0.00  0.00    +0.000 C 
ATOM      2  C   UNL     1     -11.351  54.985  47.277  0.00  0.00    +0.000 C 
ATOM      3  C   UNL     1     -11.542  53.519  48.960  0.00  0.00    +0.000 C 
ATOM      4  O   UNL     1     -11.564  55.993  46.622  0.00  0.00    +0.000 OA
ATOM      5  N   UNL     1     -10.572  53.896  46.942  0.00  0.00    +0.000 N 
ATOM      6  O   UNL     1     -11.939  52.863  50.101  0.00  0.00    +0.000 OA
ATOM      7  C   UNL     1     -10.561  52.864  47.992  0.00  0.00    +0.000 C 
ENDROOT
BRANCH   1  13
ATOM      8  S   UNL     1     -14.844  56.147  50.791  0.00  0.00    +0.000 S 
ATOM      9  O   UNL     1     -14.500  56.001  52.193  0.00  0.00    +0.000 OA
ATOM     10  O   UNL     1     -16.200  55.897  50.342  0.00  0.00    +0.000 OA
ATOM     11  N   UNL     1     -13.857  55.193  49.925  0.00  0.00    +0.000 N 
ATOM     12  C   UNL     1     -14.496  57.819  50.378  0.00  0.00    +0.000 A 
ATOM     13  C   UNL     1     -12.845  55.704  49.292  0.00  0.00    +0.000 C 
ATOM     14  C   UNL     1     -13.353  58.077  49.638  0.00  0.00    +0.000 A 
ATOM     15  C   UNL     1     -15.358  58.841  50.789  0.00  0.00    +0.000 A 
ATOM     16  N   UNL     1     -12.526  57.041  49.214  0.00  0.00    +0.000 N 
ATOM     17  C   UNL     1     -13.056  59.403  49.311  0.00  0.00    +0.000 A 
ATOM     18  C   UNL     1     -15.057  60.157  50.449  0.00  0.00    +0.000 A 
ATOM     19  C   UNL     1     -13.907  60.439  49.712  0.00  0.00    +0.000 A 
ATOM     20  H   UNL     1     -14.026  54.224  49.881  0.00  0.00    +0.000 HD
ATOM     21  H   UNL     1     -11.651  57.281  48.831  0.00  0.00    +0.000 HD
ENDBRANCH   1  13
BRANCH   7  22
ATOM     22  C   UNL     1      -9.155  52.525  48.623  0.00  0.00    +0.000 C 
ATOM     23  C   UNL     1      -8.190  51.926  47.567  0.00  0.00    +0.000 C 
ATOM     24  C   UNL     1      -8.429  53.787  49.137  0.00  0.00    +0.000 C 
ATOM     25  C   UNL     1      -9.285  51.514  49.779  0.00  0.00    +0.000 C 
ENDBRANCH   7  22
BRANCH   5  26
ATOM     26  C   UNL     1      -9.867  53.863  45.670  0.00  0.00    +0.000 C 
BRANCH  26  27
ATOM     27  C   UNL     1     -10.392  52.851  44.653  0.00  0.00    +0.000 C 
BRANCH  27  28
ATOM     28  C   UNL     1      -9.290  52.432  43.717  0.00  0.00    +0.000 C 
ATOM     29  C   UNL     1      -9.617  51.916  42.341  0.00  0.00    +0.000 C 
ATOM     30  C   UNL     1      -9.081  50.976  43.385  0.00  0.00    +0.000 C 
ENDBRANCH  27  28
ENDBRANCH  26  27
ENDBRANCH   5  26
TORSDOF 5
ENDMDL
MODEL 9
REMARK VINA RESULT:      -7.0      3.055      7.873
REMARK  Name = 
REMARK  8 active torsions:
REMARK  status: ('A' for Active; 'I' for Inactive)
REMARK    1  A    between atoms: C_6  and  C_10
REMARK    2  A    between atoms: N_17  and  C_20
REMARK    3  A    between atoms: C_19  and  C_21
REMARK    4  A    between atoms: C_20  and  C_22
REMARK    5  A    between atoms: C_21  and  C_23
REMARK    6  A    between atoms: C_21  and  C_24
REMARK    7  A    between atoms: C_21  and  C_25
REMARK    8  A    between atoms: C_22  and  C_26
REMARK                            x       y       z     vdW  Elec       q    Type
REMARK                         _______ _______ _______ _____ _____    ______ ____
ROOT
ATOM      1  C   UNL     1     -11.237  55.276  48.692  0.00  0.00    +0.000 C 
ATOM      2  C   UNL     1     -10.182  54.437  49.270  0.00  0.00    +0.000 C 
ATOM      3  C   UNL     1     -11.127  55.142  47.365  0.00  0.00    +0.000 C 
ATOM      4  O   UNL     1      -9.962  54.371  50.469  0.00  0.00    +0.000 OA
ATOM      5  N   UNL     1      -9.516  53.803  48.241  0.00  0.00    +0.000 N 
ATOM      6  O   UNL     1     -11.877  55.824  46.437  0.00  0.00    +0.000 OA
ATOM      7  C   UNL     1     -10.071  54.135  46.918  0.00  0.00    +0.000 C 
ENDROOT
BRANCH   1  13
ATOM      8  S   UNL     1     -13.727  56.352  51.491  0.00  0.00    +0.000 S 
ATOM      9  O   UNL     1     -12.989  56.644  52.706  0.00  0.00    +0.000 OA
ATOM     10  O   UNL     1     -14.995  55.651  51.557  0.00  0.00    +0.000 OA
ATOM     11  N   UNL     1     -12.755  55.514  50.497  0.00  0.00    +0.000 N 
ATOM     12  C   UNL     1     -14.069  57.906  50.745  0.00  0.00    +0.000 A 
ATOM     13  C   UNL     1     -12.176  56.106  49.498  0.00  0.00    +0.000 C 
ATOM     14  C   UNL     1     -13.317  58.271  49.640  0.00  0.00    +0.000 A 
ATOM     15  C   UNL     1     -15.073  58.731  51.264  0.00  0.00    +0.000 A 
ATOM     16  N   UNL     1     -12.344  57.421  49.124  0.00  0.00    +0.000 N 
ATOM     17  C   UNL     1     -13.570  59.510  49.043  0.00  0.00    +0.000 A 
ATOM     18  C   UNL     1     -15.321  59.957  50.655  0.00  0.00    +0.000 A 
ATOM     19  C   UNL     1     -14.570  60.348  49.546  0.00  0.00    +0.000 A 
ATOM     20  H   UNL     1     -12.604  54.554  50.654  0.00  0.00    +0.000 HD
ATOM     21  H   UNL     1     -11.733  57.784  48.443  0.00  0.00    +0.000 HD
ENDBRANCH   1  13
BRANCH   7  22
ATOM     22  C   UNL     1     -10.640  52.928  46.076  0.00  0.00    +0.000 C 
ATOM     23  C   UNL     1     -11.772  52.190  46.839  0.00  0.00    +0.000 C 
ATOM     24  C   UNL     1     -11.304  53.398  44.763  0.00  0.00    +0.000 C 
ATOM     25  C   UNL     1      -9.540  51.902  45.745  0.00  0.00    +0.000 C 
ENDBRANCH   7  22
BRANCH   5  26
ATOM     26  C   UNL     1      -8.403  52.912  48.529  0.00  0.00    +0.000 C 
BRANCH  26  27
ATOM     27  C   UNL     1      -7.016  53.465  48.201  0.00  0.00    +0.000 C 
BRANCH  27  28
ATOM     28  C   UNL     1      -6.342  53.959  49.453  0.00  0.00    +0.000 C 
ATOM     29  C   UNL     1      -5.863  55.383  49.545  0.00  0.00    +0.000 C 
ATOM     30  C   UNL     1      -4.865  54.263  49.457  0.00  0.00    +0.000 C 
ENDBRANCH  27  28
ENDBRANCH  26  27
ENDBRANCH   5  26
TORSDOF 5
ENDMDL
