MODEL 1
REMARK VINA RESULT:      -8.4      0.000      0.000
REMARK  Name = 
REMARK  8 active torsions:
REMARK  status: ('A' for Active; 'I' for Inactive)
REMARK    1  A    between atoms: C_6  and  C_10
REMARK    2  A    between atoms: N_17  and  C_20
REMARK    3  A    between atoms: C_19  and  C_21
REMARK    4  A    between atoms: C_20  and  C_22
REMARK    5  A    between atoms: C_22  and  C_25
REMARK    6  A    between atoms: C_25  and  C_28
REMARK    7  A    between atoms: C_25  and  C_29
REMARK    8  A    between atoms: C_25  and  C_30
REMARK                            x       y       z     vdW  Elec       q    Type
REMARK                         _______ _______ _______ _____ _____    ______ ____
ROOT
ATOM      1  C   UNL     1     -10.794  55.220  47.936  0.00  0.00    +0.000 C 
ATOM      2  C   UNL     1     -12.154  55.766  47.853  0.00  0.00    +0.000 C 
ATOM      3  C   UNL     1     -10.371  55.468  49.180  0.00  0.00    +0.000 C 
ATOM      4  O   UNL     1     -12.828  55.754  46.834  0.00  0.00    +0.000 OA
ATOM      5  N   UNL     1     -12.462  56.296  49.088  0.00  0.00    +0.000 N 
ATOM      6  O   UNL     1      -9.093  55.299  49.641  0.00  0.00    +0.000 OA
ATOM      7  C   UNL     1     -11.428  56.036  50.081  0.00  0.00    +0.000 C 
ENDROOT
BRANCH   1  13
ATOM      8  S   UNL     1      -7.917  54.337  45.481  0.00  0.00    +0.000 S 
ATOM      9  O   UNL     1      -6.939  53.519  46.175  0.00  0.00    +0.000 OA
ATOM     10  O   UNL     1      -7.487  55.368  44.558  0.00  0.00    +0.000 OA
ATOM     11  N   UNL     1      -8.870  55.036  46.585  0.00  0.00    +0.000 N 
ATOM     12  C   UNL     1      -8.906  53.226  44.547  0.00  0.00    +0.000 A 
ATOM     13  C   UNL     1     -10.053  54.558  46.834  0.00  0.00    +0.000 C 
ATOM     14  C   UNL     1     -10.173  52.928  45.025  0.00  0.00    +0.000 A 
ATOM     15  C   UNL     1      -8.412  52.687  43.356  0.00  0.00    +0.000 A 
ATOM     16  N   UNL     1     -10.658  53.507  46.191  0.00  0.00    +0.000 N 
ATOM     17  C   UNL     1     -10.971  52.056  44.280  0.00  0.00    +0.000 A 
ATOM     18  C   UNL     1      -9.220  51.822  42.623  0.00  0.00    +0.000 A 
ATOM     19  C   UNL     1     -10.499  51.510  43.083  0.00  0.00    +0.000 A 
ATOM     20  H   UNL     1      -8.552  55.829  47.073  0.00  0.00    +0.000 HD
ATOM     21  H   UNL     1     -11.486  53.141  46.579  0.00  0.00    +0.000 HD
ENDBRANCH   1  13
BRANCH   7  22
ATOM     22  C   UNL     1     -11.941  55.140  51.253  0.00  0.00    +0.000 C 
ATOM     23  C   UNL     1     -11.129  55.247  52.556  0.00  0.00    +0.000 C 
ATOM     24  C   UNL     1     -12.170  53.650  50.925  0.00  0.00    +0.000 C 
ATOM     25  C   UNL     1      -9.879  54.368  52.639  0.00  0.00    +0.000 C 
ATOM     26  C   UNL     1     -10.889  52.836  50.841  0.00  0.00    +0.000 C 
ATOM     27  C   UNL     1     -10.049  52.949  52.106  0.00  0.00    +0.000 C 
ENDBRANCH   7  22
BRANCH   5  28
ATOM     28  C   UNL     1     -13.724  56.952  49.383  0.00  0.00    +0.000 C 
BRANCH  28  29
ATOM     29  C   UNL     1     -13.581  58.037  50.451  0.00  0.00    +0.000 C 
BRANCH  29  30
ATOM     30  C   UNL     1     -14.631  57.964  51.587  0.00  0.00    +0.000 C 
ATOM     31  C   UNL     1     -13.962  57.632  52.932  0.00  0.00    +0.000 C 
ATOM     32  C   UNL     1     -15.315  59.339  51.706  0.00  0.00    +0.000 C 
ATOM     33  C   UNL     1     -15.704  56.908  51.273  0.00  0.00    +0.000 C 
ENDBRANCH  29  30
ENDBRANCH  28  29
ENDBRANCH   5  28
TORSDOF 5
ENDMDL
MODEL 2
REMARK VINA RESULT:      -8.1      2.601      7.653
REMARK  Name = 
REMARK  8 active torsions:
REMARK  status: ('A' for Active; 'I' for Inactive)
REMARK    1  A    between atoms: C_6  and  C_10
REMARK    2  A    between atoms: N_17  and  C_20
REMARK    3  A    between atoms: C_19  and  C_21
REMARK    4  A    between atoms: C_20  and  C_22
REMARK    5  A    between atoms: C_22  and  C_25
REMARK    6  A    between atoms: C_25  and  C_28
REMARK    7  A    between atoms: C_25  and  C_29
REMARK    8  A    between atoms: C_25  and  C_30
REMARK                            x       y       z     vdW  Elec       q    Type
REMARK                         _______ _______ _______ _____ _____    ______ ____
ROOT
ATOM      1  C   UNL     1     -11.705  55.325  49.205  0.00  0.00    +0.000 C 
ATOM      2  C   UNL     1     -11.660  54.804  47.833  0.00  0.00    +0.000 C 
ATOM      3  C   UNL     1     -10.841  54.585  49.909  0.00  0.00    +0.000 C 
ATOM      4  O   UNL     1     -12.365  55.220  46.927  0.00  0.00    +0.000 OA
ATOM      5  N   UNL     1     -10.737  53.780  47.810  0.00  0.00    +0.000 N 
ATOM      6  O   UNL     1     -10.698  54.600  51.271  0.00  0.00    +0.000 OA
ATOM      7  C   UNL     1     -10.030  53.636  49.077  0.00  0.00    +0.000 C 
ENDROOT
BRANCH   1  13
ATOM      8  S   UNL     1     -13.438  58.795  49.386  0.00  0.00    +0.000 S 
ATOM      9  O   UNL     1     -14.512  58.838  48.410  0.00  0.00    +0.000 OA
ATOM     10  O   UNL     1     -12.593  59.954  49.596  0.00  0.00    +0.000 OA
ATOM     11  N   UNL     1     -12.476  57.546  49.027  0.00  0.00    +0.000 N 
ATOM     12  C   UNL     1     -14.199  58.458  50.932  0.00  0.00    +0.000 A 
ATOM     13  C   UNL     1     -12.568  56.430  49.688  0.00  0.00    +0.000 C 
ATOM     14  C   UNL     1     -14.093  57.171  51.440  0.00  0.00    +0.000 A 
ATOM     15  C   UNL     1     -14.870  59.476  51.615  0.00  0.00    +0.000 A 
ATOM     16  N   UNL     1     -13.387  56.186  50.762  0.00  0.00    +0.000 N 
ATOM     17  C   UNL     1     -14.684  56.899  52.676  0.00  0.00    +0.000 A 
ATOM     18  C   UNL     1     -15.450  59.191  52.847  0.00  0.00    +0.000 A 
ATOM     19  C   UNL     1     -15.355  57.905  53.378  0.00  0.00    +0.000 A 
ATOM     20  H   UNL     1     -11.815  57.630  48.303  0.00  0.00    +0.000 HD
ATOM     21  H   UNL     1     -13.480  55.255  51.070  0.00  0.00    +0.000 HD
ENDBRANCH   1  13
BRANCH   7  22
ATOM     22  C   UNL     1      -8.500  53.916  48.939  0.00  0.00    +0.000 C 
ATOM     23  C   UNL     1      -7.634  53.365  50.087  0.00  0.00    +0.000 C 
ATOM     24  C   UNL     1      -8.094  55.378  48.661  0.00  0.00    +0.000 C 
ATOM     25  C   UNL     1      -7.525  54.253  51.328  0.00  0.00    +0.000 C 
ATOM     26  C   UNL     1      -8.166  56.278  49.884  0.00  0.00    +0.000 C 
ATOM     27  C   UNL     1      -7.343  55.741  51.047  0.00  0.00    +0.000 C 
ENDBRANCH   7  22
BRANCH   5  28
ATOM     28  C   UNL     1     -10.436  53.002  46.621  0.00  0.00    +0.000 C 
BRANCH  28  29
ATOM     29  C   UNL     1      -9.969  53.875  45.455  0.00  0.00    +0.000 C 
BRANCH  29  30
ATOM     30  C   UNL     1      -8.564  53.520  44.909  0.00  0.00    +0.000 C 
ATOM     31  C   UNL     1      -8.640  53.099  43.431  0.00  0.00    +0.000 C 
ATOM     32  C   UNL     1      -7.670  54.770  45.017  0.00  0.00    +0.000 C 
ATOM     33  C   UNL     1      -7.926  52.389  45.733  0.00  0.00    +0.000 C 
ENDBRANCH  29  30
ENDBRANCH  28  29
ENDBRANCH   5  28
TORSDOF 5
ENDMDL
MODEL 3
REMARK VINA RESULT:      -8.0      3.122      6.442
REMARK  Name = 
REMARK  8 active torsions:
REMARK  status: ('A' for Active; 'I' for Inactive)
REMARK    1  A    between atoms: C_6  and  C_10
REMARK    2  A    between atoms: N_17  and  C_20
REMARK    3  A    between atoms: C_19  and  C_21
REMARK    4  A    between atoms: C_20  and  C_22
REMARK    5  A    between atoms: C_22  and  C_25
REMARK    6  A    between atoms: C_25  and  C_28
REMARK    7  A    between atoms: C_25  and  C_29
REMARK    8  A    between atoms: C_25  and  C_30
REMARK                            x       y       z     vdW  Elec       q    Type
REMARK                         _______ _______ _______ _____ _____    ______ ____
ROOT
ATOM      1  C   UNL     1     -10.775  53.772  50.598  0.00  0.00    +0.000 C 
ATOM      2  C   UNL     1     -11.817  54.735  50.975  0.00  0.00    +0.000 C 
ATOM      3  C   UNL     1     -11.057  53.393  49.347  0.00  0.00    +0.000 C 
ATOM      4  O   UNL     1     -11.894  55.251  52.079  0.00  0.00    +0.000 OA
ATOM      5  N   UNL     1     -12.656  54.882  49.891  0.00  0.00    +0.000 N 
ATOM      6  O   UNL     1     -10.457  52.369  48.665  0.00  0.00    +0.000 OA
ATOM      7  C   UNL     1     -12.181  54.162  48.716  0.00  0.00    +0.000 C 
ENDROOT
BRANCH   1  13
ATOM      8  S   UNL     1      -8.319  51.383  52.426  0.00  0.00    +0.000 S 
ATOM      9  O   UNL     1      -7.325  50.912  51.478  0.00  0.00    +0.000 OA
ATOM     10  O   UNL     1      -8.875  50.479  53.412  0.00  0.00    +0.000 OA
ATOM     11  N   UNL     1      -9.551  52.021  51.595  0.00  0.00    +0.000 N 
ATOM     12  C   UNL     1      -7.553  52.680  53.329  0.00  0.00    +0.000 A 
ATOM     13  C   UNL     1      -9.664  53.309  51.464  0.00  0.00    +0.000 C 
ATOM     14  C   UNL     1      -7.906  53.985  53.013  0.00  0.00    +0.000 A 
ATOM     15  C   UNL     1      -6.634  52.380  54.338  0.00  0.00    +0.000 A 
ATOM     16  N   UNL     1      -8.851  54.258  52.033  0.00  0.00    +0.000 N 
ATOM     17  C   UNL     1      -7.311  55.022  53.736  0.00  0.00    +0.000 A 
ATOM     18  C   UNL     1      -6.054  53.423  55.052  0.00  0.00    +0.000 A 
ATOM     19  C   UNL     1      -6.395  54.743  54.754  0.00  0.00    +0.000 A 
ATOM     20  H   UNL     1     -10.221  51.429  51.185  0.00  0.00    +0.000 HD
ATOM     21  H   UNL     1      -8.944  55.190  51.727  0.00  0.00    +0.000 HD
ENDBRANCH   1  13
BRANCH   7  22
ATOM     22  C   UNL     1     -11.830  55.120  47.533  0.00  0.00    +0.000 C 
ATOM     23  C   UNL     1     -11.864  54.469  46.139  0.00  0.00    +0.000 C 
ATOM     24  C   UNL     1     -10.528  55.935  47.675  0.00  0.00    +0.000 C 
ATOM     25  C   UNL     1     -10.592  53.733  45.713  0.00  0.00    +0.000 C 
ATOM     26  C   UNL     1      -9.267  55.126  47.417  0.00  0.00    +0.000 C 
ATOM     27  C   UNL     1      -9.287  54.444  46.056  0.00  0.00    +0.000 C 
ENDBRANCH   7  22
BRANCH   5  28
ATOM     28  C   UNL     1     -13.826  55.741  49.897  0.00  0.00    +0.000 C 
BRANCH  28  29
ATOM     29  C   UNL     1     -13.517  57.144  50.422  0.00  0.00    +0.000 C 
BRANCH  29  30
ATOM     30  C   UNL     1     -14.598  57.732  51.363  0.00  0.00    +0.000 C 
ATOM     31  C   UNL     1     -15.016  59.140  50.907  0.00  0.00    +0.000 C 
ATOM     32  C   UNL     1     -15.834  56.814  51.316  0.00  0.00    +0.000 C 
ATOM     33  C   UNL     1     -14.086  57.792  52.812  0.00  0.00    +0.000 C 
ENDBRANCH  29  30
ENDBRANCH  28  29
ENDBRANCH   5  28
TORSDOF 5
ENDMDL
MODEL 4
REMARK VINA RESULT:      -8.0      2.885      8.084
REMARK  Name = 
REMARK  8 active torsions:
REMARK  status: ('A' for Active; 'I' for Inactive)
REMARK    1  A    between atoms: C_6  and  C_10
REMARK    2  A    between atoms: N_17  and  C_20
REMARK    3  A    between atoms: C_19  and  C_21
REMARK    4  A    between atoms: C_20  and  C_22
REMARK    5  A    between atoms: C_22  and  C_25
REMARK    6  A    between atoms: C_25  and  C_28
REMARK    7  A    between atoms: C_25  and  C_29
REMARK    8  A    between atoms: C_25  and  C_30
REMARK                            x       y       z     vdW  Elec       q    Type
REMARK                         _______ _______ _______ _____ _____    ______ ____
ROOT
ATOM      1  C   UNL     1     -11.315  55.860  49.063  0.00  0.00    +0.000 C 
ATOM      2  C   UNL     1     -10.313  55.132  49.850  0.00  0.00    +0.000 C 
ATOM      3  C   UNL     1     -11.127  55.490  47.791  0.00  0.00    +0.000 C 
ATOM      4  O   UNL     1     -10.168  55.268  51.055  0.00  0.00    +0.000 OA
ATOM      5  N   UNL     1      -9.593  54.345  48.976  0.00  0.00    +0.000 N 
ATOM      6  O   UNL     1     -11.716  56.060  46.695  0.00  0.00    +0.000 OA
ATOM      7  C   UNL     1     -10.125  54.386  47.620  0.00  0.00    +0.000 C 
ENDROOT
BRANCH   1  13
ATOM      8  S   UNL     1     -13.476  59.069  49.389  0.00  0.00    +0.000 S 
ATOM      9  O   UNL     1     -14.562  59.008  48.426  0.00  0.00    +0.000 OA
ATOM     10  O   UNL     1     -12.784  60.319  49.632  0.00  0.00    +0.000 OA
ATOM     11  N   UNL     1     -12.367  57.968  48.975  0.00  0.00    +0.000 N 
ATOM     12  C   UNL     1     -14.164  58.584  50.930  0.00  0.00    +0.000 A 
ATOM     13  C   UNL     1     -12.305  56.827  49.595  0.00  0.00    +0.000 C 
ATOM     14  C   UNL     1     -13.886  57.305  51.389  0.00  0.00    +0.000 A 
ATOM     15  C   UNL     1     -14.950  59.483  51.656  0.00  0.00    +0.000 A 
ATOM     16  N   UNL     1     -13.070  56.443  50.668  0.00  0.00    +0.000 N 
ATOM     17  C   UNL     1     -14.419  56.916  52.621  0.00  0.00    +0.000 A 
ATOM     18  C   UNL     1     -15.470  59.083  52.883  0.00  0.00    +0.000 A 
ATOM     19  C   UNL     1     -15.202  57.802  53.367  0.00  0.00    +0.000 A 
ATOM     20  H   UNL     1     -11.734  58.162  48.247  0.00  0.00    +0.000 HD
ATOM     21  H   UNL     1     -13.039  55.498  50.944  0.00  0.00    +0.000 HD
ENDBRANCH   1  13
BRANCH   7  22
ATOM     22  C   UNL     1     -10.652  52.993  47.146  0.00  0.00    +0.000 C 
ATOM     23  C   UNL     1      -9.581  52.063  46.549  0.00  0.00    +0.000 C 
ATOM     24  C   UNL     1     -11.880  53.008  46.213  0.00  0.00    +0.000 C 
ATOM     25  C   UNL     1      -9.263  52.272  45.067  0.00  0.00    +0.000 C 
ATOM     26  C   UNL     1     -11.557  53.393  44.778  0.00  0.00    +0.000 C 
ATOM     27  C   UNL     1     -10.476  52.509  44.172  0.00  0.00    +0.000 C 
ENDBRANCH   7  22
BRANCH   5  28
ATOM     28  C   UNL     1      -8.490  53.495  49.389  0.00  0.00    +0.000 C 
BRANCH  28  29
ATOM     29  C   UNL     1      -7.137  54.199  49.277  0.00  0.00    +0.000 C 
BRANCH  29  30
ATOM     30  C   UNL     1      -6.173  53.577  48.237  0.00  0.00    +0.000 C 
ATOM     31  C   UNL     1      -4.710  53.917  48.572  0.00  0.00    +0.000 C 
ATOM     32  C   UNL     1      -6.340  52.046  48.273  0.00  0.00    +0.000 C 
ATOM     33  C   UNL     1      -6.503  54.073  46.819  0.00  0.00    +0.000 C 
ENDBRANCH  29  30
ENDBRANCH  28  29
ENDBRANCH   5  28
TORSDOF 5
ENDMDL
MODEL 5
REMARK VINA RESULT:      -7.9      3.227      6.279
REMARK  Name = 
REMARK  8 active torsions:
REMARK  status: ('A' for Active; 'I' for Inactive)
REMARK    1  A    between atoms: C_6  and  C_10
REMARK    2  A    between atoms: N_17  and  C_20
REMARK    3  A    between atoms: C_19  and  C_21
REMARK    4  A    between atoms: C_20  and  C_22
REMARK    5  A    between atoms: C_22  and  C_25
REMARK    6  A    between atoms: C_25  and  C_28
REMARK    7  A    between atoms: C_25  and  C_29
REMARK    8  A    between atoms: C_25  and  C_30
REMARK                            x       y       z     vdW  Elec       q    Type
REMARK                         _______ _______ _______ _____ _____    ______ ____
ROOT
ATOM      1  C   UNL     1      -9.081  54.192  49.917  0.00  0.00    +0.000 C 
ATOM      2  C   UNL     1     -10.182  55.041  50.389  0.00  0.00    +0.000 C 
ATOM      3  C   UNL     1      -9.601  53.409  48.965  0.00  0.00    +0.000 C 
ATOM      4  O   UNL     1     -10.072  55.850  51.297  0.00  0.00    +0.000 OA
ATOM      5  N   UNL     1     -11.302  54.712  49.655  0.00  0.00    +0.000 N 
ATOM      6  O   UNL     1      -8.979  52.338  48.381  0.00  0.00    +0.000 OA
ATOM      7  C   UNL     1     -11.012  53.756  48.593  0.00  0.00    +0.000 C 
ENDROOT
BRANCH   1  13
ATOM      8  S   UNL     1      -5.232  53.700  50.056  0.00  0.00    +0.000 S 
ATOM      9  O   UNL     1      -4.593  54.753  49.287  0.00  0.00    +0.000 OA
ATOM     10  O   UNL     1      -4.729  52.342  49.996  0.00  0.00    +0.000 OA
ATOM     11  N   UNL     1      -6.799  53.660  49.659  0.00  0.00    +0.000 N 
ATOM     12  C   UNL     1      -5.118  54.189  51.739  0.00  0.00    +0.000 A 
ATOM     13  C   UNL     1      -7.691  54.203  50.433  0.00  0.00    +0.000 C 
ATOM     14  C   UNL     1      -6.260  54.694  52.345  0.00  0.00    +0.000 A 
ATOM     15  C   UNL     1      -3.909  54.050  52.425  0.00  0.00    +0.000 A 
ATOM     16  N   UNL     1      -7.461  54.786  51.654  0.00  0.00    +0.000 N 
ATOM     17  C   UNL     1      -6.180  55.072  53.688  0.00  0.00    +0.000 A 
ATOM     18  C   UNL     1      -3.847  54.428  53.763  0.00  0.00    +0.000 A 
ATOM     19  C   UNL     1      -4.982  54.935  54.394  0.00  0.00    +0.000 A 
ATOM     20  H   UNL     1      -7.080  53.222  48.824  0.00  0.00    +0.000 HD
ATOM     21  H   UNL     1      -8.192  55.301  52.066  0.00  0.00    +0.000 HD
ENDBRANCH   1  13
BRANCH   7  22
ATOM     22  C   UNL     1     -11.264  54.351  47.171  0.00  0.00    +0.000 C 
ATOM     23  C   UNL     1     -11.430  53.308  46.052  0.00  0.00    +0.000 C 
ATOM     24  C   UNL     1     -10.278  55.440  46.701  0.00  0.00    +0.000 C 
ATOM     25  C   UNL     1     -10.135  52.782  45.430  0.00  0.00    +0.000 C 
ATOM     26  C   UNL     1      -8.930  54.896  46.254  0.00  0.00    +0.000 C 
ATOM     27  C   UNL     1      -9.066  53.838  45.168  0.00  0.00    +0.000 C 
ENDBRANCH   7  22
BRANCH   5  28
ATOM     28  C   UNL     1     -12.600  55.330  49.857  0.00  0.00    +0.000 C 
BRANCH  28  29
ATOM     29  C   UNL     1     -12.572  56.840  49.614  0.00  0.00    +0.000 C 
BRANCH  29  30
ATOM     30  C   UNL     1     -13.890  57.424  49.047  0.00  0.00    +0.000 C 
ATOM     31  C   UNL     1     -13.977  57.210  47.526  0.00  0.00    +0.000 C 
ATOM     32  C   UNL     1     -15.072  56.696  49.714  0.00  0.00    +0.000 C 
ATOM     33  C   UNL     1     -14.000  58.926  49.360  0.00  0.00    +0.000 C 
ENDBRANCH  29  30
ENDBRANCH  28  29
ENDBRANCH   5  28
TORSDOF 5
ENDMDL
MODEL 6
REMARK VINA RESULT:      -7.8      2.910      7.642
REMARK  Name = 
REMARK  8 active torsions:
REMARK  status: ('A' for Active; 'I' for Inactive)
REMARK    1  A    between atoms: C_6  and  C_10
REMARK    2  A    between atoms: N_17  and  C_20
REMARK    3  A    between atoms: C_19  and  C_21
REMARK    4  A    between atoms: C_20  and  C_22
REMARK    5  A    between atoms: C_22  and  C_25
REMARK    6  A    between atoms: C_25  and  C_28
REMARK    7  A    between atoms: C_25  and  C_29
REMARK    8  A    between atoms: C_25  and  C_30
REMARK                            x       y       z     vdW  Elec       q    Type
REMARK                         _______ _______ _______ _____ _____    ______ ____
ROOT
ATOM      1  C   UNL     1     -11.596  55.102  49.690  0.00  0.00    +0.000 C 
ATOM      2  C   UNL     1     -11.557  54.658  48.291  0.00  0.00    +0.000 C 
ATOM      3  C   UNL     1     -10.679  54.373  50.335  0.00  0.00    +0.000 C 
ATOM      4  O   UNL     1     -12.304  55.084  47.424  0.00  0.00    +0.000 OA
ATOM      5  N   UNL     1     -10.583  53.687  48.193  0.00  0.00    +0.000 N 
ATOM      6  O   UNL     1     -10.504  54.323  51.692  0.00  0.00    +0.000 OA
ATOM      7  C   UNL     1      -9.840  53.513  49.435  0.00  0.00    +0.000 C 
ENDROOT
BRANCH   1  13
ATOM      8  S   UNL     1     -14.106  56.847  52.084  0.00  0.00    +0.000 S 
ATOM      9  O   UNL     1     -13.388  57.331  53.250  0.00  0.00    +0.000 OA
ATOM     10  O   UNL     1     -15.418  56.249  52.228  0.00  0.00    +0.000 OA
ATOM     11  N   UNL     1     -13.164  55.782  51.313  0.00  0.00    +0.000 N 
ATOM     12  C   UNL     1     -14.316  58.237  51.031  0.00  0.00    +0.000 A 
ATOM     13  C   UNL     1     -12.502  56.133  50.251  0.00  0.00    +0.000 C 
ATOM     14  C   UNL     1     -13.496  58.334  49.916  0.00  0.00    +0.000 A 
ATOM     15  C   UNL     1     -15.295  59.191  51.322  0.00  0.00    +0.000 A 
ATOM     16  N   UNL     1     -12.557  57.353  49.625  0.00  0.00    +0.000 N 
ATOM     17  C   UNL     1     -13.666  59.430  49.066  0.00  0.00    +0.000 A 
ATOM     18  C   UNL     1     -15.455  60.274  50.464  0.00  0.00    +0.000 A 
ATOM     19  C   UNL     1     -14.644  60.392  49.335  0.00  0.00    +0.000 A 
ATOM     20  H   UNL     1     -13.091  54.861  51.651  0.00  0.00    +0.000 HD
ATOM     21  H   UNL     1     -11.888  57.546  48.928  0.00  0.00    +0.000 HD
ENDBRANCH   1  13
BRANCH   7  22
ATOM     22  C   UNL     1      -8.330  53.880  49.280  0.00  0.00    +0.000 C 
ATOM     23  C   UNL     1      -7.446  53.511  50.485  0.00  0.00    +0.000 C 
ATOM     24  C   UNL     1      -8.018  55.329  48.853  0.00  0.00    +0.000 C 
ATOM     25  C   UNL     1      -7.414  54.529  51.628  0.00  0.00    +0.000 C 
ATOM     26  C   UNL     1      -8.168  56.345  49.974  0.00  0.00    +0.000 C 
ATOM     27  C   UNL     1      -7.328  55.988  51.193  0.00  0.00    +0.000 C 
ENDBRANCH   7  22
BRANCH   5  28
ATOM     28  C   UNL     1     -10.272  52.990  46.957  0.00  0.00    +0.000 C 
BRANCH  28  29
ATOM     29  C   UNL     1      -9.868  53.946  45.834  0.00  0.00    +0.000 C 
BRANCH  29  30
ATOM     30  C   UNL     1      -8.559  53.562  45.101  0.00  0.00    +0.000 C 
ATOM     31  C   UNL     1      -7.640  54.785  44.940  0.00  0.00    +0.000 C 
ATOM     32  C   UNL     1      -7.823  52.503  45.944  0.00  0.00    +0.000 C 
ATOM     33  C   UNL     1      -8.863  52.962  43.718  0.00  0.00    +0.000 C 
ENDBRANCH  29  30
ENDBRANCH  28  29
ENDBRANCH   5  28
TORSDOF 5
ENDMDL
MODEL 7
REMARK VINA RESULT:      -7.7      2.712      7.468
REMARK  Name = 
REMARK  8 active torsions:
REMARK  status: ('A' for Active; 'I' for Inactive)
REMARK    1  A    between atoms: C_6  and  C_10
REMARK    2  A    between atoms: N_17  and  C_20
REMARK    3  A    between atoms: C_19  and  C_21
REMARK    4  A    between atoms: C_20  and  C_22
REMARK    5  A    between atoms: C_22  and  C_25
REMARK    6  A    between atoms: C_25  and  C_28
REMARK    7  A    between atoms: C_25  and  C_29
REMARK    8  A    between atoms: C_25  and  C_30
REMARK                            x       y       z     vdW  Elec       q    Type
REMARK                         _______ _______ _______ _____ _____    ______ ____
ROOT
ATOM      1  C   UNL     1     -11.913  54.654  49.614  0.00  0.00    +0.000 C 
ATOM      2  C   UNL     1     -11.071  54.634  48.411  0.00  0.00    +0.000 C 
ATOM      3  C   UNL     1     -11.661  53.511  50.260  0.00  0.00    +0.000 C 
ATOM      4  O   UNL     1     -11.084  55.511  47.561  0.00  0.00    +0.000 OA
ATOM      5  N   UNL     1     -10.345  53.463  48.434  0.00  0.00    +0.000 N 
ATOM      6  O   UNL     1     -12.359  53.027  51.334  0.00  0.00    +0.000 OA
ATOM      7  C   UNL     1     -10.539  52.710  49.667  0.00  0.00    +0.000 C 
ENDROOT
BRANCH   1  13
ATOM      8  S   UNL     1     -15.077  56.396  51.039  0.00  0.00    +0.000 S 
ATOM      9  O   UNL     1     -14.982  56.436  52.487  0.00  0.00    +0.000 OA
ATOM     10  O   UNL     1     -16.344  56.109  50.396  0.00  0.00    +0.000 OA
ATOM     11  N   UNL     1     -13.996  55.327  50.488  0.00  0.00    +0.000 N 
ATOM     12  C   UNL     1     -14.592  57.987  50.475  0.00  0.00    +0.000 A 
ATOM     13  C   UNL     1     -12.863  55.728  49.993  0.00  0.00    +0.000 C 
ATOM     14  C   UNL     1     -13.323  58.121  49.929  0.00  0.00    +0.000 A 
ATOM     15  C   UNL     1     -15.480  59.061  50.571  0.00  0.00    +0.000 A 
ATOM     16  N   UNL     1     -12.473  57.030  49.808  0.00  0.00    +0.000 N 
ATOM     17  C   UNL     1     -12.935  59.381  49.466  0.00  0.00    +0.000 A 
ATOM     18  C   UNL     1     -15.080  60.309  50.102  0.00  0.00    +0.000 A 
ATOM     19  C   UNL     1     -13.811  60.467  49.547  0.00  0.00    +0.000 A 
ATOM     20  H   UNL     1     -14.197  54.364  50.529  0.00  0.00    +0.000 HD
ATOM     21  H   UNL     1     -11.531  57.202  49.575  0.00  0.00    +0.000 HD
ENDBRANCH   1  13
BRANCH   7  22
ATOM     22  C   UNL     1      -9.222  52.578  50.498  0.00  0.00    +0.000 C 
ATOM     23  C   UNL     1      -9.264  51.521  51.615  0.00  0.00    +0.000 C 
ATOM     24  C   UNL     1      -8.639  53.888  51.066  0.00  0.00    +0.000 C 
ATOM     25  C   UNL     1      -9.871  51.975  52.944  0.00  0.00    +0.000 C 
ATOM     26  C   UNL     1      -9.378  54.410  52.288  0.00  0.00    +0.000 C 
ATOM     27  C   UNL     1      -9.461  53.373  53.399  0.00  0.00    +0.000 C 
ENDBRANCH   7  22
BRANCH   5  28
ATOM     28  C   UNL     1      -9.414  53.078  47.388  0.00  0.00    +0.000 C 
BRANCH  28  29
ATOM     29  C   UNL     1     -10.025  52.083  46.401  0.00  0.00    +0.000 C 
BRANCH  29  30
ATOM     30  C   UNL     1     -10.085  52.582  44.936  0.00  0.00    +0.000 C 
ATOM     31  C   UNL     1     -10.167  51.399  43.956  0.00  0.00    +0.000 C 
ATOM     32  C   UNL     1     -11.348  53.447  44.768  0.00  0.00    +0.000 C 
ATOM     33  C   UNL     1      -8.854  53.441  44.601  0.00  0.00    +0.000 C 
ENDBRANCH  29  30
ENDBRANCH  28  29
ENDBRANCH   5  28
TORSDOF 5
ENDMDL
MODEL 8
REMARK VINA RESULT:      -7.6      3.088      7.810
REMARK  Name = 
REMARK  8 active torsions:
REMARK  status: ('A' for Active; 'I' for Inactive)
REMARK    1  A    between atoms: C_6  and  C_10
REMARK    2  A    between atoms: N_17  and  C_20
REMARK    3  A    between atoms: C_19  and  C_21
REMARK    4  A    between atoms: C_20  and  C_22
REMARK    5  A    between atoms: C_22  and  C_25
REMARK    6  A    between atoms: C_25  and  C_28
REMARK    7  A    between atoms: C_25  and  C_29
REMARK    8  A    between atoms: C_25  and  C_30
REMARK                            x       y       z     vdW  Elec       q    Type
REMARK                         _______ _______ _______ _____ _____    ______ ____
ROOT
ATOM      1  C   UNL     1      -7.630  54.582  48.486  0.00  0.00    +0.000 C 
ATOM      2  C   UNL     1      -7.254  53.963  47.209  0.00  0.00    +0.000 C 
ATOM      3  C   UNL     1      -8.649  55.405  48.212  0.00  0.00    +0.000 C 
ATOM      4  O   UNL     1      -6.320  53.186  47.082  0.00  0.00    +0.000 OA
ATOM      5  N   UNL     1      -8.107  54.455  46.244  0.00  0.00    +0.000 N 
ATOM      6  O   UNL     1      -9.191  56.323  49.071  0.00  0.00    +0.000 OA
ATOM      7  C   UNL     1      -9.155  55.300  46.803  0.00  0.00    +0.000 C 
ENDROOT
BRANCH   1  13
ATOM      8  S   UNL     1      -5.224  53.107  51.153  0.00  0.00    +0.000 S 
ATOM      9  O   UNL     1      -3.911  53.706  50.987  0.00  0.00    +0.000 OA
ATOM     10  O   UNL     1      -5.352  51.697  51.461  0.00  0.00    +0.000 OA
ATOM     11  N   UNL     1      -6.087  53.397  49.816  0.00  0.00    +0.000 N 
ATOM     12  C   UNL     1      -5.987  53.969  52.480  0.00  0.00    +0.000 A 
ATOM     13  C   UNL     1      -6.975  54.346  49.795  0.00  0.00    +0.000 C 
ATOM     14  C   UNL     1      -6.961  54.907  52.168  0.00  0.00    +0.000 A 
ATOM     15  C   UNL     1      -5.618  53.687  53.797  0.00  0.00    +0.000 A 
ATOM     16  N   UNL     1      -7.340  55.141  50.852  0.00  0.00    +0.000 N 
ATOM     17  C   UNL     1      -7.582  55.586  53.218  0.00  0.00    +0.000 A 
ATOM     18  C   UNL     1      -6.249  54.370  54.833  0.00  0.00    +0.000 A 
ATOM     19  C   UNL     1      -7.232  55.316  54.544  0.00  0.00    +0.000 A 
ATOM     20  H   UNL     1      -5.938  52.850  49.011  0.00  0.00    +0.000 HD
ATOM     21  H   UNL     1      -7.905  55.926  50.667  0.00  0.00    +0.000 HD
ENDBRANCH   1  13
BRANCH   7  22
ATOM     22  C   UNL     1     -10.581  54.700  46.585  0.00  0.00    +0.000 C 
ATOM     23  C   UNL     1     -11.729  55.724  46.635  0.00  0.00    +0.000 C 
ATOM     24  C   UNL     1     -10.952  53.485  47.460  0.00  0.00    +0.000 C 
ATOM     25  C   UNL     1     -12.258  56.069  48.029  0.00  0.00    +0.000 C 
ATOM     26  C   UNL     1     -11.304  53.846  48.895  0.00  0.00    +0.000 C 
ATOM     27  C   UNL     1     -12.417  54.882  48.974  0.00  0.00    +0.000 C 
ENDBRANCH   7  22
BRANCH   5  28
ATOM     28  C   UNL     1      -8.023  54.088  44.841  0.00  0.00    +0.000 C 
BRANCH  28  29
ATOM     29  C   UNL     1      -8.314  52.605  44.609  0.00  0.00    +0.000 C 
BRANCH  29  30
ATOM     30  C   UNL     1      -9.150  52.305  43.339  0.00  0.00    +0.000 C 
ATOM     31  C   UNL     1      -9.094  50.808  42.987  0.00  0.00    +0.000 C 
ATOM     32  C   UNL     1     -10.615  52.688  43.619  0.00  0.00    +0.000 C 
ATOM     33  C   UNL     1      -8.646  53.132  42.145  0.00  0.00    +0.000 C 
ENDBRANCH  29  30
ENDBRANCH  28  29
ENDBRANCH   5  28
TORSDOF 5
ENDMDL
MODEL 9
REMARK VINA RESULT:      -7.5      2.716      7.558
REMARK  Name = 
REMARK  8 active torsions:
REMARK  status: ('A' for Active; 'I' for Inactive)
REMARK    1  A    between atoms: C_6  and  C_10
REMARK    2  A    between atoms: N_17  and  C_20
REMARK    3  A    between atoms: C_19  and  C_21
REMARK    4  A    between atoms: C_20  and  C_22
REMARK    5  A    between atoms: C_22  and  C_25
REMARK    6  A    between atoms: C_25  and  C_28
REMARK    7  A    between atoms: C_25  and  C_29
REMARK    8  A    between atoms: C_25  and  C_30
REMARK                            x       y       z     vdW  Elec       q    Type
REMARK                         _______ _______ _______ _____ _____    ______ ____
ROOT
ATOM      1  C   UNL     1     -10.863  54.981  50.213  0.00  0.00    +0.000 C 
ATOM      2  C   UNL     1     -10.613  53.820  51.076  0.00  0.00    +0.000 C 
ATOM      3  C   UNL     1      -9.826  55.045  49.371  0.00  0.00    +0.000 C 
ATOM      4  O   UNL     1     -11.344  53.492  51.999  0.00  0.00    +0.000 OA
ATOM      5  N   UNL     1      -9.428  53.248  50.667  0.00  0.00    +0.000 N 
ATOM      6  O   UNL     1      -9.551  56.078  48.515  0.00  0.00    +0.000 OA
ATOM      7  C   UNL     1      -8.889  53.877  49.467  0.00  0.00    +0.000 C 
ENDROOT
BRANCH   1  13
ATOM      8  S   UNL     1     -13.723  57.370  49.121  0.00  0.00    +0.000 S 
ATOM      9  O   UNL     1     -14.817  56.581  48.582  0.00  0.00    +0.000 OA
ATOM     10  O   UNL     1     -13.346  58.622  48.496  0.00  0.00    +0.000 OA
ATOM     11  N   UNL     1     -12.404  56.435  49.180  0.00  0.00    +0.000 N 
ATOM     12  C   UNL     1     -14.175  57.764  50.772  0.00  0.00    +0.000 A 
ATOM     13  C   UNL     1     -12.026  55.897  50.301  0.00  0.00    +0.000 C 
ATOM     14  C   UNL     1     -13.563  57.056  51.797  0.00  0.00    +0.000 A 
ATOM     15  C   UNL     1     -15.112  58.771  51.016  0.00  0.00    +0.000 A 
ATOM     16  N   UNL     1     -12.606  56.086  51.531  0.00  0.00    +0.000 N 
ATOM     17  C   UNL     1     -13.908  57.374  53.113  0.00  0.00    +0.000 A 
ATOM     18  C   UNL     1     -15.441  59.078  52.333  0.00  0.00    +0.000 A 
ATOM     19  C   UNL     1     -14.837  58.383  53.380  0.00  0.00    +0.000 A 
ATOM     20  H   UNL     1     -11.884  56.272  48.361  0.00  0.00    +0.000 HD
ATOM     21  H   UNL     1     -12.326  55.498  52.270  0.00  0.00    +0.000 HD
ENDBRANCH   1  13
BRANCH   7  22
ATOM     22  C   UNL     1      -8.830  52.892  48.255  0.00  0.00    +0.000 C 
ATOM     23  C   UNL     1      -7.852  53.297  47.138  0.00  0.00    +0.000 C 
ATOM     24  C   UNL     1     -10.182  52.503  47.623  0.00  0.00    +0.000 C 
ATOM     25  C   UNL     1      -8.390  54.288  46.104  0.00  0.00    +0.000 C 
ATOM     26  C   UNL     1     -10.779  53.585  46.737  0.00  0.00    +0.000 C 
ATOM     27  C   UNL     1      -9.820  54.028  45.640  0.00  0.00    +0.000 C 
ENDBRANCH   7  22
BRANCH   5  28
ATOM     28  C   UNL     1      -8.839  52.084  51.306  0.00  0.00    +0.000 C 
BRANCH  28  29
ATOM     29  C   UNL     1      -7.571  52.428  52.088  0.00  0.00    +0.000 C 
BRANCH  29  30
ATOM     30  C   UNL     1      -7.802  52.724  53.591  0.00  0.00    +0.000 C 
ATOM     31  C   UNL     1      -6.568  52.335  54.423  0.00  0.00    +0.000 C 
ATOM     32  C   UNL     1      -8.048  54.236  53.756  0.00  0.00    +0.000 C 
ATOM     33  C   UNL     1      -9.034  51.967  54.114  0.00  0.00    +0.000 C 
ENDBRANCH  29  30
ENDBRANCH  28  29
ENDBRANCH   5  28
TORSDOF 5
ENDMDL
