MODEL 1
REMARK VINA RESULT:      -9.2      0.000      0.000
REMARK  Name = 
REMARK  5 active torsions:
REMARK  status: ('A' for Active; 'I' for Inactive)
REMARK    1  A    between atoms: C_6  and  C_10
REMARK    2  A    between atoms: N_17  and  C_20
REMARK    3  A    between atoms: C_19  and  C_21
REMARK    4  A    between atoms: C_20  and  C_22
REMARK    5  A    between atoms: C_21  and  C_23
REMARK                            x       y       z     vdW  Elec       q    Type
REMARK                         _______ _______ _______ _____ _____    ______ ____
ROOT
ATOM      1  C   UNL     1     -11.231  55.762  49.276  0.00  0.00    +0.000 C 
ATOM      2  C   UNL     1     -11.468  54.370  48.867  0.00  0.00    +0.000 C 
ATOM      3  C   UNL     1      -9.910  55.956  49.179  0.00  0.00    +0.000 C 
ATOM      4  O   UNL     1     -12.534  53.794  49.009  0.00  0.00    +0.000 OA
ATOM      5  N   UNL     1     -10.288  53.894  48.322  0.00  0.00    +0.000 N 
ATOM      6  O   UNL     1      -9.243  57.110  49.496  0.00  0.00    +0.000 OA
ATOM      7  C   UNL     1      -9.159  54.741  48.701  0.00  0.00    +0.000 C 
ENDROOT
BRANCH   1  13
ATOM      8  S   UNL     1     -13.428  58.967  49.408  0.00  0.00    +0.000 S 
ATOM      9  O   UNL     1     -14.482  58.868  48.429  0.00  0.00    +0.000 OA
ATOM     10  O   UNL     1     -12.735  60.224  49.622  0.00  0.00    +0.000 OA
ATOM     11  N   UNL     1     -12.304  57.849  49.066  0.00  0.00    +0.000 N 
ATOM     12  C   UNL     1     -14.150  58.543  50.953  0.00  0.00    +0.000 A 
ATOM     13  C   UNL     1     -12.251  56.737  49.735  0.00  0.00    +0.000 C 
ATOM     14  C   UNL     1     -13.867  57.289  51.480  0.00  0.00    +0.000 A 
ATOM     15  C   UNL     1     -14.965  59.464  51.612  0.00  0.00    +0.000 A 
ATOM     16  N   UNL     1     -13.036  56.393  50.807  0.00  0.00    +0.000 N 
ATOM     17  C   UNL     1     -14.403  56.965  52.726  0.00  0.00    +0.000 A 
ATOM     18  C   UNL     1     -15.507  59.120  52.844  0.00  0.00    +0.000 A 
ATOM     19  C   UNL     1     -15.218  57.876  53.406  0.00  0.00    +0.000 A 
ATOM     20  H   UNL     1     -11.654  58.015  48.345  0.00  0.00    +0.000 HD
ATOM     21  H   UNL     1     -13.014  55.459  51.120  0.00  0.00    +0.000 HD
ENDBRANCH   1  13
BRANCH   5  22
ATOM     22  C   UNL     1     -10.146  52.534  47.817  0.00  0.00    +0.000 C 
BRANCH  22  23
ATOM     23  C   UNL     1     -10.102  52.493  46.302  0.00  0.00    +0.000 A 
ATOM     24  C   UNL     1      -8.997  51.937  45.636  0.00  0.00    +0.000 A 
ATOM     25  C   UNL     1     -11.132  53.062  45.530  0.00  0.00    +0.000 A 
ATOM     26  C   UNL     1      -8.890  52.007  44.245  0.00  0.00    +0.000 A 
ATOM     27  C   UNL     1     -11.031  53.119  44.137  0.00  0.00    +0.000 A 
ATOM     28  C   UNL     1      -9.901  52.608  43.508  0.00  0.00    +0.000 A 
ATOM     29  F   UNL     1      -9.777  52.712  42.179  0.00  0.00    +0.000 F 
ENDBRANCH  22  23
ENDBRANCH   5  22
BRANCH   7  30
ATOM     30  C   UNL     1      -8.119  54.991  47.590  0.00  0.00    +0.000 C 
BRANCH  30  31
ATOM     31  C   UNL     1      -6.716  54.529  47.913  0.00  0.00    +0.000 A 
ATOM     32  C   UNL     1      -6.023  53.618  47.118  0.00  0.00    +0.000 A 
ATOM     33  C   UNL     1      -6.075  54.969  49.076  0.00  0.00    +0.000 A 
ATOM     34  N   UNL     1      -4.810  53.101  47.428  0.00  0.00    +0.000 NA
ATOM     35  C   UNL     1      -4.831  54.448  49.426  0.00  0.00    +0.000 A 
ATOM     36  C   UNL     1      -4.255  53.509  48.589  0.00  0.00    +0.000 A 
ENDBRANCH  30  31
ENDBRANCH   7  30
TORSDOF 5
ENDMDL
MODEL 2
REMARK VINA RESULT:      -9.2      3.302      7.462
REMARK  Name = 
REMARK  5 active torsions:
REMARK  status: ('A' for Active; 'I' for Inactive)
REMARK    1  A    between atoms: C_6  and  C_10
REMARK    2  A    between atoms: N_17  and  C_20
REMARK    3  A    between atoms: C_19  and  C_21
REMARK    4  A    between atoms: C_20  and  C_22
REMARK    5  A    between atoms: C_21  and  C_23
REMARK                            x       y       z     vdW  Elec       q    Type
REMARK                         _______ _______ _______ _____ _____    ______ ____
ROOT
ATOM      1  C   UNL     1      -9.070  55.159  50.015  0.00  0.00    +0.000 C 
ATOM      2  C   UNL     1      -9.496  55.271  48.612  0.00  0.00    +0.000 C 
ATOM      3  C   UNL     1     -10.157  55.415  50.753  0.00  0.00    +0.000 C 
ATOM      4  O   UNL     1      -8.724  55.283  47.668  0.00  0.00    +0.000 OA
ATOM      5  N   UNL     1     -10.878  55.355  48.607  0.00  0.00    +0.000 N 
ATOM      6  O   UNL     1     -10.208  55.451  52.122  0.00  0.00    +0.000 OA
ATOM      7  C   UNL     1     -11.384  55.709  49.931  0.00  0.00    +0.000 C 
ENDROOT
BRANCH   1  13
ATOM      8  S   UNL     1      -5.437  53.778  50.093  0.00  0.00    +0.000 S 
ATOM      9  O   UNL     1      -4.581  54.631  49.307  0.00  0.00    +0.000 OA
ATOM     10  O   UNL     1      -5.287  52.335  50.045  0.00  0.00    +0.000 OA
ATOM     11  N   UNL     1      -6.979  54.115  49.722  0.00  0.00    +0.000 N 
ATOM     12  C   UNL     1      -5.180  54.235  51.771  0.00  0.00    +0.000 A 
ATOM     13  C   UNL     1      -7.702  54.858  50.504  0.00  0.00    +0.000 C 
ATOM     14  C   UNL     1      -6.165  54.990  52.396  0.00  0.00    +0.000 A 
ATOM     15  C   UNL     1      -4.021  53.824  52.430  0.00  0.00    +0.000 A 
ATOM     16  N   UNL     1      -7.321  55.374  51.718  0.00  0.00    +0.000 N 
ATOM     17  C   UNL     1      -5.985  55.318  53.740  0.00  0.00    +0.000 A 
ATOM     18  C   UNL     1      -3.848  54.175  53.764  0.00  0.00    +0.000 A 
ATOM     19  C   UNL     1      -4.834  54.912  54.421  0.00  0.00    +0.000 A 
ATOM     20  H   UNL     1      -7.371  53.752  48.894  0.00  0.00    +0.000 HD
ATOM     21  H   UNL     1      -7.896  56.057  52.134  0.00  0.00    +0.000 HD
ENDBRANCH   1  13
BRANCH   5  22
ATOM     22  C   UNL     1     -11.653  55.490  47.380  0.00  0.00    +0.000 C 
BRANCH  22  23
ATOM     23  C   UNL     1     -11.793  54.169  46.648  0.00  0.00    +0.000 A 
ATOM     24  C   UNL     1     -12.213  53.017  47.332  0.00  0.00    +0.000 A 
ATOM     25  C   UNL     1     -11.448  54.053  45.289  0.00  0.00    +0.000 A 
ATOM     26  C   UNL     1     -12.225  51.772  46.698  0.00  0.00    +0.000 A 
ATOM     27  C   UNL     1     -11.475  52.809  44.651  0.00  0.00    +0.000 A 
ATOM     28  C   UNL     1     -11.844  51.676  45.367  0.00  0.00    +0.000 A 
ATOM     29  F   UNL     1     -11.815  50.477  44.773  0.00  0.00    +0.000 F 
ENDBRANCH  22  23
ENDBRANCH   5  22
BRANCH   7  30
ATOM     30  C   UNL     1     -12.670  54.977  50.364  0.00  0.00    +0.000 C 
BRANCH  30  31
ATOM     31  C   UNL     1     -13.691  55.841  51.070  0.00  0.00    +0.000 A 
ATOM     32  C   UNL     1     -14.997  55.991  50.611  0.00  0.00    +0.000 A 
ATOM     33  C   UNL     1     -13.331  56.578  52.204  0.00  0.00    +0.000 A 
ATOM     34  N   UNL     1     -15.907  56.834  51.154  0.00  0.00    +0.000 NA
ATOM     35  C   UNL     1     -14.242  57.461  52.779  0.00  0.00    +0.000 A 
ATOM     36  C   UNL     1     -15.498  57.569  52.210  0.00  0.00    +0.000 A 
ENDBRANCH  30  31
ENDBRANCH   7  30
TORSDOF 5
ENDMDL
MODEL 3
REMARK VINA RESULT:      -8.9      4.209      8.820
REMARK  Name = 
REMARK  5 active torsions:
REMARK  status: ('A' for Active; 'I' for Inactive)
REMARK    1  A    between atoms: C_6  and  C_10
REMARK    2  A    between atoms: N_17  and  C_20
REMARK    3  A    between atoms: C_19  and  C_21
REMARK    4  A    between atoms: C_20  and  C_22
REMARK    5  A    between atoms: C_21  and  C_23
REMARK                            x       y       z     vdW  Elec       q    Type
REMARK                         _______ _______ _______ _____ _____    ______ ____
ROOT
ATOM      1  C   UNL     1     -10.175  53.478  49.330  0.00  0.00    +0.000 C 
ATOM      2  C   UNL     1      -9.807  52.843  50.605  0.00  0.00    +0.000 C 
ATOM      3  C   UNL     1     -11.179  54.317  49.611  0.00  0.00    +0.000 C 
ATOM      4  O   UNL     1      -9.053  51.889  50.694  0.00  0.00    +0.000 OA
ATOM      5  N   UNL     1     -10.467  53.528  51.611  0.00  0.00    +0.000 N 
ATOM      6  O   UNL     1     -11.852  55.095  48.706  0.00  0.00    +0.000 OA
ATOM      7  C   UNL     1     -11.563  54.326  51.067  0.00  0.00    +0.000 C 
ENDROOT
BRANCH   1  13
ATOM      8  S   UNL     1      -7.490  53.058  46.551  0.00  0.00    +0.000 S 
ATOM      9  O   UNL     1      -6.829  51.786  46.708  0.00  0.00    +0.000 OA
ATOM     10  O   UNL     1      -6.733  54.243  46.191  0.00  0.00    +0.000 OA
ATOM     11  N   UNL     1      -8.289  53.394  47.920  0.00  0.00    +0.000 N 
ATOM     12  C   UNL     1      -8.680  52.839  45.277  0.00  0.00    +0.000 A 
ATOM     13  C   UNL     1      -9.573  53.210  48.001  0.00  0.00    +0.000 C 
ATOM     14  C   UNL     1     -10.015  52.735  45.647  0.00  0.00    +0.000 A 
ATOM     15  C   UNL     1      -8.268  52.792  43.945  0.00  0.00    +0.000 A 
ATOM     16  N   UNL     1     -10.402  52.801  46.986  0.00  0.00    +0.000 N 
ATOM     17  C   UNL     1     -10.968  52.605  44.637  0.00  0.00    +0.000 A 
ATOM     18  C   UNL     1      -9.228  52.643  42.950  0.00  0.00    +0.000 A 
ATOM     19  C   UNL     1     -10.577  52.560  43.295  0.00  0.00    +0.000 A 
ATOM     20  H   UNL     1      -7.797  53.742  48.699  0.00  0.00    +0.000 HD
ATOM     21  H   UNL     1     -11.323  52.538  47.215  0.00  0.00    +0.000 HD
ENDBRANCH   1  13
BRANCH   5  22
ATOM     22  C   UNL     1     -10.348  53.166  53.017  0.00  0.00    +0.000 C 
BRANCH  22  23
ATOM     23  C   UNL     1      -9.048  53.657  53.623  0.00  0.00    +0.000 A 
ATOM     24  C   UNL     1      -8.808  55.033  53.777  0.00  0.00    +0.000 A 
ATOM     25  C   UNL     1      -8.029  52.756  53.984  0.00  0.00    +0.000 A 
ATOM     26  C   UNL     1      -7.567  55.499  54.216  0.00  0.00    +0.000 A 
ATOM     27  C   UNL     1      -6.791  53.223  54.438  0.00  0.00    +0.000 A 
ATOM     28  C   UNL     1      -6.565  54.591  54.531  0.00  0.00    +0.000 A 
ATOM     29  F   UNL     1      -5.363  55.040  54.911  0.00  0.00    +0.000 F 
ENDBRANCH  22  23
ENDBRANCH   5  22
BRANCH   7  30
ATOM     30  C   UNL     1     -11.746  55.719  51.702  0.00  0.00    +0.000 C 
BRANCH  30  31
ATOM     31  C   UNL     1     -13.180  56.186  51.818  0.00  0.00    +0.000 A 
ATOM     32  C   UNL     1     -14.181  55.763  50.947  0.00  0.00    +0.000 A 
ATOM     33  C   UNL     1     -13.544  57.120  52.793  0.00  0.00    +0.000 A 
ATOM     34  N   UNL     1     -15.449  56.236  50.953  0.00  0.00    +0.000 NA
ATOM     35  C   UNL     1     -14.838  57.633  52.819  0.00  0.00    +0.000 A 
ATOM     36  C   UNL     1     -15.741  57.180  51.873  0.00  0.00    +0.000 A 
ENDBRANCH  30  31
ENDBRANCH   7  30
TORSDOF 5
ENDMDL
MODEL 4
REMARK VINA RESULT:      -8.9      2.011      3.768
REMARK  Name = 
REMARK  5 active torsions:
REMARK  status: ('A' for Active; 'I' for Inactive)
REMARK    1  A    between atoms: C_6  and  C_10
REMARK    2  A    between atoms: N_17  and  C_20
REMARK    3  A    between atoms: C_19  and  C_21
REMARK    4  A    between atoms: C_20  and  C_22
REMARK    5  A    between atoms: C_21  and  C_23
REMARK                            x       y       z     vdW  Elec       q    Type
REMARK                         _______ _______ _______ _____ _____    ______ ____
ROOT
ATOM      1  C   UNL     1     -11.866  55.474  48.884  0.00  0.00    +0.000 C 
ATOM      2  C   UNL     1     -11.018  54.520  49.615  0.00  0.00    +0.000 C 
ATOM      3  C   UNL     1     -11.711  55.188  47.585  0.00  0.00    +0.000 C 
ATOM      4  O   UNL     1     -10.770  54.607  50.806  0.00  0.00    +0.000 OA
ATOM      5  N   UNL     1     -10.593  53.567  48.705  0.00  0.00    +0.000 N 
ATOM      6  O   UNL     1     -12.296  55.854  46.541  0.00  0.00    +0.000 OA
ATOM      7  C   UNL     1     -10.771  54.038  47.334  0.00  0.00    +0.000 C 
ENDROOT
BRANCH   1  13
ATOM      8  S   UNL     1     -13.499  58.965  49.391  0.00  0.00    +0.000 S 
ATOM      9  O   UNL     1     -14.591  59.125  48.462  0.00  0.00    +0.000 OA
ATOM     10  O   UNL     1     -12.602  60.070  49.673  0.00  0.00    +0.000 OA
ATOM     11  N   UNL     1     -12.588  57.716  48.902  0.00  0.00    +0.000 N 
ATOM     12  C   UNL     1     -14.225  58.526  50.930  0.00  0.00    +0.000 A 
ATOM     13  C   UNL     1     -12.694  56.554  49.473  0.00  0.00    +0.000 C 
ATOM     14  C   UNL     1     -14.133  57.201  51.337  0.00  0.00    +0.000 A 
ATOM     15  C   UNL     1     -14.852  59.503  51.704  0.00  0.00    +0.000 A 
ATOM     16  N   UNL     1     -13.486  56.247  50.552  0.00  0.00    +0.000 N 
ATOM     17  C   UNL     1     -14.668  56.857  52.578  0.00  0.00    +0.000 A 
ATOM     18  C   UNL     1     -15.398  59.142  52.930  0.00  0.00    +0.000 A 
ATOM     19  C   UNL     1     -15.297  57.822  53.371  0.00  0.00    +0.000 A 
ATOM     20  H   UNL     1     -11.947  57.840  48.165  0.00  0.00    +0.000 HD
ATOM     21  H   UNL     1     -13.606  55.297  50.784  0.00  0.00    +0.000 HD
ENDBRANCH   1  13
BRANCH   5  22
ATOM     22  C   UNL     1      -9.718  52.462  49.075  0.00  0.00    +0.000 C 
BRANCH  22  23
ATOM     23  C   UNL     1      -8.304  52.662  48.564  0.00  0.00    +0.000 A 
ATOM     24  C   UNL     1      -7.553  53.780  48.964  0.00  0.00    +0.000 A 
ATOM     25  C   UNL     1      -7.736  51.772  47.633  0.00  0.00    +0.000 A 
ATOM     26  C   UNL     1      -6.300  54.038  48.404  0.00  0.00    +0.000 A 
ATOM     27  C   UNL     1      -6.475  52.024  47.083  0.00  0.00    +0.000 A 
ATOM     28  C   UNL     1      -5.777  53.166  47.459  0.00  0.00    +0.000 A 
ATOM     29  F   UNL     1      -4.595  53.438  46.892  0.00  0.00    +0.000 F 
ENDBRANCH  22  23
ENDBRANCH   5  22
BRANCH   7  30
ATOM     30  C   UNL     1     -11.267  52.977  46.330  0.00  0.00    +0.000 C 
BRANCH  30  31
ATOM     31  C   UNL     1     -10.455  52.873  45.058  0.00  0.00    +0.000 A 
ATOM     32  C   UNL     1     -10.803  52.022  44.012  0.00  0.00    +0.000 A 
ATOM     33  C   UNL     1      -9.273  53.606  44.910  0.00  0.00    +0.000 A 
ATOM     34  N   UNL     1     -10.049  51.824  42.905  0.00  0.00    +0.000 NA
ATOM     35  C   UNL     1      -8.472  53.416  43.787  0.00  0.00    +0.000 A 
ATOM     36  C   UNL     1      -8.887  52.506  42.831  0.00  0.00    +0.000 A 
ENDBRANCH  30  31
ENDBRANCH   7  30
TORSDOF 5
ENDMDL
MODEL 5
REMARK VINA RESULT:      -8.8      3.869      7.840
REMARK  Name = 
REMARK  5 active torsions:
REMARK  status: ('A' for Active; 'I' for Inactive)
REMARK    1  A    between atoms: C_6  and  C_10
REMARK    2  A    between atoms: N_17  and  C_20
REMARK    3  A    between atoms: C_19  and  C_21
REMARK    4  A    between atoms: C_20  and  C_22
REMARK    5  A    between atoms: C_21  and  C_23
REMARK                            x       y       z     vdW  Elec       q    Type
REMARK                         _______ _______ _______ _____ _____    ______ ____
ROOT
ATOM      1  C   UNL     1      -9.438  54.316  50.424  0.00  0.00    +0.000 C 
ATOM      2  C   UNL     1     -10.586  54.766  51.226  0.00  0.00    +0.000 C 
ATOM      3  C   UNL     1      -9.952  53.796  49.303  0.00  0.00    +0.000 C 
ATOM      4  O   UNL     1     -10.502  55.122  52.390  0.00  0.00    +0.000 OA
ATOM      5  N   UNL     1     -11.707  54.696  50.417  0.00  0.00    +0.000 N 
ATOM      6  O   UNL     1      -9.238  53.226  48.282  0.00  0.00    +0.000 OA
ATOM      7  C   UNL     1     -11.456  53.854  49.250  0.00  0.00    +0.000 C 
ENDROOT
BRANCH   1  13
ATOM      8  S   UNL     1      -5.566  54.094  50.155  0.00  0.00    +0.000 S 
ATOM      9  O   UNL     1      -5.067  55.237  49.432  0.00  0.00    +0.000 OA
ATOM     10  O   UNL     1      -5.003  52.775  49.930  0.00  0.00    +0.000 OA
ATOM     11  N   UNL     1      -7.164  53.984  49.904  0.00  0.00    +0.000 N 
ATOM     12  C   UNL     1      -5.316  54.442  51.859  0.00  0.00    +0.000 A 
ATOM     13  C   UNL     1      -8.006  54.395  50.804  0.00  0.00    +0.000 C 
ATOM     14  C   UNL     1      -6.423  54.801  52.618  0.00  0.00    +0.000 A 
ATOM     15  C   UNL     1      -4.037  54.338  52.406  0.00  0.00    +0.000 A 
ATOM     16  N   UNL     1      -7.694  54.883  52.049  0.00  0.00    +0.000 N 
ATOM     17  C   UNL     1      -6.237  55.036  53.980  0.00  0.00    +0.000 A 
ATOM     18  C   UNL     1      -3.863  54.594  53.762  0.00  0.00    +0.000 A 
ATOM     19  C   UNL     1      -4.964  54.933  54.550  0.00  0.00    +0.000 A 
ATOM     20  H   UNL     1      -7.500  53.602  49.061  0.00  0.00    +0.000 HD
ATOM     21  H   UNL     1      -8.408  55.317  52.571  0.00  0.00    +0.000 HD
ENDBRANCH   1  13
BRANCH   5  22
ATOM     22  C   UNL     1     -13.038  55.057  50.885  0.00  0.00    +0.000 C 
BRANCH  22  23
ATOM     23  C   UNL     1     -13.312  56.541  50.733  0.00  0.00    +0.000 A 
ATOM     24  C   UNL     1     -13.999  57.245  51.735  0.00  0.00    +0.000 A 
ATOM     25  C   UNL     1     -12.942  57.230  49.563  0.00  0.00    +0.000 A 
ATOM     26  C   UNL     1     -14.365  58.580  51.549  0.00  0.00    +0.000 A 
ATOM     27  C   UNL     1     -13.296  58.571  49.384  0.00  0.00    +0.000 A 
ATOM     28  C   UNL     1     -14.022  59.229  50.370  0.00  0.00    +0.000 A 
ATOM     29  F   UNL     1     -14.410  60.495  50.176  0.00  0.00    +0.000 F 
ENDBRANCH  22  23
ENDBRANCH   5  22
BRANCH   7  30
ATOM     30  C   UNL     1     -12.059  54.363  47.925  0.00  0.00    +0.000 C 
BRANCH  30  31
ATOM     31  C   UNL     1     -11.966  53.394  46.767  0.00  0.00    +0.000 A 
ATOM     32  C   UNL     1     -12.338  52.056  46.874  0.00  0.00    +0.000 A 
ATOM     33  C   UNL     1     -11.441  53.808  45.538  0.00  0.00    +0.000 A 
ATOM     34  N   UNL     1     -12.172  51.136  45.894  0.00  0.00    +0.000 NA
ATOM     35  C   UNL     1     -11.250  52.883  44.515  0.00  0.00    +0.000 A 
ATOM     36  C   UNL     1     -11.607  51.567  44.746  0.00  0.00    +0.000 A 
ENDBRANCH  30  31
ENDBRANCH   7  30
TORSDOF 5
ENDMDL
MODEL 6
REMARK VINA RESULT:      -8.6      2.688      3.073
REMARK  Name = 
REMARK  5 active torsions:
REMARK  status: ('A' for Active; 'I' for Inactive)
REMARK    1  A    between atoms: C_6  and  C_10
REMARK    2  A    between atoms: N_17  and  C_20
REMARK    3  A    between atoms: C_19  and  C_21
REMARK    4  A    between atoms: C_20  and  C_22
REMARK    5  A    between atoms: C_21  and  C_23
REMARK                            x       y       z     vdW  Elec       q    Type
REMARK                         _______ _______ _______ _____ _____    ______ ____
ROOT
ATOM      1  C   UNL     1     -11.083  54.857  50.339  0.00  0.00    +0.000 C 
ATOM      2  C   UNL     1     -10.838  53.872  49.274  0.00  0.00    +0.000 C 
ATOM      3  C   UNL     1     -10.107  54.680  51.238  0.00  0.00    +0.000 C 
ATOM      4  O   UNL     1     -11.635  53.624  48.384  0.00  0.00    +0.000 OA
ATOM      5  N   UNL     1      -9.585  53.328  49.497  0.00  0.00    +0.000 N 
ATOM      6  O   UNL     1      -9.966  55.368  52.414  0.00  0.00    +0.000 OA
ATOM      7  C   UNL     1      -9.138  53.590  50.863  0.00  0.00    +0.000 C 
ENDROOT
BRANCH   1  13
ATOM      8  S   UNL     1     -13.812  57.382  49.202  0.00  0.00    +0.000 S 
ATOM      9  O   UNL     1     -14.937  56.662  48.657  0.00  0.00    +0.000 OA
ATOM     10  O   UNL     1     -13.347  58.607  48.579  0.00  0.00    +0.000 OA
ATOM     11  N   UNL     1     -12.546  56.372  49.283  0.00  0.00    +0.000 N 
ATOM     12  C   UNL     1     -14.256  57.814  50.847  0.00  0.00    +0.000 A 
ATOM     13  C   UNL     1     -12.207  55.823  50.410  0.00  0.00    +0.000 C 
ATOM     14  C   UNL     1     -13.682  57.091  51.885  0.00  0.00    +0.000 A 
ATOM     15  C   UNL     1     -15.146  58.865  51.070  0.00  0.00    +0.000 A 
ATOM     16  N   UNL     1     -12.783  56.055  51.635  0.00  0.00    +0.000 N 
ATOM     17  C   UNL     1     -13.998  57.459  53.193  0.00  0.00    +0.000 A 
ATOM     18  C   UNL     1     -15.466  59.208  52.379  0.00  0.00    +0.000 A 
ATOM     19  C   UNL     1     -14.884  58.512  53.440  0.00  0.00    +0.000 A 
ATOM     20  H   UNL     1     -12.029  56.173  48.469  0.00  0.00    +0.000 HD
ATOM     21  H   UNL     1     -12.549  55.455  52.380  0.00  0.00    +0.000 HD
ENDBRANCH   1  13
BRANCH   5  22
ATOM     22  C   UNL     1      -9.011  52.300  48.640  0.00  0.00    +0.000 C 
BRANCH  22  23
ATOM     23  C   UNL     1      -8.630  52.844  47.276  0.00  0.00    +0.000 A 
ATOM     24  C   UNL     1      -7.853  54.009  47.166  0.00  0.00    +0.000 A 
ATOM     25  C   UNL     1      -9.096  52.236  46.096  0.00  0.00    +0.000 A 
ATOM     26  C   UNL     1      -7.603  54.587  45.919  0.00  0.00    +0.000 A 
ATOM     27  C   UNL     1      -8.834  52.807  44.847  0.00  0.00    +0.000 A 
ATOM     28  C   UNL     1      -8.106  53.989  44.772  0.00  0.00    +0.000 A 
ATOM     29  F   UNL     1      -7.902  54.567  43.582  0.00  0.00    +0.000 F 
ENDBRANCH  22  23
ENDBRANCH   5  22
BRANCH   7  30
ATOM     30  C   UNL     1      -7.645  53.943  51.013  0.00  0.00    +0.000 C 
BRANCH  30  31
ATOM     31  C   UNL     1      -7.138  53.985  52.438  0.00  0.00    +0.000 A 
ATOM     32  C   UNL     1      -6.473  55.089  52.967  0.00  0.00    +0.000 A 
ATOM     33  C   UNL     1      -7.276  52.871  53.272  0.00  0.00    +0.000 A 
ATOM     34  N   UNL     1      -5.915  55.126  54.200  0.00  0.00    +0.000 NA
ATOM     35  C   UNL     1      -6.704  52.876  54.542  0.00  0.00    +0.000 A 
ATOM     36  C   UNL     1      -6.021  54.008  54.949  0.00  0.00    +0.000 A 
ENDBRANCH  30  31
ENDBRANCH   7  30
TORSDOF 5
ENDMDL
MODEL 7
REMARK VINA RESULT:      -8.6      2.738      3.569
REMARK  Name = 
REMARK  5 active torsions:
REMARK  status: ('A' for Active; 'I' for Inactive)
REMARK    1  A    between atoms: C_6  and  C_10
REMARK    2  A    between atoms: N_17  and  C_20
REMARK    3  A    between atoms: C_19  and  C_21
REMARK    4  A    between atoms: C_20  and  C_22
REMARK    5  A    between atoms: C_21  and  C_23
REMARK                            x       y       z     vdW  Elec       q    Type
REMARK                         _______ _______ _______ _____ _____    ______ ____
ROOT
ATOM      1  C   UNL     1     -11.976  54.563  50.445  0.00  0.00    +0.000 C 
ATOM      2  C   UNL     1     -11.796  53.971  49.111  0.00  0.00    +0.000 C 
ATOM      3  C   UNL     1     -11.321  53.764  51.296  0.00  0.00    +0.000 C 
ATOM      4  O   UNL     1     -12.410  54.332  48.121  0.00  0.00    +0.000 OA
ATOM      5  N   UNL     1     -10.839  52.977  49.227  0.00  0.00    +0.000 N 
ATOM      6  O   UNL     1     -11.252  53.923  52.655  0.00  0.00    +0.000 OA
ATOM      7  C   UNL     1     -10.652  52.593  50.624  0.00  0.00    +0.000 C 
ENDROOT
BRANCH   1  13
ATOM      8  S   UNL     1     -14.362  56.972  52.348  0.00  0.00    +0.000 S 
ATOM      9  O   UNL     1     -13.669  57.545  53.475  0.00  0.00    +0.000 OA
ATOM     10  O   UNL     1     -15.748  56.557  52.466  0.00  0.00    +0.000 OA
ATOM     11  N   UNL     1     -13.519  55.690  51.824  0.00  0.00    +0.000 N 
ATOM     12  C   UNL     1     -14.327  58.188  51.079  0.00  0.00    +0.000 A 
ATOM     13  C   UNL     1     -12.756  55.780  50.776  0.00  0.00    +0.000 C 
ATOM     14  C   UNL     1     -13.447  57.998  50.022  0.00  0.00    +0.000 A 
ATOM     15  C   UNL     1     -15.180  59.289  51.153  0.00  0.00    +0.000 A 
ATOM     16  N   UNL     1     -12.615  56.879  49.965  0.00  0.00    +0.000 N 
ATOM     17  C   UNL     1     -13.447  58.937  48.991  0.00  0.00    +0.000 A 
ATOM     18  C   UNL     1     -15.156  60.228  50.127  0.00  0.00    +0.000 A 
ATOM     19  C   UNL     1     -14.297  60.046  49.042  0.00  0.00    +0.000 A 
ATOM     20  H   UNL     1     -13.585  54.833  52.305  0.00  0.00    +0.000 HD
ATOM     21  H   UNL     1     -11.884  56.879  49.305  0.00  0.00    +0.000 HD
ENDBRANCH   1  13
BRANCH   5  22
ATOM     22  C   UNL     1     -10.411  52.161  48.099  0.00  0.00    +0.000 C 
BRANCH  22  23
ATOM     23  C   UNL     1      -9.540  52.940  47.132  0.00  0.00    +0.000 A 
ATOM     24  C   UNL     1      -8.488  53.741  47.607  0.00  0.00    +0.000 A 
ATOM     25  C   UNL     1      -9.803  52.931  45.749  0.00  0.00    +0.000 A 
ATOM     26  C   UNL     1      -7.761  54.558  46.738  0.00  0.00    +0.000 A 
ATOM     27  C   UNL     1      -9.065  53.738  44.878  0.00  0.00    +0.000 A 
ATOM     28  C   UNL     1      -8.064  54.559  45.383  0.00  0.00    +0.000 A 
ATOM     29  F   UNL     1      -7.395  55.374  44.558  0.00  0.00    +0.000 F 
ENDBRANCH  22  23
ENDBRANCH   5  22
BRANCH   7  30
ATOM     30  C   UNL     1      -9.194  52.323  51.047  0.00  0.00    +0.000 C 
BRANCH  30  31
ATOM     31  C   UNL     1      -8.468  53.514  51.633  0.00  0.00    +0.000 A 
ATOM     32  C   UNL     1      -8.032  53.552  52.955  0.00  0.00    +0.000 A 
ATOM     33  C   UNL     1      -8.253  54.662  50.863  0.00  0.00    +0.000 A 
ATOM     34  N   UNL     1      -7.474  54.635  53.545  0.00  0.00    +0.000 NA
ATOM     35  C   UNL     1      -7.689  55.795  51.444  0.00  0.00    +0.000 A 
ATOM     36  C   UNL     1      -7.340  55.741  52.782  0.00  0.00    +0.000 A 
ENDBRANCH  30  31
ENDBRANCH   7  30
TORSDOF 5
ENDMDL
MODEL 8
REMARK VINA RESULT:      -8.4      2.901      4.204
REMARK  Name = 
REMARK  5 active torsions:
REMARK  status: ('A' for Active; 'I' for Inactive)
REMARK    1  A    between atoms: C_6  and  C_10
REMARK    2  A    between atoms: N_17  and  C_20
REMARK    3  A    between atoms: C_19  and  C_21
REMARK    4  A    between atoms: C_20  and  C_22
REMARK    5  A    between atoms: C_21  and  C_23
REMARK                            x       y       z     vdW  Elec       q    Type
REMARK                         _______ _______ _______ _____ _____    ______ ____
ROOT
ATOM      1  C   UNL     1     -12.429  54.628  48.852  0.00  0.00    +0.000 C 
ATOM      2  C   UNL     1     -11.926  53.401  49.489  0.00  0.00    +0.000 C 
ATOM      3  C   UNL     1     -12.012  54.582  47.581  0.00  0.00    +0.000 C 
ATOM      4  O   UNL     1     -11.960  53.198  50.692  0.00  0.00    +0.000 OA
ATOM      5  N   UNL     1     -11.439  52.585  48.482  0.00  0.00    +0.000 N 
ATOM      6  O   UNL     1     -12.229  55.545  46.631  0.00  0.00    +0.000 OA
ATOM      7  C   UNL     1     -11.216  53.346  47.256  0.00  0.00    +0.000 C 
ENDROOT
BRANCH   1  13
ATOM      8  S   UNL     1     -15.121  56.386  51.037  0.00  0.00    +0.000 S 
ATOM      9  O   UNL     1     -14.735  56.318  52.425  0.00  0.00    +0.000 OA
ATOM     10  O   UNL     1     -16.506  56.193  50.646  0.00  0.00    +0.000 OA
ATOM     11  N   UNL     1     -14.232  55.317  50.203  0.00  0.00    +0.000 N 
ATOM     12  C   UNL     1     -14.681  57.994  50.483  0.00  0.00    +0.000 A 
ATOM     13  C   UNL     1     -13.209  55.708  49.504  0.00  0.00    +0.000 C 
ATOM     14  C   UNL     1     -13.556  58.119  49.678  0.00  0.00    +0.000 A 
ATOM     15  C   UNL     1     -15.467  59.090  50.844  0.00  0.00    +0.000 A 
ATOM     16  N   UNL     1     -12.797  57.005  49.319  0.00  0.00    +0.000 N 
ATOM     17  C   UNL     1     -13.229  59.387  49.199  0.00  0.00    +0.000 A 
ATOM     18  C   UNL     1     -15.117  60.351  50.375  0.00  0.00    +0.000 A 
ATOM     19  C   UNL     1     -14.005  60.498  49.545  0.00  0.00    +0.000 A 
ATOM     20  H   UNL     1     -14.469  54.362  50.226  0.00  0.00    +0.000 HD
ATOM     21  H   UNL     1     -11.915  57.159  48.909  0.00  0.00    +0.000 HD
ENDBRANCH   1  13
BRANCH   5  22
ATOM     22  C   UNL     1     -10.846  51.280  48.746  0.00  0.00    +0.000 C 
BRANCH  22  23
ATOM     23  C   UNL     1      -9.378  51.237  48.370  0.00  0.00    +0.000 A 
ATOM     24  C   UNL     1      -8.442  52.026  49.060  0.00  0.00    +0.000 A 
ATOM     25  C   UNL     1      -8.928  50.460  47.287  0.00  0.00    +0.000 A 
ATOM     26  C   UNL     1      -7.111  52.089  48.642  0.00  0.00    +0.000 A 
ATOM     27  C   UNL     1      -7.592  50.512  46.878  0.00  0.00    +0.000 A 
ATOM     28  C   UNL     1      -6.700  51.341  47.547  0.00  0.00    +0.000 A 
ATOM     29  F   UNL     1      -5.434  51.435  47.121  0.00  0.00    +0.000 F 
ENDBRANCH  22  23
ENDBRANCH   5  22
BRANCH   7  30
ATOM     30  C   UNL     1     -11.606  52.624  45.950  0.00  0.00    +0.000 C 
BRANCH  30  31
ATOM     31  C   UNL     1     -10.568  52.687  44.851  0.00  0.00    +0.000 A 
ATOM     32  C   UNL     1     -10.678  51.954  43.671  0.00  0.00    +0.000 A 
ATOM     33  C   UNL     1      -9.412  53.458  45.011  0.00  0.00    +0.000 A 
ATOM     34  N   UNL     1      -9.723  51.903  42.712  0.00  0.00    +0.000 NA
ATOM     35  C   UNL     1      -8.408  53.417  44.047  0.00  0.00    +0.000 A 
ATOM     36  C   UNL     1      -8.599  52.615  42.936  0.00  0.00    +0.000 A 
ENDBRANCH  30  31
ENDBRANCH   7  30
TORSDOF 5
ENDMDL
MODEL 9
REMARK VINA RESULT:      -8.4      3.793      7.836
REMARK  Name = 
REMARK  5 active torsions:
REMARK  status: ('A' for Active; 'I' for Inactive)
REMARK    1  A    between atoms: C_6  and  C_10
REMARK    2  A    between atoms: N_17  and  C_20
REMARK    3  A    between atoms: C_19  and  C_21
REMARK    4  A    between atoms: C_20  and  C_22
REMARK    5  A    between atoms: C_21  and  C_23
REMARK                            x       y       z     vdW  Elec       q    Type
REMARK                         _______ _______ _______ _____ _____    ______ ____
ROOT
ATOM      1  C   UNL     1     -10.302  54.478  48.846  0.00  0.00    +0.000 C 
ATOM      2  C   UNL     1     -11.715  54.434  49.251  0.00  0.00    +0.000 C 
ATOM      3  C   UNL     1      -9.655  55.115  49.829  0.00  0.00    +0.000 C 
ATOM      4  O   UNL     1     -12.622  54.091  48.512  0.00  0.00    +0.000 OA
ATOM      5  N   UNL     1     -11.777  54.844  50.572  0.00  0.00    +0.000 N 
ATOM      6  O   UNL     1      -8.317  55.408  49.851  0.00  0.00    +0.000 OA
ATOM      7  C   UNL     1     -10.553  55.541  50.961  0.00  0.00    +0.000 C 
ENDROOT
BRANCH   1  13
ATOM      8  S   UNL     1      -7.828  53.963  45.892  0.00  0.00    +0.000 S 
ATOM      9  O   UNL     1      -6.734  53.127  46.320  0.00  0.00    +0.000 OA
ATOM     10  O   UNL     1      -7.589  55.109  45.034  0.00  0.00    +0.000 OA
ATOM     11  N   UNL     1      -8.610  54.500  47.207  0.00  0.00    +0.000 N 
ATOM     12  C   UNL     1      -8.928  52.917  45.007  0.00  0.00    +0.000 A 
ATOM     13  C   UNL     1      -9.726  53.952  47.584  0.00  0.00    +0.000 C 
ATOM     14  C   UNL     1     -10.103  52.529  45.637  0.00  0.00    +0.000 A 
ATOM     15  C   UNL     1      -8.610  52.520  43.707  0.00  0.00    +0.000 A 
ATOM     16  N   UNL     1     -10.404  52.953  46.931  0.00  0.00    +0.000 N 
ATOM     17  C   UNL     1     -11.000  51.734  44.922  0.00  0.00    +0.000 A 
ATOM     18  C   UNL     1      -9.505  51.712  43.014  0.00  0.00    +0.000 A 
ATOM     19  C   UNL     1     -10.703  51.328  43.617  0.00  0.00    +0.000 A 
ATOM     20  H   UNL     1      -8.236  55.249  47.725  0.00  0.00    +0.000 HD
ATOM     21  H   UNL     1     -11.145  52.508  47.403  0.00  0.00    +0.000 HD
ENDBRANCH   1  13
BRANCH   5  22
ATOM     22  C   UNL     1     -13.031  54.937  51.308  0.00  0.00    +0.000 C 
BRANCH  22  23
ATOM     23  C   UNL     1     -13.594  56.345  51.295  0.00  0.00    +0.000 A 
ATOM     24  C   UNL     1     -13.941  56.986  52.497  0.00  0.00    +0.000 A 
ATOM     25  C   UNL     1     -13.840  57.017  50.084  0.00  0.00    +0.000 A 
ATOM     26  C   UNL     1     -14.574  58.230  52.488  0.00  0.00    +0.000 A 
ATOM     27  C   UNL     1     -14.462  58.270  50.076  0.00  0.00    +0.000 A 
ATOM     28  C   UNL     1     -14.841  58.856  51.278  0.00  0.00    +0.000 A 
ATOM     29  F   UNL     1     -15.486  60.029  51.270  0.00  0.00    +0.000 F 
ENDBRANCH  22  23
ENDBRANCH   5  22
BRANCH   7  30
ATOM     30  C   UNL     1     -10.037  55.228  52.379  0.00  0.00    +0.000 C 
BRANCH  30  31
ATOM     31  C   UNL     1      -9.516  53.821  52.574  0.00  0.00    +0.000 A 
ATOM     32  C   UNL     1     -10.350  52.705  52.581  0.00  0.00    +0.000 A 
ATOM     33  C   UNL     1      -8.156  53.595  52.812  0.00  0.00    +0.000 A 
ATOM     34  N   UNL     1      -9.938  51.445  52.855  0.00  0.00    +0.000 NA
ATOM     35  C   UNL     1      -7.704  52.311  53.106  0.00  0.00    +0.000 A 
ATOM     36  C   UNL     1      -8.628  51.282  53.137  0.00  0.00    +0.000 A 
ENDBRANCH  30  31
ENDBRANCH   7  30
TORSDOF 5
ENDMDL
