MODEL 1
REMARK VINA RESULT:      -7.9      0.000      0.000
REMARK  Name = 
REMARK  7 active torsions:
REMARK  status: ('A' for Active; 'I' for Inactive)
REMARK    1  A    between atoms: C_6  and  C_10
REMARK    2  A    between atoms: N_17  and  C_20
REMARK    3  A    between atoms: C_19  and  C_21
REMARK    4  A    between atoms: C_20  and  C_22
REMARK    5  A    between atoms: C_21  and  C_23
REMARK    6  A    between atoms: C_21  and  C_24
REMARK    7  A    between atoms: C_21  and  C_25
REMARK                            x       y       z     vdW  Elec       q    Type
REMARK                         _______ _______ _______ _____ _____    ______ ____
ROOT
ATOM      1  C   UNL     1     -11.470  55.780  48.935  0.00  0.00    +0.000 C 
ATOM      2  C   UNL     1     -10.574  54.921  49.712  0.00  0.00    +0.000 C 
ATOM      3  C   UNL     1     -11.265  55.450  47.654  0.00  0.00    +0.000 C 
ATOM      4  O   UNL     1     -10.393  55.056  50.912  0.00  0.00    +0.000 OA
ATOM      5  N   UNL     1     -10.025  53.985  48.863  0.00  0.00    +0.000 N 
ATOM      6  O   UNL     1     -11.850  56.072  46.579  0.00  0.00    +0.000 OA
ATOM      7  C   UNL     1     -10.317  54.273  47.452  0.00  0.00    +0.000 C 
ENDROOT
BRANCH   1  13
ATOM      8  S   UNL     1     -13.473  59.083  49.405  0.00  0.00    +0.000 S 
ATOM      9  O   UNL     1     -14.576  59.094  48.461  0.00  0.00    +0.000 OA
ATOM     10  O   UNL     1     -12.726  60.294  49.677  0.00  0.00    +0.000 OA
ATOM     11  N   UNL     1     -12.415  57.945  48.934  0.00  0.00    +0.000 N 
ATOM     12  C   UNL     1     -14.163  58.582  50.945  0.00  0.00    +0.000 A 
ATOM     13  C   UNL     1     -12.391  56.789  49.525  0.00  0.00    +0.000 C 
ATOM     14  C   UNL     1     -13.923  57.282  51.368  0.00  0.00    +0.000 A 
ATOM     15  C   UNL     1     -14.925  59.481  51.698  0.00  0.00    +0.000 A 
ATOM     16  N   UNL     1     -13.142  56.414  50.616  0.00  0.00    +0.000 N 
ATOM     17  C   UNL     1     -14.472  56.875  52.588  0.00  0.00    +0.000 A 
ATOM     18  C   UNL     1     -15.458  59.062  52.915  0.00  0.00    +0.000 A 
ATOM     19  C   UNL     1     -15.232  57.760  53.360  0.00  0.00    +0.000 A 
ATOM     20  H   UNL     1     -11.790  58.132  48.197  0.00  0.00    +0.000 HD
ATOM     21  H   UNL     1     -13.125  55.466  50.880  0.00  0.00    +0.000 HD
ENDBRANCH   1  13
BRANCH   7  22
ATOM     22  C   UNL     1     -10.901  53.079  46.607  0.00  0.00    +0.000 C 
ATOM     23  C   UNL     1     -11.342  53.547  45.197  0.00  0.00    +0.000 C 
ATOM     24  C   UNL     1      -9.842  51.989  46.345  0.00  0.00    +0.000 C 
ATOM     25  C   UNL     1     -12.116  52.435  47.301  0.00  0.00    +0.000 C 
ENDBRANCH   7  22
BRANCH   5  26
ATOM     26  C   UNL     1      -8.980  53.085  49.344  0.00  0.00    +0.000 C 
BRANCH  26  27
ATOM     27  C   UNL     1      -7.558  53.610  49.197  0.00  0.00    +0.000 A 
ATOM     28  N   UNL     1      -7.093  54.376  50.218  0.00  0.00    +0.000 NA
ATOM     29  C   UNL     1      -6.748  53.286  48.106  0.00  0.00    +0.000 A 
ATOM     30  C   UNL     1      -5.819  54.827  50.136  0.00  0.00    +0.000 A 
ATOM     31  C   UNL     1      -5.443  53.767  48.049  0.00  0.00    +0.000 A 
ATOM     32  C   UNL     1      -4.967  54.553  49.084  0.00  0.00    +0.000 A 
ENDBRANCH  26  27
ENDBRANCH   5  26
TORSDOF 4
ENDMDL
MODEL 2
REMARK VINA RESULT:      -7.9      2.512      3.962
REMARK  Name = 
REMARK  7 active torsions:
REMARK  status: ('A' for Active; 'I' for Inactive)
REMARK    1  A    between atoms: C_6  and  C_10
REMARK    2  A    between atoms: N_17  and  C_20
REMARK    3  A    between atoms: C_19  and  C_21
REMARK    4  A    between atoms: C_20  and  C_22
REMARK    5  A    between atoms: C_21  and  C_23
REMARK    6  A    between atoms: C_21  and  C_24
REMARK    7  A    between atoms: C_21  and  C_25
REMARK                            x       y       z     vdW  Elec       q    Type
REMARK                         _______ _______ _______ _____ _____    ______ ____
ROOT
ATOM      1  C   UNL     1     -12.413  54.417  49.879  0.00  0.00    +0.000 C 
ATOM      2  C   UNL     1     -12.076  54.161  48.478  0.00  0.00    +0.000 C 
ATOM      3  C   UNL     1     -11.981  53.347  50.557  0.00  0.00    +0.000 C 
ATOM      4  O   UNL     1     -12.457  54.867  47.558  0.00  0.00    +0.000 OA
ATOM      5  N   UNL     1     -11.282  53.036  48.421  0.00  0.00    +0.000 N 
ATOM      6  O   UNL     1     -12.166  53.141  51.902  0.00  0.00    +0.000 OA
ATOM      7  C   UNL     1     -11.214  52.336  49.711  0.00  0.00    +0.000 C 
ENDROOT
BRANCH   1  13
ATOM      8  S   UNL     1     -14.393  56.830  52.203  0.00  0.00    +0.000 S 
ATOM      9  O   UNL     1     -13.511  57.281  53.264  0.00  0.00    +0.000 OA
ATOM     10  O   UNL     1     -15.778  56.512  52.485  0.00  0.00    +0.000 OA
ATOM     11  N   UNL     1     -13.720  55.529  51.503  0.00  0.00    +0.000 N 
ATOM     12  C   UNL     1     -14.426  58.132  51.018  0.00  0.00    +0.000 A 
ATOM     13  C   UNL     1     -13.096  55.646  50.370  0.00  0.00    +0.000 C 
ATOM     14  C   UNL     1     -13.702  57.958  49.847  0.00  0.00    +0.000 A 
ATOM     15  C   UNL     1     -15.165  59.292  51.270  0.00  0.00    +0.000 A 
ATOM     16  N   UNL     1     -12.996  56.786  49.606  0.00  0.00    +0.000 N 
ATOM     17  C   UNL     1     -13.719  58.990  48.903  0.00  0.00    +0.000 A 
ATOM     18  C   UNL     1     -15.179  60.306  50.316  0.00  0.00    +0.000 A 
ATOM     19  C   UNL     1     -14.456  60.156  49.133  0.00  0.00    +0.000 A 
ATOM     20  H   UNL     1     -13.785  54.649  51.939  0.00  0.00    +0.000 HD
ATOM     21  H   UNL     1     -12.381  56.770  48.837  0.00  0.00    +0.000 HD
ENDBRANCH   1  13
BRANCH   7  22
ATOM     22  C   UNL     1      -9.771  51.982  50.234  0.00  0.00    +0.000 C 
ATOM     23  C   UNL     1      -9.830  51.193  51.566  0.00  0.00    +0.000 C 
ATOM     24  C   UNL     1      -9.021  51.050  49.260  0.00  0.00    +0.000 C 
ATOM     25  C   UNL     1      -8.925  53.248  50.462  0.00  0.00    +0.000 C 
ENDBRANCH   7  22
BRANCH   5  26
ATOM     26  C   UNL     1     -10.914  52.464  47.129  0.00  0.00    +0.000 C 
BRANCH  26  27
ATOM     27  C   UNL     1      -9.805  53.202  46.390  0.00  0.00    +0.000 A 
ATOM     28  N   UNL     1      -9.604  52.843  45.095  0.00  0.00    +0.000 NA
ATOM     29  C   UNL     1      -9.066  54.231  46.980  0.00  0.00    +0.000 A 
ATOM     30  C   UNL     1      -8.651  53.506  44.398  0.00  0.00    +0.000 A 
ATOM     31  C   UNL     1      -8.091  54.893  46.239  0.00  0.00    +0.000 A 
ATOM     32  C   UNL     1      -7.879  54.525  44.920  0.00  0.00    +0.000 A 
ENDBRANCH  26  27
ENDBRANCH   5  26
TORSDOF 4
ENDMDL
MODEL 3
REMARK VINA RESULT:      -7.6      2.361      3.155
REMARK  Name = 
REMARK  7 active torsions:
REMARK  status: ('A' for Active; 'I' for Inactive)
REMARK    1  A    between atoms: C_6  and  C_10
REMARK    2  A    between atoms: N_17  and  C_20
REMARK    3  A    between atoms: C_19  and  C_21
REMARK    4  A    between atoms: C_20  and  C_22
REMARK    5  A    between atoms: C_21  and  C_23
REMARK    6  A    between atoms: C_21  and  C_24
REMARK    7  A    between atoms: C_21  and  C_25
REMARK                            x       y       z     vdW  Elec       q    Type
REMARK                         _______ _______ _______ _____ _____    ______ ____
ROOT
ATOM      1  C   UNL     1     -10.210  55.018  47.796  0.00  0.00    +0.000 C 
ATOM      2  C   UNL     1      -8.751  54.902  47.824  0.00  0.00    +0.000 C 
ATOM      3  C   UNL     1     -10.571  54.727  46.541  0.00  0.00    +0.000 C 
ATOM      4  O   UNL     1      -8.071  55.242  48.779  0.00  0.00    +0.000 OA
ATOM      5  N   UNL     1      -8.335  54.355  46.629  0.00  0.00    +0.000 N 
ATOM      6  O   UNL     1     -11.855  54.791  46.057  0.00  0.00    +0.000 OA
ATOM      7  C   UNL     1      -9.423  54.275  45.645  0.00  0.00    +0.000 C 
ENDROOT
BRANCH   1  13
ATOM      8  S   UNL     1     -11.753  54.944  51.368  0.00  0.00    +0.000 S 
ATOM      9  O   UNL     1     -10.773  55.459  52.307  0.00  0.00    +0.000 OA
ATOM     10  O   UNL     1     -12.585  53.812  51.721  0.00  0.00    +0.000 OA
ATOM     11  N   UNL     1     -10.986  54.580  49.984  0.00  0.00    +0.000 N 
ATOM     12  C   UNL     1     -12.857  56.276  51.045  0.00  0.00    +0.000 A 
ATOM     13  C   UNL     1     -11.048  55.387  48.969  0.00  0.00    +0.000 C 
ATOM     14  C   UNL     1     -12.735  56.936  49.830  0.00  0.00    +0.000 A 
ATOM     15  C   UNL     1     -13.817  56.638  51.995  0.00  0.00    +0.000 A 
ATOM     16  N   UNL     1     -11.791  56.543  48.890  0.00  0.00    +0.000 N 
ATOM     17  C   UNL     1     -13.606  57.999  49.569  0.00  0.00    +0.000 A 
ATOM     18  C   UNL     1     -14.682  57.693  51.716  0.00  0.00    +0.000 A 
ATOM     19  C   UNL     1     -14.577  58.374  50.503  0.00  0.00    +0.000 A 
ATOM     20  H   UNL     1     -10.471  53.744  49.914  0.00  0.00    +0.000 HD
ATOM     21  H   UNL     1     -11.643  57.132  48.114  0.00  0.00    +0.000 HD
ENDBRANCH   1  13
BRANCH   7  22
ATOM     22  C   UNL     1      -9.627  52.878  44.947  0.00  0.00    +0.000 C 
ATOM     23  C   UNL     1     -10.835  52.901  43.977  0.00  0.00    +0.000 C 
ATOM     24  C   UNL     1      -8.422  52.498  44.062  0.00  0.00    +0.000 C 
ATOM     25  C   UNL     1      -9.859  51.758  45.978  0.00  0.00    +0.000 C 
ENDBRANCH   7  22
BRANCH   5  26
ATOM     26  C   UNL     1      -6.910  54.257  46.325  0.00  0.00    +0.000 C 
BRANCH  26  27
ATOM     27  C   UNL     1      -6.148  53.216  47.134  0.00  0.00    +0.000 A 
ATOM     28  N   UNL     1      -5.090  53.671  47.854  0.00  0.00    +0.000 NA
ATOM     29  C   UNL     1      -6.537  51.875  47.185  0.00  0.00    +0.000 A 
ATOM     30  C   UNL     1      -4.414  52.777  48.614  0.00  0.00    +0.000 A 
ATOM     31  C   UNL     1      -5.821  50.978  47.974  0.00  0.00    +0.000 A 
ATOM     32  C   UNL     1      -4.738  51.438  48.705  0.00  0.00    +0.000 A 
ENDBRANCH  26  27
ENDBRANCH   5  26
TORSDOF 4
ENDMDL
MODEL 4
REMARK VINA RESULT:      -7.6      1.638      3.756
REMARK  Name = 
REMARK  7 active torsions:
REMARK  status: ('A' for Active; 'I' for Inactive)
REMARK    1  A    between atoms: C_6  and  C_10
REMARK    2  A    between atoms: N_17  and  C_20
REMARK    3  A    between atoms: C_19  and  C_21
REMARK    4  A    between atoms: C_20  and  C_22
REMARK    5  A    between atoms: C_21  and  C_23
REMARK    6  A    between atoms: C_21  and  C_24
REMARK    7  A    between atoms: C_21  and  C_25
REMARK                            x       y       z     vdW  Elec       q    Type
REMARK                         _______ _______ _______ _____ _____    ______ ____
ROOT
ATOM      1  C   UNL     1     -11.041  54.728  49.787  0.00  0.00    +0.000 C 
ATOM      2  C   UNL     1     -11.045  53.695  48.750  0.00  0.00    +0.000 C 
ATOM      3  C   UNL     1      -9.890  54.570  50.450  0.00  0.00    +0.000 C 
ATOM      4  O   UNL     1     -12.015  53.453  48.049  0.00  0.00    +0.000 OA
ATOM      5  N   UNL     1      -9.801  53.101  48.724  0.00  0.00    +0.000 N 
ATOM      6  O   UNL     1      -9.517  55.289  51.560  0.00  0.00    +0.000 OA
ATOM      7  C   UNL     1      -8.963  53.514  49.859  0.00  0.00    +0.000 C 
ENDROOT
BRANCH   1  13
ATOM      8  S   UNL     1     -13.875  57.279  49.007  0.00  0.00    +0.000 S 
ATOM      9  O   UNL     1     -15.049  56.547  48.567  0.00  0.00    +0.000 OA
ATOM     10  O   UNL     1     -13.505  58.526  48.370  0.00  0.00    +0.000 OA
ATOM     11  N   UNL     1     -12.596  56.282  48.922  0.00  0.00    +0.000 N 
ATOM     12  C   UNL     1     -14.155  57.664  50.701  0.00  0.00    +0.000 A 
ATOM     13  C   UNL     1     -12.136  55.716  49.996  0.00  0.00    +0.000 C 
ATOM     14  C   UNL     1     -13.470  56.922  51.654  0.00  0.00    +0.000 A 
ATOM     15  C   UNL     1     -15.041  58.687  51.051  0.00  0.00    +0.000 A 
ATOM     16  N   UNL     1     -12.574  55.928  51.283  0.00  0.00    +0.000 N 
ATOM     17  C   UNL     1     -13.691  57.219  53.003  0.00  0.00    +0.000 A 
ATOM     18  C   UNL     1     -15.244  58.975  52.399  0.00  0.00    +0.000 A 
ATOM     19  C   UNL     1     -14.569  58.242  53.375  0.00  0.00    +0.000 A 
ATOM     20  H   UNL     1     -12.168  56.107  48.053  0.00  0.00    +0.000 HD
ATOM     21  H   UNL     1     -12.230  55.333  51.988  0.00  0.00    +0.000 HD
ENDBRANCH   1  13
BRANCH   7  22
ATOM     22  C   UNL     1      -7.513  54.016  49.505  0.00  0.00    +0.000 C 
ATOM     23  C   UNL     1      -7.553  55.215  48.525  0.00  0.00    +0.000 C 
ATOM     24  C   UNL     1      -6.772  54.549  50.747  0.00  0.00    +0.000 C 
ATOM     25  C   UNL     1      -6.669  52.899  48.863  0.00  0.00    +0.000 C 
ENDBRANCH   7  22
BRANCH   5  26
ATOM     26  C   UNL     1      -9.564  51.935  47.878  0.00  0.00    +0.000 C 
BRANCH  26  27
ATOM     27  C   UNL     1      -9.569  52.214  46.380  0.00  0.00    +0.000 A 
ATOM     28  N   UNL     1     -10.497  51.544  45.649  0.00  0.00    +0.000 NA
ATOM     29  C   UNL     1      -8.711  53.144  45.787  0.00  0.00    +0.000 A 
ATOM     30  C   UNL     1     -10.554  51.797  44.320  0.00  0.00    +0.000 A 
ATOM     31  C   UNL     1      -8.792  53.381  44.418  0.00  0.00    +0.000 A 
ATOM     32  C   UNL     1      -9.732  52.696  43.667  0.00  0.00    +0.000 A 
ENDBRANCH  26  27
ENDBRANCH   5  26
TORSDOF 4
ENDMDL
MODEL 5
REMARK VINA RESULT:      -7.6      1.655      2.200
REMARK  Name = 
REMARK  7 active torsions:
REMARK  status: ('A' for Active; 'I' for Inactive)
REMARK    1  A    between atoms: C_6  and  C_10
REMARK    2  A    between atoms: N_17  and  C_20
REMARK    3  A    between atoms: C_19  and  C_21
REMARK    4  A    between atoms: C_20  and  C_22
REMARK    5  A    between atoms: C_21  and  C_23
REMARK    6  A    between atoms: C_21  and  C_24
REMARK    7  A    between atoms: C_21  and  C_25
REMARK                            x       y       z     vdW  Elec       q    Type
REMARK                         _______ _______ _______ _____ _____    ______ ____
ROOT
ATOM      1  C   UNL     1     -11.424  55.139  48.812  0.00  0.00    +0.000 C 
ATOM      2  C   UNL     1     -10.496  54.191  49.432  0.00  0.00    +0.000 C 
ATOM      3  C   UNL     1     -11.254  55.001  47.493  0.00  0.00    +0.000 C 
ATOM      4  O   UNL     1     -10.280  54.154  50.633  0.00  0.00    +0.000 OA
ATOM      5  N   UNL     1      -9.962  53.396  48.440  0.00  0.00    +0.000 N 
ATOM      6  O   UNL     1     -11.879  55.763  46.536  0.00  0.00    +0.000 OA
ATOM      7  C   UNL     1     -10.300  53.880  47.095  0.00  0.00    +0.000 C 
ENDROOT
BRANCH   1  13
ATOM      8  S   UNL     1     -13.837  56.426  51.581  0.00  0.00    +0.000 S 
ATOM      9  O   UNL     1     -13.057  56.750  52.762  0.00  0.00    +0.000 OA
ATOM     10  O   UNL     1     -15.127  55.780  51.707  0.00  0.00    +0.000 OA
ATOM     11  N   UNL     1     -12.919  55.511  50.603  0.00  0.00    +0.000 N 
ATOM     12  C   UNL     1     -14.139  57.958  50.769  0.00  0.00    +0.000 A 
ATOM     13  C   UNL     1     -12.338  56.038  49.569  0.00  0.00    +0.000 C 
ATOM     14  C   UNL     1     -13.402  58.241  49.628  0.00  0.00    +0.000 A 
ATOM     15  C   UNL     1     -15.096  58.844  51.275  0.00  0.00    +0.000 A 
ATOM     16  N   UNL     1     -12.475  57.335  49.128  0.00  0.00    +0.000 N 
ATOM     17  C   UNL     1     -13.633  59.459  48.980  0.00  0.00    +0.000 A 
ATOM     18  C   UNL     1     -15.319  60.049  50.613  0.00  0.00    +0.000 A 
ATOM     19  C   UNL     1     -14.588  60.357  49.466  0.00  0.00    +0.000 A 
ATOM     20  H   UNL     1     -12.802  54.553  50.796  0.00  0.00    +0.000 HD
ATOM     21  H   UNL     1     -11.874  57.641  48.411  0.00  0.00    +0.000 HD
ENDBRANCH   1  13
BRANCH   7  22
ATOM     22  C   UNL     1     -10.896  52.812  46.103  0.00  0.00    +0.000 C 
ATOM     23  C   UNL     1     -11.276  53.453  44.744  0.00  0.00    +0.000 C 
ATOM     24  C   UNL     1      -9.866  51.721  45.748  0.00  0.00    +0.000 C 
ATOM     25  C   UNL     1     -12.153  52.139  46.684  0.00  0.00    +0.000 C 
ENDBRANCH   7  22
BRANCH   5  26
ATOM     26  C   UNL     1      -8.893  52.452  48.756  0.00  0.00    +0.000 C 
BRANCH  26  27
ATOM     27  C   UNL     1      -7.482  53.008  48.624  0.00  0.00    +0.000 A 
ATOM     28  N   UNL     1      -6.962  53.596  49.732  0.00  0.00    +0.000 NA
ATOM     29  C   UNL     1      -6.732  52.880  47.452  0.00  0.00    +0.000 A 
ATOM     30  C   UNL     1      -5.694  54.067  49.660  0.00  0.00    +0.000 A 
ATOM     31  C   UNL     1      -5.432  53.376  47.407  0.00  0.00    +0.000 A 
ATOM     32  C   UNL     1      -4.900  53.981  48.533  0.00  0.00    +0.000 A 
ENDBRANCH  26  27
ENDBRANCH   5  26
TORSDOF 4
ENDMDL
MODEL 6
REMARK VINA RESULT:      -7.6      1.393      2.318
REMARK  Name = 
REMARK  7 active torsions:
REMARK  status: ('A' for Active; 'I' for Inactive)
REMARK    1  A    between atoms: C_6  and  C_10
REMARK    2  A    between atoms: N_17  and  C_20
REMARK    3  A    between atoms: C_19  and  C_21
REMARK    4  A    between atoms: C_20  and  C_22
REMARK    5  A    between atoms: C_21  and  C_23
REMARK    6  A    between atoms: C_21  and  C_24
REMARK    7  A    between atoms: C_21  and  C_25
REMARK                            x       y       z     vdW  Elec       q    Type
REMARK                         _______ _______ _______ _____ _____    ______ ____
ROOT
ATOM      1  C   UNL     1     -11.458  55.902  48.854  0.00  0.00    +0.000 C 
ATOM      2  C   UNL     1     -10.453  55.129  49.587  0.00  0.00    +0.000 C 
ATOM      3  C   UNL     1     -11.339  55.529  47.575  0.00  0.00    +0.000 C 
ATOM      4  O   UNL     1     -10.184  55.326  50.761  0.00  0.00    +0.000 OA
ATOM      5  N   UNL     1      -9.920  54.189  48.731  0.00  0.00    +0.000 N 
ATOM      6  O   UNL     1     -12.046  56.069  46.529  0.00  0.00    +0.000 OA
ATOM      7  C   UNL     1     -10.343  54.398  47.340  0.00  0.00    +0.000 C 
ENDROOT
BRANCH   1  13
ATOM      8  S   UNL     1     -13.499  59.165  49.431  0.00  0.00    +0.000 S 
ATOM      9  O   UNL     1     -14.610  59.188  48.497  0.00  0.00    +0.000 OA
ATOM     10  O   UNL     1     -12.765  60.377  49.730  0.00  0.00    +0.000 OA
ATOM     11  N   UNL     1     -12.431  58.053  48.920  0.00  0.00    +0.000 N 
ATOM     12  C   UNL     1     -14.169  58.613  50.963  0.00  0.00    +0.000 A 
ATOM     13  C   UNL     1     -12.387  56.883  49.479  0.00  0.00    +0.000 C 
ATOM     14  C   UNL     1     -13.908  57.306  51.348  0.00  0.00    +0.000 A 
ATOM     15  C   UNL     1     -14.935  59.482  51.747  0.00  0.00    +0.000 A 
ATOM     16  N   UNL     1     -13.123  56.468  50.566  0.00  0.00    +0.000 N 
ATOM     17  C   UNL     1     -14.442  56.859  52.562  0.00  0.00    +0.000 A 
ATOM     18  C   UNL     1     -15.452  59.023  52.956  0.00  0.00    +0.000 A 
ATOM     19  C   UNL     1     -15.206  57.712  53.364  0.00  0.00    +0.000 A 
ATOM     20  H   UNL     1     -11.815  58.269  48.184  0.00  0.00    +0.000 HD
ATOM     21  H   UNL     1     -13.092  55.513  50.804  0.00  0.00    +0.000 HD
ENDBRANCH   1  13
BRANCH   7  22
ATOM     22  C   UNL     1     -10.922  53.138  46.593  0.00  0.00    +0.000 C 
ATOM     23  C   UNL     1     -11.336  53.482  45.141  0.00  0.00    +0.000 C 
ATOM     24  C   UNL     1      -9.866  52.024  46.446  0.00  0.00    +0.000 C 
ATOM     25  C   UNL     1     -12.152  52.565  47.321  0.00  0.00    +0.000 C 
ENDBRANCH   7  22
BRANCH   5  26
ATOM     26  C   UNL     1      -8.789  53.370  49.158  0.00  0.00    +0.000 C 
BRANCH  26  27
ATOM     27  C   UNL     1      -9.097  52.371  50.265  0.00  0.00    +0.000 A 
ATOM     28  N   UNL     1     -10.113  51.503  50.024  0.00  0.00    +0.000 NA
ATOM     29  C   UNL     1      -8.350  52.304  51.444  0.00  0.00    +0.000 A 
ATOM     30  C   UNL     1     -10.389  50.577  50.973  0.00  0.00    +0.000 A 
ATOM     31  C   UNL     1      -8.657  51.341  52.402  0.00  0.00    +0.000 A 
ATOM     32  C   UNL     1      -9.697  50.459  52.163  0.00  0.00    +0.000 A 
ENDBRANCH  26  27
ENDBRANCH   5  26
TORSDOF 4
ENDMDL
MODEL 7
REMARK VINA RESULT:      -7.5      2.147      4.173
REMARK  Name = 
REMARK  7 active torsions:
REMARK  status: ('A' for Active; 'I' for Inactive)
REMARK    1  A    between atoms: C_6  and  C_10
REMARK    2  A    between atoms: N_17  and  C_20
REMARK    3  A    between atoms: C_19  and  C_21
REMARK    4  A    between atoms: C_20  and  C_22
REMARK    5  A    between atoms: C_21  and  C_23
REMARK    6  A    between atoms: C_21  and  C_24
REMARK    7  A    between atoms: C_21  and  C_25
REMARK                            x       y       z     vdW  Elec       q    Type
REMARK                         _______ _______ _______ _____ _____    ______ ____
ROOT
ATOM      1  C   UNL     1     -11.326  54.903  49.511  0.00  0.00    +0.000 C 
ATOM      2  C   UNL     1     -11.509  53.744  48.636  0.00  0.00    +0.000 C 
ATOM      3  C   UNL     1     -10.032  54.898  49.853  0.00  0.00    +0.000 C 
ATOM      4  O   UNL     1     -12.603  53.360  48.255  0.00  0.00    +0.000 OA
ATOM      5  N   UNL     1     -10.268  53.221  48.343  0.00  0.00    +0.000 N 
ATOM      6  O   UNL     1      -9.448  55.776  50.732  0.00  0.00    +0.000 OA
ATOM      7  C   UNL     1      -9.203  53.825  49.156  0.00  0.00    +0.000 C 
ENDROOT
BRANCH   1  13
ATOM      8  S   UNL     1     -14.687  56.238  50.948  0.00  0.00    +0.000 S 
ATOM      9  O   UNL     1     -14.600  56.248  52.397  0.00  0.00    +0.000 OA
ATOM     10  O   UNL     1     -15.912  55.835  50.289  0.00  0.00    +0.000 OA
ATOM     11  N   UNL     1     -13.487  55.306  50.375  0.00  0.00    +0.000 N 
ATOM     12  C   UNL     1     -14.383  57.894  50.437  0.00  0.00    +0.000 A 
ATOM     13  C   UNL     1     -12.411  55.849  49.895  0.00  0.00    +0.000 C 
ATOM     14  C   UNL     1     -13.141  58.184  49.890  0.00  0.00    +0.000 A 
ATOM     15  C   UNL     1     -15.376  58.868  50.585  0.00  0.00    +0.000 A 
ATOM     16  N   UNL     1     -12.179  57.195  49.728  0.00  0.00    +0.000 N 
ATOM     17  C   UNL     1     -12.890  59.499  49.486  0.00  0.00    +0.000 A 
ATOM     18  C   UNL     1     -15.113  60.171  50.170  0.00  0.00    +0.000 A 
ATOM     19  C   UNL     1     -13.870  60.487  49.620  0.00  0.00    +0.000 A 
ATOM     20  H   UNL     1     -13.577  54.326  50.393  0.00  0.00    +0.000 HD
ATOM     21  H   UNL     1     -11.268  57.476  49.479  0.00  0.00    +0.000 HD
ENDBRANCH   1  13
BRANCH   7  22
ATOM     22  C   UNL     1      -7.945  54.354  48.369  0.00  0.00    +0.000 C 
ATOM     23  C   UNL     1      -7.052  53.187  47.880  0.00  0.00    +0.000 C 
ATOM     24  C   UNL     1      -8.347  55.106  47.084  0.00  0.00    +0.000 C 
ATOM     25  C   UNL     1      -7.084  55.286  49.242  0.00  0.00    +0.000 C 
ENDBRANCH   7  22
BRANCH   5  26
ATOM     26  C   UNL     1     -10.158  51.969  47.601  0.00  0.00    +0.000 C 
BRANCH  26  27
ATOM     27  C   UNL     1      -9.990  52.124  46.095  0.00  0.00    +0.000 A 
ATOM     28  N   UNL     1      -8.953  51.448  45.534  0.00  0.00    +0.000 NA
ATOM     29  C   UNL     1     -10.875  52.871  45.314  0.00  0.00    +0.000 A 
ATOM     30  C   UNL     1      -8.798  51.534  44.192  0.00  0.00    +0.000 A 
ATOM     31  C   UNL     1     -10.688  52.943  43.936  0.00  0.00    +0.000 A 
ATOM     32  C   UNL     1      -9.629  52.260  43.362  0.00  0.00    +0.000 A 
ENDBRANCH  26  27
ENDBRANCH   5  26
TORSDOF 4
ENDMDL
MODEL 8
REMARK VINA RESULT:      -7.5      2.347      2.950
REMARK  Name = 
REMARK  7 active torsions:
REMARK  status: ('A' for Active; 'I' for Inactive)
REMARK    1  A    between atoms: C_6  and  C_10
REMARK    2  A    between atoms: N_17  and  C_20
REMARK    3  A    between atoms: C_19  and  C_21
REMARK    4  A    between atoms: C_20  and  C_22
REMARK    5  A    between atoms: C_21  and  C_23
REMARK    6  A    between atoms: C_21  and  C_24
REMARK    7  A    between atoms: C_21  and  C_25
REMARK                            x       y       z     vdW  Elec       q    Type
REMARK                         _______ _______ _______ _____ _____    ______ ____
ROOT
ATOM      1  C   UNL     1     -11.047  54.690  50.775  0.00  0.00    +0.000 C 
ATOM      2  C   UNL     1     -10.398  54.264  52.017  0.00  0.00    +0.000 C 
ATOM      3  C   UNL     1     -10.472  53.973  49.803  0.00  0.00    +0.000 C 
ATOM      4  O   UNL     1     -10.576  54.820  53.089  0.00  0.00    +0.000 OA
ATOM      5  N   UNL     1      -9.606  53.170  51.740  0.00  0.00    +0.000 N 
ATOM      6  O   UNL     1     -10.733  54.115  48.462  0.00  0.00    +0.000 OA
ATOM      7  C   UNL     1      -9.482  52.923  50.297  0.00  0.00    +0.000 C 
ENDROOT
BRANCH   1  13
ATOM      8  S   UNL     1     -13.595  57.221  49.277  0.00  0.00    +0.000 S 
ATOM      9  O   UNL     1     -14.700  56.478  48.699  0.00  0.00    +0.000 OA
ATOM     10  O   UNL     1     -13.069  58.394  48.610  0.00  0.00    +0.000 OA
ATOM     11  N   UNL     1     -12.361  56.191  49.512  0.00  0.00    +0.000 N 
ATOM     12  C   UNL     1     -14.155  57.769  50.853  0.00  0.00    +0.000 A 
ATOM     13  C   UNL     1     -12.121  55.717  50.696  0.00  0.00    +0.000 C 
ATOM     14  C   UNL     1     -13.679  57.104  51.975  0.00  0.00    +0.000 A 
ATOM     15  C   UNL     1     -15.048  58.840  50.947  0.00  0.00    +0.000 A 
ATOM     16  N   UNL     1     -12.771  56.059  51.859  0.00  0.00    +0.000 N 
ATOM     17  C   UNL     1     -14.124  57.531  53.231  0.00  0.00    +0.000 A 
ATOM     18  C   UNL     1     -15.475  59.258  52.206  0.00  0.00    +0.000 A 
ATOM     19  C   UNL     1     -15.013  58.604  53.348  0.00  0.00    +0.000 A 
ATOM     20  H   UNL     1     -11.794  55.926  48.752  0.00  0.00    +0.000 HD
ATOM     21  H   UNL     1     -12.581  55.525  52.665  0.00  0.00    +0.000 HD
ENDBRANCH   1  13
BRANCH   7  22
ATOM     22  C   UNL     1      -9.771  51.451  49.818  0.00  0.00    +0.000 C 
ATOM     23  C   UNL     1      -9.570  51.304  48.289  0.00  0.00    +0.000 C 
ATOM     24  C   UNL     1      -8.785  50.442  50.441  0.00  0.00    +0.000 C 
ATOM     25  C   UNL     1     -11.208  51.017  50.158  0.00  0.00    +0.000 C 
ENDBRANCH   7  22
BRANCH   5  26
ATOM     26  C   UNL     1      -8.728  52.623  52.771  0.00  0.00    +0.000 C 
BRANCH  26  27
ATOM     27  C   UNL     1      -7.461  53.428  53.032  0.00  0.00    +0.000 A 
ATOM     28  N   UNL     1      -7.363  54.013  54.254  0.00  0.00    +0.000 NA
ATOM     29  C   UNL     1      -6.427  53.522  52.098  0.00  0.00    +0.000 A 
ATOM     30  C   UNL     1      -6.232  54.704  54.532  0.00  0.00    +0.000 A 
ATOM     31  C   UNL     1      -5.277  54.241  52.412  0.00  0.00    +0.000 A 
ATOM     32  C   UNL     1      -5.175  54.845  53.654  0.00  0.00    +0.000 A 
ENDBRANCH  26  27
ENDBRANCH   5  26
TORSDOF 4
ENDMDL
MODEL 9
REMARK VINA RESULT:      -7.3      2.868      7.272
REMARK  Name = 
REMARK  7 active torsions:
REMARK  status: ('A' for Active; 'I' for Inactive)
REMARK    1  A    between atoms: C_6  and  C_10
REMARK    2  A    between atoms: N_17  and  C_20
REMARK    3  A    between atoms: C_19  and  C_21
REMARK    4  A    between atoms: C_20  and  C_22
REMARK    5  A    between atoms: C_21  and  C_23
REMARK    6  A    between atoms: C_21  and  C_24
REMARK    7  A    between atoms: C_21  and  C_25
REMARK                            x       y       z     vdW  Elec       q    Type
REMARK                         _______ _______ _______ _____ _____    ______ ____
ROOT
ATOM      1  C   UNL     1      -9.618  54.434  50.523  0.00  0.00    +0.000 C 
ATOM      2  C   UNL     1     -10.958  54.971  50.772  0.00  0.00    +0.000 C 
ATOM      3  C   UNL     1      -9.677  53.863  49.315  0.00  0.00    +0.000 C 
ATOM      4  O   UNL     1     -11.304  55.433  51.848  0.00  0.00    +0.000 OA
ATOM      5  N   UNL     1     -11.692  54.862  49.611  0.00  0.00    +0.000 N 
ATOM      6  O   UNL     1      -8.651  53.167  48.724  0.00  0.00    +0.000 OA
ATOM      7  C   UNL     1     -11.004  54.060  48.590  0.00  0.00    +0.000 C 
ENDROOT
BRANCH   1  13
ATOM      8  S   UNL     1      -7.370  55.748  53.415  0.00  0.00    +0.000 S 
ATOM      9  O   UNL     1      -7.973  55.368  54.680  0.00  0.00    +0.000 OA
ATOM     10  O   UNL     1      -6.756  57.051  53.255  0.00  0.00    +0.000 OA
ATOM     11  N   UNL     1      -8.490  55.584  52.251  0.00  0.00    +0.000 N 
ATOM     12  C   UNL     1      -6.096  54.571  53.116  0.00  0.00    +0.000 A 
ATOM     13  C   UNL     1      -8.477  54.545  51.472  0.00  0.00    +0.000 C 
ATOM     14  C   UNL     1      -6.336  53.586  52.168  0.00  0.00    +0.000 A 
ATOM     15  C   UNL     1      -4.891  54.646  53.822  0.00  0.00    +0.000 A 
ATOM     16  N   UNL     1      -7.531  53.546  51.459  0.00  0.00    +0.000 N 
ATOM     17  C   UNL     1      -5.330  52.644  51.928  0.00  0.00    +0.000 A 
ATOM     18  C   UNL     1      -3.897  53.705  53.565  0.00  0.00    +0.000 A 
ATOM     19  C   UNL     1      -4.116  52.704  52.619  0.00  0.00    +0.000 A 
ATOM     20  H   UNL     1      -9.182  56.275  52.135  0.00  0.00    +0.000 HD
ATOM     21  H   UNL     1      -7.713  52.748  50.912  0.00  0.00    +0.000 HD
ENDBRANCH   1  13
BRANCH   7  22
ATOM     22  C   UNL     1     -10.896  54.705  47.157  0.00  0.00    +0.000 C 
ATOM     23  C   UNL     1     -10.818  53.621  46.053  0.00  0.00    +0.000 C 
ATOM     24  C   UNL     1     -12.148  55.534  46.805  0.00  0.00    +0.000 C 
ATOM     25  C   UNL     1      -9.653  55.607  47.035  0.00  0.00    +0.000 C 
ENDBRANCH   7  22
BRANCH   5  26
ATOM     26  C   UNL     1     -13.115  55.191  49.611  0.00  0.00    +0.000 C 
BRANCH  26  27
ATOM     27  C   UNL     1     -13.445  56.624  50.007  0.00  0.00    +0.000 A 
ATOM     28  N   UNL     1     -12.942  57.599  49.207  0.00  0.00    +0.000 NA
ATOM     29  C   UNL     1     -14.264  56.931  51.097  0.00  0.00    +0.000 A 
ATOM     30  C   UNL     1     -13.248  58.883  49.510  0.00  0.00    +0.000 A 
ATOM     31  C   UNL     1     -14.560  58.261  51.385  0.00  0.00    +0.000 A 
ATOM     32  C   UNL     1     -14.043  59.258  50.575  0.00  0.00    +0.000 A 
ENDBRANCH  26  27
ENDBRANCH   5  26
TORSDOF 4
ENDMDL
