MODEL 1
REMARK VINA RESULT:      -8.2      0.000      0.000
REMARK  Name = 
REMARK  7 active torsions:
REMARK  status: ('A' for Active; 'I' for Inactive)
REMARK    1  A    between atoms: C_6  and  C_10
REMARK    2  A    between atoms: C_14  and  O_18
REMARK    3  A    between atoms: N_17  and  C_21
REMARK    4  A    between atoms: C_21  and  C_24
REMARK    5  A    between atoms: C_24  and  C_27
REMARK    6  A    between atoms: C_27  and  C_28
REMARK    7  A    between atoms: C_27  and  C_29
REMARK                            x       y       z     vdW  Elec       q    Type
REMARK                         _______ _______ _______ _____ _____    ______ ____
ROOT
ATOM      1  C   UNL     1     -10.149  54.360  52.281  0.00  0.00    +0.000 A 
ATOM      2  C   UNL     1      -8.775  54.947  52.245  0.00  0.00    +0.000 A 
ATOM      3  C   UNL     1     -10.388  53.240  52.979  0.00  0.00    +0.000 A 
ATOM      4  O   UNL     1      -8.623  56.052  51.718  0.00  0.00    +0.000 OA
ATOM      5  N   UNL     1      -7.732  54.235  52.824  0.00  0.00    +0.000 N 
ATOM      6  C   UNL     1      -9.300  52.579  53.715  0.00  0.00    +0.000 A 
ATOM      7  C   UNL     1      -7.992  53.091  53.640  0.00  0.00    +0.000 A 
ATOM      8  C   UNL     1      -9.558  51.455  54.518  0.00  0.00    +0.000 A 
ATOM      9  C   UNL     1      -6.988  52.479  54.408  0.00  0.00    +0.000 A 
ATOM     10  C   UNL     1      -8.542  50.852  55.258  0.00  0.00    +0.000 A 
ATOM     11  C   UNL     1      -7.257  51.364  55.203  0.00  0.00    +0.000 A 
ENDROOT
BRANCH   1  17
ATOM     12  S   UNL     1     -12.359  55.934  49.440  0.00  0.00    +0.000 S 
ATOM     13  O   UNL     1     -13.237  54.972  48.806  0.00  0.00    +0.000 OA
ATOM     14  O   UNL     1     -11.668  56.932  48.646  0.00  0.00    +0.000 OA
ATOM     15  N   UNL     1     -11.255  55.113  50.288  0.00  0.00    +0.000 N 
ATOM     16  C   UNL     1     -13.366  56.835  50.570  0.00  0.00    +0.000 A 
ATOM     17  C   UNL     1     -11.276  55.103  51.590  0.00  0.00    +0.000 C 
ATOM     18  C   UNL     1     -13.163  56.625  51.924  0.00  0.00    +0.000 A 
ATOM     19  C   UNL     1     -14.322  57.737  50.097  0.00  0.00    +0.000 A 
ATOM     20  N   UNL     1     -12.222  55.709  52.383  0.00  0.00    +0.000 N 
ATOM     21  C   UNL     1     -13.990  57.296  52.830  0.00  0.00    +0.000 A 
ATOM     22  C   UNL     1     -15.118  58.422  51.012  0.00  0.00    +0.000 A 
ATOM     23  C   UNL     1     -14.956  58.198  52.376  0.00  0.00    +0.000 A 
ATOM     24  H   UNL     1     -10.553  54.613  49.812  0.00  0.00    +0.000 HD
ATOM     25  H   UNL     1     -12.233  55.481  53.340  0.00  0.00    +0.000 HD
ENDBRANCH   1  17
BRANCH   3  26
ATOM     26  O   UNL     1     -11.635  52.654  53.119  0.00  0.00    +0.000 OA
ATOM     27  H   UNL     1     -11.706  51.769  53.420  0.00  0.00    +0.000 HD
ENDBRANCH   3  26
BRANCH   5  28
ATOM     28  C   UNL     1      -6.379  54.797  52.717  0.00  0.00    +0.000 C 
BRANCH  28  29
ATOM     29  C   UNL     1      -5.534  54.290  51.536  0.00  0.00    +0.000 C 
BRANCH  29  30
ATOM     30  C   UNL     1      -4.126  53.768  51.866  0.00  0.00    +0.000 C 
ATOM     31  C   UNL     1      -3.847  53.750  53.368  0.00  0.00    +0.000 C 
ATOM     32  C   UNL     1      -3.990  52.352  51.293  0.00  0.00    +0.000 C 
ENDBRANCH  29  30
ENDBRANCH  28  29
ENDBRANCH   5  28
TORSDOF 5
ENDMDL
MODEL 2
REMARK VINA RESULT:      -7.9      2.566      8.018
REMARK  Name = 
REMARK  7 active torsions:
REMARK  status: ('A' for Active; 'I' for Inactive)
REMARK    1  A    between atoms: C_6  and  C_10
REMARK    2  A    between atoms: C_14  and  O_18
REMARK    3  A    between atoms: N_17  and  C_21
REMARK    4  A    between atoms: C_21  and  C_24
REMARK    5  A    between atoms: C_24  and  C_27
REMARK    6  A    between atoms: C_27  and  C_28
REMARK    7  A    between atoms: C_27  and  C_29
REMARK                            x       y       z     vdW  Elec       q    Type
REMARK                         _______ _______ _______ _____ _____    ______ ____
ROOT
ATOM      1  C   UNL     1     -10.144  54.733  50.957  0.00  0.00    +0.000 A 
ATOM      2  C   UNL     1     -11.476  55.278  51.361  0.00  0.00    +0.000 A 
ATOM      3  C   UNL     1      -9.804  54.670  49.661  0.00  0.00    +0.000 A 
ATOM      4  O   UNL     1     -11.697  55.457  52.561  0.00  0.00    +0.000 OA
ATOM      5  N   UNL     1     -12.401  55.579  50.369  0.00  0.00    +0.000 N 
ATOM      6  C   UNL     1     -10.739  55.137  48.626  0.00  0.00    +0.000 A 
ATOM      7  C   UNL     1     -12.017  55.597  48.992  0.00  0.00    +0.000 A 
ATOM      8  C   UNL     1     -10.359  55.156  47.273  0.00  0.00    +0.000 A 
ATOM      9  C   UNL     1     -12.862  56.100  47.989  0.00  0.00    +0.000 A 
ATOM     10  C   UNL     1     -11.221  55.641  46.291  0.00  0.00    +0.000 A 
ATOM     11  C   UNL     1     -12.472  56.114  46.649  0.00  0.00    +0.000 A 
ENDROOT
BRANCH   1  17
ATOM     12  S   UNL     1      -6.907  54.670  53.182  0.00  0.00    +0.000 S 
ATOM     13  O   UNL     1      -6.906  55.691  54.210  0.00  0.00    +0.000 OA
ATOM     14  O   UNL     1      -5.695  54.371  52.443  0.00  0.00    +0.000 OA
ATOM     15  N   UNL     1      -8.066  55.041  52.118  0.00  0.00    +0.000 N 
ATOM     16  C   UNL     1      -7.358  53.171  53.989  0.00  0.00    +0.000 A 
ATOM     17  C   UNL     1      -9.160  54.339  52.040  0.00  0.00    +0.000 C 
ATOM     18  C   UNL     1      -8.605  52.636  53.709  0.00  0.00    +0.000 A 
ATOM     19  C   UNL     1      -6.468  52.550  54.869  0.00  0.00    +0.000 A 
ATOM     20  N   UNL     1      -9.491  53.275  52.847  0.00  0.00    +0.000 N 
ATOM     21  C   UNL     1      -8.994  51.474  54.382  0.00  0.00    +0.000 A 
ATOM     22  C   UNL     1      -6.857  51.375  55.508  0.00  0.00    +0.000 A 
ATOM     23  C   UNL     1      -8.120  50.842  55.270  0.00  0.00    +0.000 A 
ATOM     24  H   UNL     1      -7.942  55.810  51.517  0.00  0.00    +0.000 HD
ATOM     25  H   UNL     1     -10.416  52.942  52.812  0.00  0.00    +0.000 HD
ENDBRANCH   1  17
BRANCH   3  26
ATOM     26  O   UNL     1      -8.575  54.236  49.192  0.00  0.00    +0.000 OA
ATOM     27  H   UNL     1      -7.987  53.788  49.766  0.00  0.00    +0.000 HD
ENDBRANCH   3  26
BRANCH   5  28
ATOM     28  C   UNL     1     -13.727  56.048  50.791  0.00  0.00    +0.000 C 
BRANCH  28  29
ATOM     29  C   UNL     1     -13.807  57.517  51.239  0.00  0.00    +0.000 C 
BRANCH  29  30
ATOM     30  C   UNL     1     -14.565  57.803  52.545  0.00  0.00    +0.000 C 
ATOM     31  C   UNL     1     -15.076  59.241  52.621  0.00  0.00    +0.000 C 
ATOM     32  C   UNL     1     -15.742  56.825  52.645  0.00  0.00    +0.000 C 
ENDBRANCH  29  30
ENDBRANCH  28  29
ENDBRANCH   5  28
TORSDOF 5
ENDMDL
MODEL 3
REMARK VINA RESULT:      -7.9      2.074      2.882
REMARK  Name = 
REMARK  7 active torsions:
REMARK  status: ('A' for Active; 'I' for Inactive)
REMARK    1  A    between atoms: C_6  and  C_10
REMARK    2  A    between atoms: C_14  and  O_18
REMARK    3  A    between atoms: N_17  and  C_21
REMARK    4  A    between atoms: C_21  and  C_24
REMARK    5  A    between atoms: C_24  and  C_27
REMARK    6  A    between atoms: C_27  and  C_28
REMARK    7  A    between atoms: C_27  and  C_29
REMARK                            x       y       z     vdW  Elec       q    Type
REMARK                         _______ _______ _______ _____ _____    ______ ____
ROOT
ATOM      1  C   UNL     1     -11.584  54.037  51.165  0.00  0.00    +0.000 A 
ATOM      2  C   UNL     1     -10.655  54.073  52.336  0.00  0.00    +0.000 A 
ATOM      3  C   UNL     1     -11.694  52.925  50.423  0.00  0.00    +0.000 A 
ATOM      4  O   UNL     1     -10.688  55.056  53.080  0.00  0.00    +0.000 OA
ATOM      5  N   UNL     1      -9.811  52.990  52.549  0.00  0.00    +0.000 N 
ATOM      6  C   UNL     1     -10.902  51.731  50.755  0.00  0.00    +0.000 A 
ATOM      7  C   UNL     1      -9.983  51.773  51.819  0.00  0.00    +0.000 A 
ATOM      8  C   UNL     1     -11.074  50.535  50.037  0.00  0.00    +0.000 A 
ATOM      9  C   UNL     1      -9.292  50.598  52.154  0.00  0.00    +0.000 A 
ATOM     10  C   UNL     1     -10.363  49.385  50.375  0.00  0.00    +0.000 A 
ATOM     11  C   UNL     1      -9.472  49.416  51.435  0.00  0.00    +0.000 A 
ENDROOT
BRANCH   1  17
ATOM     12  S   UNL     1     -13.227  57.079  49.299  0.00  0.00    +0.000 S 
ATOM     13  O   UNL     1     -14.310  56.687  48.422  0.00  0.00    +0.000 OA
ATOM     14  O   UNL     1     -12.277  58.094  48.885  0.00  0.00    +0.000 OA
ATOM     15  N   UNL     1     -12.400  55.746  49.691  0.00  0.00    +0.000 N 
ATOM     16  C   UNL     1     -13.989  57.704  50.759  0.00  0.00    +0.000 A 
ATOM     17  C   UNL     1     -12.457  55.246  50.891  0.00  0.00    +0.000 C 
ATOM     18  C   UNL     1     -13.884  56.951  51.916  0.00  0.00    +0.000 A 
ATOM     19  C   UNL     1     -14.661  58.929  50.733  0.00  0.00    +0.000 A 
ATOM     20  N   UNL     1     -13.230  55.723  51.925  0.00  0.00    +0.000 N 
ATOM     21  C   UNL     1     -14.527  57.411  53.069  0.00  0.00    +0.000 A 
ATOM     22  C   UNL     1     -15.271  59.391  51.897  0.00  0.00    +0.000 A 
ATOM     23  C   UNL     1     -15.209  58.631  53.061  0.00  0.00    +0.000 A 
ATOM     24  H   UNL     1     -11.844  55.305  49.009  0.00  0.00    +0.000 HD
ATOM     25  H   UNL     1     -13.325  55.158  52.725  0.00  0.00    +0.000 HD
ENDBRANCH   1  17
BRANCH   3  26
ATOM     26  O   UNL     1     -12.566  52.776  49.357  0.00  0.00    +0.000 OA
ATOM     27  H   UNL     1     -12.301  53.033  48.496  0.00  0.00    +0.000 HD
ENDBRANCH   3  26
BRANCH   5  28
ATOM     28  C   UNL     1      -8.859  53.076  53.664  0.00  0.00    +0.000 C 
BRANCH  28  29
ATOM     29  C   UNL     1      -7.484  53.676  53.327  0.00  0.00    +0.000 C 
BRANCH  29  30
ATOM     30  C   UNL     1      -6.968  54.789  54.253  0.00  0.00    +0.000 C 
ATOM     31  C   UNL     1      -5.510  54.584  54.657  0.00  0.00    +0.000 C 
ATOM     32  C   UNL     1      -7.125  56.132  53.528  0.00  0.00    +0.000 C 
ENDBRANCH  29  30
ENDBRANCH  28  29
ENDBRANCH   5  28
TORSDOF 5
ENDMDL
MODEL 4
REMARK VINA RESULT:      -7.9      3.367      5.111
REMARK  Name = 
REMARK  7 active torsions:
REMARK  status: ('A' for Active; 'I' for Inactive)
REMARK    1  A    between atoms: C_6  and  C_10
REMARK    2  A    between atoms: C_14  and  O_18
REMARK    3  A    between atoms: N_17  and  C_21
REMARK    4  A    between atoms: C_21  and  C_24
REMARK    5  A    between atoms: C_24  and  C_27
REMARK    6  A    between atoms: C_27  and  C_28
REMARK    7  A    between atoms: C_27  and  C_29
REMARK                            x       y       z     vdW  Elec       q    Type
REMARK                         _______ _______ _______ _____ _____    ______ ____
ROOT
ATOM      1  C   UNL     1     -11.594  55.956  48.830  0.00  0.00    +0.000 A 
ATOM      2  C   UNL     1     -10.597  55.274  49.710  0.00  0.00    +0.000 A 
ATOM      3  C   UNL     1     -11.680  55.635  47.530  0.00  0.00    +0.000 A 
ATOM      4  O   UNL     1     -10.645  55.486  50.924  0.00  0.00    +0.000 OA
ATOM      5  N   UNL     1      -9.672  54.415  49.129  0.00  0.00    +0.000 N 
ATOM      6  C   UNL     1     -10.794  54.609  46.960  0.00  0.00    +0.000 A 
ATOM      7  C   UNL     1      -9.812  54.004  47.767  0.00  0.00    +0.000 A 
ATOM      8  C   UNL     1     -10.934  54.205  45.622  0.00  0.00    +0.000 A 
ATOM      9  C   UNL     1      -9.027  52.981  47.212  0.00  0.00    +0.000 A 
ATOM     10  C   UNL     1     -10.130  53.200  45.086  0.00  0.00    +0.000 A 
ATOM     11  C   UNL     1      -9.177  52.587  45.882  0.00  0.00    +0.000 A 
ENDROOT
BRANCH   1  17
ATOM     12  S   UNL     1     -13.587  59.275  49.496  0.00  0.00    +0.000 S 
ATOM     13  O   UNL     1     -14.727  59.437  48.618  0.00  0.00    +0.000 OA
ATOM     14  O   UNL     1     -12.743  60.409  49.821  0.00  0.00    +0.000 OA
ATOM     15  N   UNL     1     -12.650  58.110  48.881  0.00  0.00    +0.000 N 
ATOM     16  C   UNL     1     -14.237  58.707  51.031  0.00  0.00    +0.000 A 
ATOM     17  C   UNL     1     -12.559  56.945  49.454  0.00  0.00    +0.000 C 
ATOM     18  C   UNL     1     -13.975  57.397  51.399  0.00  0.00    +0.000 A 
ATOM     19  C   UNL     1     -14.978  59.567  51.844  0.00  0.00    +0.000 A 
ATOM     20  N   UNL     1     -13.252  56.543  50.571  0.00  0.00    +0.000 N 
ATOM     21  C   UNL     1     -14.527  56.919  52.591  0.00  0.00    +0.000 A 
ATOM     22  C   UNL     1     -15.497  59.087  53.044  0.00  0.00    +0.000 A 
ATOM     23  C   UNL     1     -15.277  57.764  53.414  0.00  0.00    +0.000 A 
ATOM     24  H   UNL     1     -12.138  58.286  48.058  0.00  0.00    +0.000 HD
ATOM     25  H   UNL     1     -13.236  55.587  50.803  0.00  0.00    +0.000 HD
ENDBRANCH   1  17
BRANCH   3  26
ATOM     26  O   UNL     1     -12.607  56.167  46.650  0.00  0.00    +0.000 OA
ATOM     27  H   UNL     1     -13.505  55.904  46.699  0.00  0.00    +0.000 HD
ENDBRANCH   3  26
BRANCH   5  28
ATOM     28  C   UNL     1      -8.659  53.810  50.002  0.00  0.00    +0.000 C 
BRANCH  28  29
ATOM     29  C   UNL     1      -7.282  54.497  50.007  0.00  0.00    +0.000 C 
BRANCH  29  30
ATOM     30  C   UNL     1      -6.995  55.464  51.166  0.00  0.00    +0.000 C 
ATOM     31  C   UNL     1      -7.541  56.866  50.906  0.00  0.00    +0.000 C 
ATOM     32  C   UNL     1      -7.622  54.888  52.442  0.00  0.00    +0.000 C 
ENDBRANCH  29  30
ENDBRANCH  28  29
ENDBRANCH   5  28
TORSDOF 5
ENDMDL
MODEL 5
REMARK VINA RESULT:      -7.9      3.328      7.324
REMARK  Name = 
REMARK  7 active torsions:
REMARK  status: ('A' for Active; 'I' for Inactive)
REMARK    1  A    between atoms: C_6  and  C_10
REMARK    2  A    between atoms: C_14  and  O_18
REMARK    3  A    between atoms: N_17  and  C_21
REMARK    4  A    between atoms: C_21  and  C_24
REMARK    5  A    between atoms: C_24  and  C_27
REMARK    6  A    between atoms: C_27  and  C_28
REMARK    7  A    between atoms: C_27  and  C_29
REMARK                            x       y       z     vdW  Elec       q    Type
REMARK                         _______ _______ _______ _____ _____    ______ ____
ROOT
ATOM      1  C   UNL     1     -10.275  55.204  50.812  0.00  0.00    +0.000 A 
ATOM      2  C   UNL     1      -9.870  55.109  49.377  0.00  0.00    +0.000 A 
ATOM      3  C   UNL     1     -11.483  55.685  51.144  0.00  0.00    +0.000 A 
ATOM      4  O   UNL     1      -8.817  54.528  49.102  0.00  0.00    +0.000 OA
ATOM      5  N   UNL     1     -10.704  55.659  48.411  0.00  0.00    +0.000 N 
ATOM      6  C   UNL     1     -12.419  56.123  50.097  0.00  0.00    +0.000 A 
ATOM      7  C   UNL     1     -12.025  56.092  48.747  0.00  0.00    +0.000 A 
ATOM      8  C   UNL     1     -13.717  56.547  50.429  0.00  0.00    +0.000 A 
ATOM      9  C   UNL     1     -12.963  56.452  47.767  0.00  0.00    +0.000 A 
ATOM     10  C   UNL     1     -14.626  56.919  49.441  0.00  0.00    +0.000 A 
ATOM     11  C   UNL     1     -14.250  56.870  48.109  0.00  0.00    +0.000 A 
ENDROOT
BRANCH   1  17
ATOM     12  S   UNL     1      -7.059  54.721  53.015  0.00  0.00    +0.000 S 
ATOM     13  O   UNL     1      -6.956  55.689  54.088  0.00  0.00    +0.000 OA
ATOM     14  O   UNL     1      -5.882  54.338  52.257  0.00  0.00    +0.000 OA
ATOM     15  N   UNL     1      -8.176  55.252  51.975  0.00  0.00    +0.000 N 
ATOM     16  C   UNL     1      -7.654  53.239  53.756  0.00  0.00    +0.000 A 
ATOM     17  C   UNL     1      -9.333  54.666  51.872  0.00  0.00    +0.000 C 
ATOM     18  C   UNL     1      -8.948  52.843  53.459  0.00  0.00    +0.000 A 
ATOM     19  C   UNL     1      -6.830  52.493  54.602  0.00  0.00    +0.000 A 
ATOM     20  N   UNL     1      -9.767  53.604  52.631  0.00  0.00    +0.000 N 
ATOM     21  C   UNL     1      -9.450  51.695  54.081  0.00  0.00    +0.000 A 
ATOM     22  C   UNL     1      -7.332  51.335  55.190  0.00  0.00    +0.000 A 
ATOM     23  C   UNL     1      -8.642  50.940  54.935  0.00  0.00    +0.000 A 
ATOM     24  H   UNL     1      -7.977  56.032  51.409  0.00  0.00    +0.000 HD
ATOM     25  H   UNL     1     -10.721  53.366  52.586  0.00  0.00    +0.000 HD
ENDBRANCH   1  17
BRANCH   3  26
ATOM     26  O   UNL     1     -11.970  55.759  52.438  0.00  0.00    +0.000 OA
ATOM     27  H   UNL     1     -12.032  56.589  52.869  0.00  0.00    +0.000 HD
ENDBRANCH   3  26
BRANCH   5  28
ATOM     28  C   UNL     1     -10.254  55.615  47.014  0.00  0.00    +0.000 C 
BRANCH  28  29
ATOM     29  C   UNL     1     -10.544  54.307  46.258  0.00  0.00    +0.000 C 
BRANCH  29  30
ATOM     30  C   UNL     1      -9.338  53.585  45.636  0.00  0.00    +0.000 C 
ATOM     31  C   UNL     1      -9.656  52.993  44.264  0.00  0.00    +0.000 C 
ATOM     32  C   UNL     1      -8.184  54.588  45.516  0.00  0.00    +0.000 C 
ENDBRANCH  29  30
ENDBRANCH  28  29
ENDBRANCH   5  28
TORSDOF 5
ENDMDL
MODEL 6
REMARK VINA RESULT:      -7.8      3.667      5.032
REMARK  Name = 
REMARK  7 active torsions:
REMARK  status: ('A' for Active; 'I' for Inactive)
REMARK    1  A    between atoms: C_6  and  C_10
REMARK    2  A    between atoms: C_14  and  O_18
REMARK    3  A    between atoms: N_17  and  C_21
REMARK    4  A    between atoms: C_21  and  C_24
REMARK    5  A    between atoms: C_24  and  C_27
REMARK    6  A    between atoms: C_27  and  C_28
REMARK    7  A    between atoms: C_27  and  C_29
REMARK                            x       y       z     vdW  Elec       q    Type
REMARK                         _______ _______ _______ _____ _____    ______ ____
ROOT
ATOM      1  C   UNL     1     -12.227  54.265  50.259  0.00  0.00    +0.000 A 
ATOM      2  C   UNL     1     -11.943  53.885  48.841  0.00  0.00    +0.000 A 
ATOM      3  C   UNL     1     -11.659  53.587  51.268  0.00  0.00    +0.000 A 
ATOM      4  O   UNL     1     -12.362  54.619  47.943  0.00  0.00    +0.000 OA
ATOM      5  N   UNL     1     -11.202  52.736  48.595  0.00  0.00    +0.000 N 
ATOM      6  C   UNL     1     -10.752  52.463  50.987  0.00  0.00    +0.000 A 
ATOM      7  C   UNL     1     -10.525  52.061  49.659  0.00  0.00    +0.000 A 
ATOM      8  C   UNL     1     -10.086  51.802  52.033  0.00  0.00    +0.000 A 
ATOM      9  C   UNL     1      -9.602  51.030  49.419  0.00  0.00    +0.000 A 
ATOM     10  C   UNL     1      -9.189  50.768  51.774  0.00  0.00    +0.000 A 
ATOM     11  C   UNL     1      -8.945  50.382  50.466  0.00  0.00    +0.000 A 
ENDROOT
BRANCH   1  17
ATOM     12  S   UNL     1     -15.287  56.467  51.362  0.00  0.00    +0.000 S 
ATOM     13  O   UNL     1     -15.324  56.712  52.789  0.00  0.00    +0.000 OA
ATOM     14  O   UNL     1     -16.509  56.177  50.636  0.00  0.00    +0.000 OA
ATOM     15  N   UNL     1     -14.244  55.262  51.093  0.00  0.00    +0.000 N 
ATOM     16  C   UNL     1     -14.635  57.933  50.636  0.00  0.00    +0.000 A 
ATOM     17  C   UNL     1     -13.093  55.480  50.527  0.00  0.00    +0.000 C 
ATOM     18  C   UNL     1     -13.362  57.874  50.094  0.00  0.00    +0.000 A 
ATOM     19  C   UNL     1     -15.397  59.103  50.605  0.00  0.00    +0.000 A 
ATOM     20  N   UNL     1     -12.604  56.709  50.149  0.00  0.00    +0.000 N 
ATOM     21  C   UNL     1     -12.813  59.044  49.560  0.00  0.00    +0.000 A 
ATOM     22  C   UNL     1     -14.850  60.254  50.042  0.00  0.00    +0.000 A 
ATOM     23  C   UNL     1     -13.558  60.226  49.526  0.00  0.00    +0.000 A 
ATOM     24  H   UNL     1     -14.485  54.346  51.362  0.00  0.00    +0.000 HD
ATOM     25  H   UNL     1     -11.654  56.768  49.899  0.00  0.00    +0.000 HD
ENDBRANCH   1  17
BRANCH   3  26
ATOM     26  O   UNL     1     -11.815  53.898  52.608  0.00  0.00    +0.000 OA
ATOM     27  H   UNL     1     -12.477  54.505  52.874  0.00  0.00    +0.000 HD
ENDBRANCH   3  26
BRANCH   5  28
ATOM     28  C   UNL     1     -10.993  52.344  47.196  0.00  0.00    +0.000 C 
BRANCH  28  29
ATOM     29  C   UNL     1      -9.741  52.924  46.517  0.00  0.00    +0.000 C 
BRANCH  29  30
ATOM     30  C   UNL     1      -9.948  53.629  45.167  0.00  0.00    +0.000 C 
ATOM     31  C   UNL     1      -8.975  53.138  44.097  0.00  0.00    +0.000 C 
ATOM     32  C   UNL     1     -11.392  53.383  44.711  0.00  0.00    +0.000 C 
ENDBRANCH  29  30
ENDBRANCH  28  29
ENDBRANCH   5  28
TORSDOF 5
ENDMDL
MODEL 7
REMARK VINA RESULT:      -7.7      2.651      8.093
REMARK  Name = 
REMARK  7 active torsions:
REMARK  status: ('A' for Active; 'I' for Inactive)
REMARK    1  A    between atoms: C_6  and  C_10
REMARK    2  A    between atoms: C_14  and  O_18
REMARK    3  A    between atoms: N_17  and  C_21
REMARK    4  A    between atoms: C_21  and  C_24
REMARK    5  A    between atoms: C_24  and  C_27
REMARK    6  A    between atoms: C_27  and  C_28
REMARK    7  A    between atoms: C_27  and  C_29
REMARK                            x       y       z     vdW  Elec       q    Type
REMARK                         _______ _______ _______ _____ _____    ______ ____
ROOT
ATOM      1  C   UNL     1      -9.954  55.077  50.378  0.00  0.00    +0.000 A 
ATOM      2  C   UNL     1     -11.007  55.336  51.407  0.00  0.00    +0.000 A 
ATOM      3  C   UNL     1     -10.205  55.312  49.081  0.00  0.00    +0.000 A 
ATOM      4  O   UNL     1     -10.695  55.249  52.598  0.00  0.00    +0.000 OA
ATOM      5  N   UNL     1     -12.283  55.684  50.983  0.00  0.00    +0.000 N 
ATOM      6  C   UNL     1     -11.517  55.827  48.661  0.00  0.00    +0.000 A 
ATOM      7  C   UNL     1     -12.532  56.019  49.615  0.00  0.00    +0.000 A 
ATOM      8  C   UNL     1     -11.760  56.158  47.317  0.00  0.00    +0.000 A 
ATOM      9  C   UNL     1     -13.751  56.576  49.195  0.00  0.00    +0.000 A 
ATOM     10  C   UNL     1     -12.984  56.692  46.918  0.00  0.00    +0.000 A 
ATOM     11  C   UNL     1     -13.980  56.902  47.858  0.00  0.00    +0.000 A 
ENDROOT
BRANCH   1  17
ATOM     12  S   UNL     1      -6.636  52.994  50.667  0.00  0.00    +0.000 S 
ATOM     13  O   UNL     1      -5.667  53.326  49.643  0.00  0.00    +0.000 OA
ATOM     14  O   UNL     1      -6.844  51.613  51.060  0.00  0.00    +0.000 OA
ATOM     15  N   UNL     1      -8.062  53.609  50.218  0.00  0.00    +0.000 N 
ATOM     16  C   UNL     1      -6.108  53.831  52.124  0.00  0.00    +0.000 A 
ATOM     17  C   UNL     1      -8.580  54.630  50.837  0.00  0.00    +0.000 C 
ATOM     18  C   UNL     1      -6.869  54.901  52.566  0.00  0.00    +0.000 A 
ATOM     19  C   UNL     1      -4.964  53.407  52.804  0.00  0.00    +0.000 A 
ATOM     20  N   UNL     1      -7.995  55.327  51.868  0.00  0.00    +0.000 N 
ATOM     21  C   UNL     1      -6.432  55.605  53.692  0.00  0.00    +0.000 A 
ATOM     22  C   UNL     1      -4.557  54.099  53.942  0.00  0.00    +0.000 A 
ATOM     23  C   UNL     1      -5.286  55.200  54.382  0.00  0.00    +0.000 A 
ATOM     24  H   UNL     1      -8.547  53.204  49.463  0.00  0.00    +0.000 HD
ATOM     25  H   UNL     1      -8.400  56.184  52.132  0.00  0.00    +0.000 HD
ENDBRANCH   1  17
BRANCH   3  26
ATOM     26  O   UNL     1      -9.279  55.158  48.062  0.00  0.00    +0.000 OA
ATOM     27  H   UNL     1      -9.086  54.303  47.730  0.00  0.00    +0.000 HD
ENDBRANCH   3  26
BRANCH   5  28
ATOM     28  C   UNL     1     -13.318  55.866  52.008  0.00  0.00    +0.000 C 
BRANCH  28  29
ATOM     29  C   UNL     1     -13.370  57.255  52.668  0.00  0.00    +0.000 C 
BRANCH  29  30
ATOM     30  C   UNL     1     -14.740  57.950  52.713  0.00  0.00    +0.000 C 
ATOM     31  C   UNL     1     -14.811  59.161  51.785  0.00  0.00    +0.000 C 
ATOM     32  C   UNL     1     -15.813  56.927  52.320  0.00  0.00    +0.000 C 
ENDBRANCH  29  30
ENDBRANCH  28  29
ENDBRANCH   5  28
TORSDOF 5
ENDMDL
MODEL 8
REMARK VINA RESULT:      -7.7      2.673      8.218
REMARK  Name = 
REMARK  7 active torsions:
REMARK  status: ('A' for Active; 'I' for Inactive)
REMARK    1  A    between atoms: C_6  and  C_10
REMARK    2  A    between atoms: C_14  and  O_18
REMARK    3  A    between atoms: N_17  and  C_21
REMARK    4  A    between atoms: C_21  and  C_24
REMARK    5  A    between atoms: C_24  and  C_27
REMARK    6  A    between atoms: C_27  and  C_28
REMARK    7  A    between atoms: C_27  and  C_29
REMARK                            x       y       z     vdW  Elec       q    Type
REMARK                         _______ _______ _______ _____ _____    ______ ____
ROOT
ATOM      1  C   UNL     1      -9.931  54.110  50.629  0.00  0.00    +0.000 A 
ATOM      2  C   UNL     1     -11.094  54.596  51.433  0.00  0.00    +0.000 A 
ATOM      3  C   UNL     1      -9.893  54.316  49.303  0.00  0.00    +0.000 A 
ATOM      4  O   UNL     1     -11.028  54.521  52.662  0.00  0.00    +0.000 OA
ATOM      5  N   UNL     1     -12.189  55.129  50.766  0.00  0.00    +0.000 N 
ATOM      6  C   UNL     1     -10.995  55.021  48.630  0.00  0.00    +0.000 A 
ATOM      7  C   UNL     1     -12.120  55.429  49.369  0.00  0.00    +0.000 A 
ATOM      8  C   UNL     1     -10.924  55.316  47.258  0.00  0.00    +0.000 A 
ATOM      9  C   UNL     1     -13.124  56.159  48.713  0.00  0.00    +0.000 A 
ATOM     10  C   UNL     1     -11.941  56.025  46.622  0.00  0.00    +0.000 A 
ATOM     11  C   UNL     1     -13.041  56.448  47.350  0.00  0.00    +0.000 A 
ENDROOT
BRANCH   1  17
ATOM     12  S   UNL     1      -7.900  51.758  53.030  0.00  0.00    +0.000 S 
ATOM     13  O   UNL     1      -7.674  50.439  52.475  0.00  0.00    +0.000 OA
ATOM     14  O   UNL     1      -8.242  51.915  54.431  0.00  0.00    +0.000 OA
ATOM     15  N   UNL     1      -9.048  52.477  52.148  0.00  0.00    +0.000 N 
ATOM     16  C   UNL     1      -6.394  52.642  52.803  0.00  0.00    +0.000 A 
ATOM     17  C   UNL     1      -8.765  53.465  51.351  0.00  0.00    +0.000 C 
ATOM     18  C   UNL     1      -6.382  53.669  51.873  0.00  0.00    +0.000 A 
ATOM     19  C   UNL     1      -5.264  52.313  53.555  0.00  0.00    +0.000 A 
ATOM     20  N   UNL     1      -7.509  53.974  51.116  0.00  0.00    +0.000 N 
ATOM     21  C   UNL     1      -5.180  54.345  51.647  0.00  0.00    +0.000 A 
ATOM     22  C   UNL     1      -4.080  53.016  53.341  0.00  0.00    +0.000 A 
ATOM     23  C   UNL     1      -4.036  54.026  52.385  0.00  0.00    +0.000 A 
ATOM     24  H   UNL     1      -9.978  52.161  52.217  0.00  0.00    +0.000 HD
ATOM     25  H   UNL     1      -7.399  54.597  50.361  0.00  0.00    +0.000 HD
ENDBRANCH   1  17
BRANCH   3  26
ATOM     26  O   UNL     1      -8.837  53.956  48.483  0.00  0.00    +0.000 OA
ATOM     27  H   UNL     1      -9.004  53.615  47.626  0.00  0.00    +0.000 HD
ENDBRANCH   3  26
BRANCH   5  28
ATOM     28  C   UNL     1     -13.348  55.537  51.571  0.00  0.00    +0.000 C 
BRANCH  28  29
ATOM     29  C   UNL     1     -13.208  56.874  52.318  0.00  0.00    +0.000 C 
BRANCH  29  30
ATOM     30  C   UNL     1     -14.509  57.545  52.787  0.00  0.00    +0.000 C 
ATOM     31  C   UNL     1     -14.558  59.031  52.438  0.00  0.00    +0.000 C 
ATOM     32  C   UNL     1     -15.690  56.816  52.135  0.00  0.00    +0.000 C 
ENDBRANCH  29  30
ENDBRANCH  28  29
ENDBRANCH   5  28
TORSDOF 5
ENDMDL
MODEL 9
REMARK VINA RESULT:      -7.6      3.569      7.516
REMARK  Name = 
REMARK  7 active torsions:
REMARK  status: ('A' for Active; 'I' for Inactive)
REMARK    1  A    between atoms: C_6  and  C_10
REMARK    2  A    between atoms: C_14  and  O_18
REMARK    3  A    between atoms: N_17  and  C_21
REMARK    4  A    between atoms: C_21  and  C_24
REMARK    5  A    between atoms: C_24  and  C_27
REMARK    6  A    between atoms: C_27  and  C_28
REMARK    7  A    between atoms: C_27  and  C_29
REMARK                            x       y       z     vdW  Elec       q    Type
REMARK                         _______ _______ _______ _____ _____    ______ ____
ROOT
ATOM      1  C   UNL     1     -10.368  54.857  50.351  0.00  0.00    +0.000 A 
ATOM      2  C   UNL     1     -10.014  54.728  48.904  0.00  0.00    +0.000 A 
ATOM      3  C   UNL     1     -11.479  55.512  50.720  0.00  0.00    +0.000 A 
ATOM      4  O   UNL     1      -9.069  53.998  48.595  0.00  0.00    +0.000 OA
ATOM      5  N   UNL     1     -10.774  55.419  47.969  0.00  0.00    +0.000 N 
ATOM      6  C   UNL     1     -12.359  56.109  49.703  0.00  0.00    +0.000 A 
ATOM      7  C   UNL     1     -12.004  56.044  48.344  0.00  0.00    +0.000 A 
ATOM      8  C   UNL     1     -13.568  56.721  50.074  0.00  0.00    +0.000 A 
ATOM      9  C   UNL     1     -12.897  56.563  47.392  0.00  0.00    +0.000 A 
ATOM     10  C   UNL     1     -14.431  57.247  49.114  0.00  0.00    +0.000 A 
ATOM     11  C   UNL     1     -14.096  57.167  47.772  0.00  0.00    +0.000 A 
ENDROOT
BRANCH   1  17
ATOM     12  S   UNL     1      -9.161  52.258  53.039  0.00  0.00    +0.000 S 
ATOM     13  O   UNL     1      -8.623  51.047  52.455  0.00  0.00    +0.000 OA
ATOM     14  O   UNL     1     -10.012  52.192  54.212  0.00  0.00    +0.000 OA
ATOM     15  N   UNL     1      -9.962  53.053  51.881  0.00  0.00    +0.000 N 
ATOM     16  C   UNL     1      -7.769  53.228  53.512  0.00  0.00    +0.000 A 
ATOM     17  C   UNL     1      -9.498  54.160  51.378  0.00  0.00    +0.000 C 
ATOM     18  C   UNL     1      -7.510  54.381  52.790  0.00  0.00    +0.000 A 
ATOM     19  C   UNL     1      -6.973  52.838  54.591  0.00  0.00    +0.000 A 
ATOM     20  N   UNL     1      -8.298  54.749  51.703  0.00  0.00    +0.000 N 
ATOM     21  C   UNL     1      -6.379  55.132  53.123  0.00  0.00    +0.000 A 
ATOM     22  C   UNL     1      -5.867  53.613  54.932  0.00  0.00    +0.000 A 
ATOM     23  C   UNL     1      -5.567  54.754  54.195  0.00  0.00    +0.000 A 
ATOM     24  H   UNL     1     -10.817  52.693  51.551  0.00  0.00    +0.000 HD
ATOM     25  H   UNL     1      -7.975  55.480  51.130  0.00  0.00    +0.000 HD
ENDBRANCH   1  17
BRANCH   3  26
ATOM     26  O   UNL     1     -11.921  55.634  52.026  0.00  0.00    +0.000 OA
ATOM     27  H   UNL     1     -11.936  54.884  52.588  0.00  0.00    +0.000 HD
ENDBRANCH   3  26
BRANCH   5  28
ATOM     28  C   UNL     1     -10.367  55.333  46.561  0.00  0.00    +0.000 C 
BRANCH  28  29
ATOM     29  C   UNL     1     -10.939  54.146  45.768  0.00  0.00    +0.000 C 
BRANCH  29  30
ATOM     30  C   UNL     1      -9.924  53.195  45.115  0.00  0.00    +0.000 C 
ATOM     31  C   UNL     1     -10.377  52.712  43.739  0.00  0.00    +0.000 C 
ATOM     32  C   UNL     1      -8.583  53.929  44.995  0.00  0.00    +0.000 C 
ENDBRANCH  29  30
ENDBRANCH  28  29
ENDBRANCH   5  28
TORSDOF 5
ENDMDL
