MODEL 1
REMARK VINA RESULT:      -8.0      0.000      0.000
REMARK  Name = 
REMARK  10 active torsions:
REMARK  status: ('A' for Active; 'I' for Inactive)
REMARK    1  A    between atoms: C_6  and  C_10
REMARK    2  A    between atoms: N_17  and  C_20
REMARK    3  A    between atoms: C_19  and  C_21
REMARK    4  A    between atoms: C_20  and  C_22
REMARK    5  A    between atoms: C_21  and  C_23
REMARK    6  A    between atoms: C_21  and  C_24
REMARK    7  A    between atoms: C_21  and  C_25
REMARK    8  A    between atoms: C_22  and  C_26
REMARK    9  A    between atoms: C_26  and  C_27
REMARK   10  A    between atoms: C_26  and  C_28
REMARK                            x       y       z     vdW  Elec       q    Type
REMARK                         _______ _______ _______ _____ _____    ______ ____
ROOT
ATOM      1  C   UNL     1     -10.822  55.310  47.829  0.00  0.00    +0.000 C 
ATOM      2  C   UNL     1     -12.195  55.799  47.682  0.00  0.00    +0.000 C 
ATOM      3  C   UNL     1     -10.445  55.624  49.076  0.00  0.00    +0.000 C 
ATOM      4  O   UNL     1     -12.825  55.726  46.642  0.00  0.00    +0.000 OA
ATOM      5  N   UNL     1     -12.591  56.336  48.892  0.00  0.00    +0.000 N 
ATOM      6  O   UNL     1      -9.196  55.399  49.602  0.00  0.00    +0.000 OA
ATOM      7  C   UNL     1     -11.533  56.272  49.917  0.00  0.00    +0.000 C 
ENDROOT
BRANCH   1  13
ATOM      8  S   UNL     1      -7.902  54.336  45.454  0.00  0.00    +0.000 S 
ATOM      9  O   UNL     1      -6.955  53.529  46.201  0.00  0.00    +0.000 OA
ATOM     10  O   UNL     1      -7.434  55.329  44.506  0.00  0.00    +0.000 OA
ATOM     11  N   UNL     1      -8.867  55.084  46.517  0.00  0.00    +0.000 N 
ATOM     12  C   UNL     1      -8.876  53.202  44.528  0.00  0.00    +0.000 A 
ATOM     13  C   UNL     1     -10.058  54.622  46.756  0.00  0.00    +0.000 C 
ATOM     14  C   UNL     1     -10.154  52.935  44.988  0.00  0.00    +0.000 A 
ATOM     15  C   UNL     1      -8.358  52.612  43.374  0.00  0.00    +0.000 A 
ATOM     16  N   UNL     1     -10.658  53.557  46.121  0.00  0.00    +0.000 N 
ATOM     17  C   UNL     1     -10.948  52.045  44.250  0.00  0.00    +0.000 A 
ATOM     18  C   UNL     1      -9.153  51.726  42.652  0.00  0.00    +0.000 A 
ATOM     19  C   UNL     1     -10.449  51.446  43.088  0.00  0.00    +0.000 A 
ATOM     20  H   UNL     1      -8.551  55.893  46.982  0.00  0.00    +0.000 HD
ATOM     21  H   UNL     1     -11.502  53.215  46.497  0.00  0.00    +0.000 HD
ENDBRANCH   1  13
BRANCH   7  22
ATOM     22  C   UNL     1     -11.880  55.498  51.249  0.00  0.00    +0.000 C 
ATOM     23  C   UNL     1     -10.630  55.325  52.153  0.00  0.00    +0.000 C 
ATOM     24  C   UNL     1     -12.890  56.270  52.123  0.00  0.00    +0.000 C 
ATOM     25  C   UNL     1     -12.442  54.095  50.964  0.00  0.00    +0.000 C 
ENDBRANCH   7  22
BRANCH   5  26
ATOM     26  C   UNL     1     -13.908  56.930  49.035  0.00  0.00    +0.000 C 
BRANCH  26  27
ATOM     27  C   UNL     1     -13.942  58.432  48.762  0.00  0.00    +0.000 C 
BRANCH  27  28
ATOM     28  C   UNL     1     -13.720  59.279  50.025  0.00  0.00    +0.000 C 
ATOM     29  C   UNL     1     -13.151  60.667  49.717  0.00  0.00    +0.000 C 
ATOM     30  C   UNL     1     -15.043  59.420  50.779  0.00  0.00    +0.000 C 
ENDBRANCH  27  28
ENDBRANCH  26  27
ENDBRANCH   5  26
TORSDOF 5
ENDMDL
MODEL 2
REMARK VINA RESULT:      -7.5      3.662      6.067
REMARK  Name = 
REMARK  10 active torsions:
REMARK  status: ('A' for Active; 'I' for Inactive)
REMARK    1  A    between atoms: C_6  and  C_10
REMARK    2  A    between atoms: N_17  and  C_20
REMARK    3  A    between atoms: C_19  and  C_21
REMARK    4  A    between atoms: C_20  and  C_22
REMARK    5  A    between atoms: C_21  and  C_23
REMARK    6  A    between atoms: C_21  and  C_24
REMARK    7  A    between atoms: C_21  and  C_25
REMARK    8  A    between atoms: C_22  and  C_26
REMARK    9  A    between atoms: C_26  and  C_27
REMARK   10  A    between atoms: C_26  and  C_28
REMARK                            x       y       z     vdW  Elec       q    Type
REMARK                         _______ _______ _______ _____ _____    ______ ____
ROOT
ATOM      1  C   UNL     1     -10.201  55.068  50.645  0.00  0.00    +0.000 C 
ATOM      2  C   UNL     1     -11.225  55.338  51.657  0.00  0.00    +0.000 C 
ATOM      3  C   UNL     1     -10.844  55.012  49.469  0.00  0.00    +0.000 C 
ATOM      4  O   UNL     1     -10.988  55.397  52.851  0.00  0.00    +0.000 OA
ATOM      5  N   UNL     1     -12.437  55.489  51.012  0.00  0.00    +0.000 N 
ATOM      6  O   UNL     1     -10.258  54.713  48.264  0.00  0.00    +0.000 OA
ATOM      7  C   UNL     1     -12.332  55.315  49.552  0.00  0.00    +0.000 C 
ENDROOT
BRANCH   1  13
ATOM      8  S   UNL     1      -6.437  54.225  50.163  0.00  0.00    +0.000 S 
ATOM      9  O   UNL     1      -5.821  55.299  49.407  0.00  0.00    +0.000 OA
ATOM     10  O   UNL     1      -6.076  52.843  49.906  0.00  0.00    +0.000 OA
ATOM     11  N   UNL     1      -8.042  54.354  49.996  0.00  0.00    +0.000 N 
ATOM     12  C   UNL     1      -6.032  54.527  51.847  0.00  0.00    +0.000 A 
ATOM     13  C   UNL     1      -8.756  54.892  50.940  0.00  0.00    +0.000 C 
ATOM     14  C   UNL     1      -7.022  55.058  52.657  0.00  0.00    +0.000 A 
ATOM     15  C   UNL     1      -4.755  54.229  52.325  0.00  0.00    +0.000 A 
ATOM     16  N   UNL     1      -8.293  55.318  52.165  0.00  0.00    +0.000 N 
ATOM     17  C   UNL     1      -6.718  55.289  54.006  0.00  0.00    +0.000 A 
ATOM     18  C   UNL     1      -4.462  54.466  53.666  0.00  0.00    +0.000 A 
ATOM     19  C   UNL     1      -5.444  54.992  54.506  0.00  0.00    +0.000 A 
ATOM     20  H   UNL     1      -8.479  54.023  49.178  0.00  0.00    +0.000 HD
ATOM     21  H   UNL     1      -8.906  55.842  52.730  0.00  0.00    +0.000 HD
ENDBRANCH   1  13
BRANCH   7  22
ATOM     22  C   UNL     1     -12.803  56.526  48.655  0.00  0.00    +0.000 C 
ATOM     23  C   UNL     1     -12.415  56.322  47.167  0.00  0.00    +0.000 C 
ATOM     24  C   UNL     1     -14.339  56.675  48.641  0.00  0.00    +0.000 C 
ATOM     25  C   UNL     1     -12.181  57.855  49.118  0.00  0.00    +0.000 C 
ENDBRANCH   7  22
BRANCH   5  26
ATOM     26  C   UNL     1     -13.648  55.736  51.774  0.00  0.00    +0.000 C 
BRANCH  26  27
ATOM     27  C   UNL     1     -13.664  57.082  52.493  0.00  0.00    +0.000 C 
BRANCH  27  28
ATOM     28  C   UNL     1     -15.049  57.750  52.491  0.00  0.00    +0.000 C 
ATOM     29  C   UNL     1     -15.036  59.144  51.858  0.00  0.00    +0.000 C 
ATOM     30  C   UNL     1     -16.040  56.855  51.746  0.00  0.00    +0.000 C 
ENDBRANCH  27  28
ENDBRANCH  26  27
ENDBRANCH   5  26
TORSDOF 5
ENDMDL
MODEL 3
REMARK VINA RESULT:      -7.3      2.869      7.761
REMARK  Name = 
REMARK  10 active torsions:
REMARK  status: ('A' for Active; 'I' for Inactive)
REMARK    1  A    between atoms: C_6  and  C_10
REMARK    2  A    between atoms: N_17  and  C_20
REMARK    3  A    between atoms: C_19  and  C_21
REMARK    4  A    between atoms: C_20  and  C_22
REMARK    5  A    between atoms: C_21  and  C_23
REMARK    6  A    between atoms: C_21  and  C_24
REMARK    7  A    between atoms: C_21  and  C_25
REMARK    8  A    between atoms: C_22  and  C_26
REMARK    9  A    between atoms: C_26  and  C_27
REMARK   10  A    between atoms: C_26  and  C_28
REMARK                            x       y       z     vdW  Elec       q    Type
REMARK                         _______ _______ _______ _____ _____    ______ ____
ROOT
ATOM      1  C   UNL     1     -12.076  54.701  48.462  0.00  0.00    +0.000 C 
ATOM      2  C   UNL     1     -11.520  54.928  47.126  0.00  0.00    +0.000 C 
ATOM      3  C   UNL     1     -11.666  53.481  48.835  0.00  0.00    +0.000 C 
ATOM      4  O   UNL     1     -11.748  55.927  46.466  0.00  0.00    +0.000 OA
ATOM      5  N   UNL     1     -10.746  53.834  46.791  0.00  0.00    +0.000 N 
ATOM      6  O   UNL     1     -12.021  52.852  50.003  0.00  0.00    +0.000 OA
ATOM      7  C   UNL     1     -10.737  52.799  47.842  0.00  0.00    +0.000 C 
ENDROOT
BRANCH   1  13
ATOM      8  S   UNL     1     -14.844  56.128  50.789  0.00  0.00    +0.000 S 
ATOM      9  O   UNL     1     -14.415  55.962  52.166  0.00  0.00    +0.000 OA
ATOM     10  O   UNL     1     -16.229  55.903  50.419  0.00  0.00    +0.000 OA
ATOM     11  N   UNL     1     -13.924  55.173  49.861  0.00  0.00    +0.000 N 
ATOM     12  C   UNL     1     -14.497  57.800  50.375  0.00  0.00    +0.000 A 
ATOM     13  C   UNL     1     -12.928  55.674  49.193  0.00  0.00    +0.000 C 
ATOM     14  C   UNL     1     -13.386  58.045  49.585  0.00  0.00    +0.000 A 
ATOM     15  C   UNL     1     -15.328  58.824  50.834  0.00  0.00    +0.000 A 
ATOM     16  N   UNL     1     -12.592  57.008  49.115  0.00  0.00    +0.000 N 
ATOM     17  C   UNL     1     -13.106  59.373  49.233  0.00  0.00    +0.000 A 
ATOM     18  C   UNL     1     -15.037  60.140  50.482  0.00  0.00    +0.000 A 
ATOM     19  C   UNL     1     -13.929  60.413  49.679  0.00  0.00    +0.000 A 
ATOM     20  H   UNL     1     -14.120  54.209  49.801  0.00  0.00    +0.000 HD
ATOM     21  H   UNL     1     -11.730  57.241  48.699  0.00  0.00    +0.000 HD
ENDBRANCH   1  13
BRANCH   7  22
ATOM     22  C   UNL     1      -9.328  52.398  48.432  0.00  0.00    +0.000 C 
ATOM     23  C   UNL     1      -8.357  51.921  47.321  0.00  0.00    +0.000 C 
ATOM     24  C   UNL     1      -8.612  53.595  49.090  0.00  0.00    +0.000 C 
ATOM     25  C   UNL     1      -9.445  51.263  49.464  0.00  0.00    +0.000 C 
ENDBRANCH   7  22
BRANCH   5  26
ATOM     26  C   UNL     1     -10.090  53.768  45.498  0.00  0.00    +0.000 C 
BRANCH  26  27
ATOM     27  C   UNL     1     -10.882  53.001  44.441  0.00  0.00    +0.000 C 
BRANCH  27  28
ATOM     28  C   UNL     1     -10.058  52.688  43.181  0.00  0.00    +0.000 C 
ATOM     29  C   UNL     1      -8.577  53.047  43.334  0.00  0.00    +0.000 C 
ATOM     30  C   UNL     1     -10.196  51.203  42.843  0.00  0.00    +0.000 C 
ENDBRANCH  27  28
ENDBRANCH  26  27
ENDBRANCH   5  26
TORSDOF 5
ENDMDL
MODEL 4
REMARK VINA RESULT:      -7.3      3.052      7.857
REMARK  Name = 
REMARK  10 active torsions:
REMARK  status: ('A' for Active; 'I' for Inactive)
REMARK    1  A    between atoms: C_6  and  C_10
REMARK    2  A    between atoms: N_17  and  C_20
REMARK    3  A    between atoms: C_19  and  C_21
REMARK    4  A    between atoms: C_20  and  C_22
REMARK    5  A    between atoms: C_21  and  C_23
REMARK    6  A    between atoms: C_21  and  C_24
REMARK    7  A    between atoms: C_21  and  C_25
REMARK    8  A    between atoms: C_22  and  C_26
REMARK    9  A    between atoms: C_26  and  C_27
REMARK   10  A    between atoms: C_26  and  C_28
REMARK                            x       y       z     vdW  Elec       q    Type
REMARK                         _______ _______ _______ _____ _____    ______ ____
ROOT
ATOM      1  C   UNL     1     -11.440  56.001  48.847  0.00  0.00    +0.000 C 
ATOM      2  C   UNL     1     -10.385  55.289  49.573  0.00  0.00    +0.000 C 
ATOM      3  C   UNL     1     -11.338  55.615  47.567  0.00  0.00    +0.000 C 
ATOM      4  O   UNL     1     -10.161  55.454  50.759  0.00  0.00    +0.000 OA
ATOM      5  N   UNL     1      -9.737  54.456  48.682  0.00  0.00    +0.000 N 
ATOM      6  O   UNL     1     -12.102  56.099  46.534  0.00  0.00    +0.000 OA
ATOM      7  C   UNL     1     -10.276  54.556  47.313  0.00  0.00    +0.000 C 
ENDROOT
BRANCH   1  13
ATOM      8  S   UNL     1     -13.530  59.221  49.458  0.00  0.00    +0.000 S 
ATOM      9  O   UNL     1     -14.639  59.231  48.521  0.00  0.00    +0.000 OA
ATOM     10  O   UNL     1     -12.819  60.447  49.768  0.00  0.00    +0.000 OA
ATOM     11  N   UNL     1     -12.445  58.140  48.934  0.00  0.00    +0.000 N 
ATOM     12  C   UNL     1     -14.193  58.645  50.981  0.00  0.00    +0.000 A 
ATOM     13  C   UNL     1     -12.390  56.958  49.471  0.00  0.00    +0.000 C 
ATOM     14  C   UNL     1     -13.921  57.335  51.341  0.00  0.00    +0.000 A 
ATOM     15  C   UNL     1     -14.956  59.497  51.781  0.00  0.00    +0.000 A 
ATOM     16  N   UNL     1     -13.134  56.517  50.543  0.00  0.00    +0.000 N 
ATOM     17  C   UNL     1     -14.429  56.867  52.561  0.00  0.00    +0.000 A 
ATOM     18  C   UNL     1     -15.460  59.020  52.989  0.00  0.00    +0.000 A 
ATOM     19  C   UNL     1     -15.193  57.707  53.380  0.00  0.00    +0.000 A 
ATOM     20  H   UNL     1     -11.824  58.380  48.209  0.00  0.00    +0.000 HD
ATOM     21  H   UNL     1     -13.106  55.556  50.757  0.00  0.00    +0.000 HD
ENDBRANCH   1  13
BRANCH   7  22
ATOM     22  C   UNL     1     -10.822  53.224  46.665  0.00  0.00    +0.000 C 
ATOM     23  C   UNL     1      -9.740  52.111  46.646  0.00  0.00    +0.000 C 
ATOM     24  C   UNL     1     -11.988  52.621  47.474  0.00  0.00    +0.000 C 
ATOM     25  C   UNL     1     -11.286  53.443  45.215  0.00  0.00    +0.000 C 
ENDBRANCH   7  22
BRANCH   5  26
ATOM     26  C   UNL     1      -8.616  53.645  49.120  0.00  0.00    +0.000 C 
BRANCH  26  27
ATOM     27  C   UNL     1      -7.262  54.131  48.609  0.00  0.00    +0.000 C 
BRANCH  27  28
ATOM     28  C   UNL     1      -6.527  55.033  49.614  0.00  0.00    +0.000 C 
ATOM     29  C   UNL     1      -6.802  54.647  51.071  0.00  0.00    +0.000 C 
ATOM     30  C   UNL     1      -5.024  54.974  49.340  0.00  0.00    +0.000 C 
ENDBRANCH  27  28
ENDBRANCH  26  27
ENDBRANCH   5  26
TORSDOF 5
ENDMDL
MODEL 5
REMARK VINA RESULT:      -7.2      3.644      6.682
REMARK  Name = 
REMARK  10 active torsions:
REMARK  status: ('A' for Active; 'I' for Inactive)
REMARK    1  A    between atoms: C_6  and  C_10
REMARK    2  A    between atoms: N_17  and  C_20
REMARK    3  A    between atoms: C_19  and  C_21
REMARK    4  A    between atoms: C_20  and  C_22
REMARK    5  A    between atoms: C_21  and  C_23
REMARK    6  A    between atoms: C_21  and  C_24
REMARK    7  A    between atoms: C_21  and  C_25
REMARK    8  A    between atoms: C_22  and  C_26
REMARK    9  A    between atoms: C_26  and  C_27
REMARK   10  A    between atoms: C_26  and  C_28
REMARK                            x       y       z     vdW  Elec       q    Type
REMARK                         _______ _______ _______ _____ _____    ______ ____
ROOT
ATOM      1  C   UNL     1     -10.793  54.106  50.576  0.00  0.00    +0.000 C 
ATOM      2  C   UNL     1     -11.706  55.218  50.851  0.00  0.00    +0.000 C 
ATOM      3  C   UNL     1     -11.106  53.660  49.351  0.00  0.00    +0.000 C 
ATOM      4  O   UNL     1     -11.730  55.820  51.910  0.00  0.00    +0.000 OA
ATOM      5  N   UNL     1     -12.490  55.417  49.731  0.00  0.00    +0.000 N 
ATOM      6  O   UNL     1     -10.529  52.577  48.735  0.00  0.00    +0.000 OA
ATOM      7  C   UNL     1     -12.190  54.463  48.648  0.00  0.00    +0.000 C 
ENDROOT
BRANCH   1  13
ATOM      8  S   UNL     1      -8.715  51.706  52.819  0.00  0.00    +0.000 S 
ATOM      9  O   UNL     1      -7.842  50.922  51.965  0.00  0.00    +0.000 OA
ATOM     10  O   UNL     1      -9.375  51.093  53.956  0.00  0.00    +0.000 OA
ATOM     11  N   UNL     1      -9.857  52.375  51.887  0.00  0.00    +0.000 N 
ATOM     12  C   UNL     1      -7.714  52.994  53.476  0.00  0.00    +0.000 A 
ATOM     13  C   UNL     1      -9.756  53.618  51.522  0.00  0.00    +0.000 C 
ATOM     14  C   UNL     1      -7.861  54.258  52.930  0.00  0.00    +0.000 A 
ATOM     15  C   UNL     1      -6.818  52.727  54.513  0.00  0.00    +0.000 A 
ATOM     16  N   UNL     1      -8.781  54.505  51.920  0.00  0.00    +0.000 N 
ATOM     17  C   UNL     1      -7.082  55.299  53.455  0.00  0.00    +0.000 A 
ATOM     18  C   UNL     1      -6.046  53.767  55.024  0.00  0.00    +0.000 A 
ATOM     19  C   UNL     1      -6.180  55.053  54.497  0.00  0.00    +0.000 A 
ATOM     20  H   UNL     1     -10.630  51.839  51.597  0.00  0.00    +0.000 HD
ATOM     21  H   UNL     1      -8.732  55.373  51.456  0.00  0.00    +0.000 HD
ENDBRANCH   1  13
BRANCH   7  22
ATOM     22  C   UNL     1     -11.753  55.077  47.260  0.00  0.00    +0.000 C 
ATOM     23  C   UNL     1     -10.281  55.569  47.290  0.00  0.00    +0.000 C 
ATOM     24  C   UNL     1     -11.793  54.033  46.125  0.00  0.00    +0.000 C 
ATOM     25  C   UNL     1     -12.633  56.274  46.864  0.00  0.00    +0.000 C 
ENDBRANCH   7  22
BRANCH   5  26
ATOM     26  C   UNL     1     -13.517  56.443  49.728  0.00  0.00    +0.000 C 
BRANCH  26  27
ATOM     27  C   UNL     1     -14.815  56.023  50.414  0.00  0.00    +0.000 C 
BRANCH  27  28
ATOM     28  C   UNL     1     -15.509  57.180  51.152  0.00  0.00    +0.000 C 
ATOM     29  C   UNL     1     -15.410  57.058  52.675  0.00  0.00    +0.000 C 
ATOM     30  C   UNL     1     -14.896  58.506  50.700  0.00  0.00    +0.000 C 
ENDBRANCH  27  28
ENDBRANCH  26  27
ENDBRANCH   5  26
TORSDOF 5
ENDMDL
MODEL 6
REMARK VINA RESULT:      -7.0      3.605      6.568
REMARK  Name = 
REMARK  10 active torsions:
REMARK  status: ('A' for Active; 'I' for Inactive)
REMARK    1  A    between atoms: C_6  and  C_10
REMARK    2  A    between atoms: N_17  and  C_20
REMARK    3  A    between atoms: C_19  and  C_21
REMARK    4  A    between atoms: C_20  and  C_22
REMARK    5  A    between atoms: C_21  and  C_23
REMARK    6  A    between atoms: C_21  and  C_24
REMARK    7  A    between atoms: C_21  and  C_25
REMARK    8  A    between atoms: C_22  and  C_26
REMARK    9  A    between atoms: C_26  and  C_27
REMARK   10  A    between atoms: C_26  and  C_28
REMARK                            x       y       z     vdW  Elec       q    Type
REMARK                         _______ _______ _______ _____ _____    ______ ____
ROOT
ATOM      1  C   UNL     1     -10.669  54.375  50.778  0.00  0.00    +0.000 C 
ATOM      2  C   UNL     1     -11.709  55.395  50.935  0.00  0.00    +0.000 C 
ATOM      3  C   UNL     1     -10.876  53.812  49.579  0.00  0.00    +0.000 C 
ATOM      4  O   UNL     1     -11.845  56.063  51.945  0.00  0.00    +0.000 OA
ATOM      5  N   UNL     1     -12.459  55.427  49.776  0.00  0.00    +0.000 N 
ATOM      6  O   UNL     1     -10.158  52.760  49.067  0.00  0.00    +0.000 OA
ATOM      7  C   UNL     1     -12.008  54.439  48.778  0.00  0.00    +0.000 C 
ENDROOT
BRANCH   1  13
ATOM      8  S   UNL     1      -7.408  54.635  52.877  0.00  0.00    +0.000 S 
ATOM      9  O   UNL     1      -7.560  55.722  53.827  0.00  0.00    +0.000 OA
ATOM     10  O   UNL     1      -6.142  54.423  52.200  0.00  0.00    +0.000 OA
ATOM     11  N   UNL     1      -8.552  54.798  51.744  0.00  0.00    +0.000 N 
ATOM     12  C   UNL     1      -7.729  53.160  53.779  0.00  0.00    +0.000 A 
ATOM     13  C   UNL     1      -9.630  54.073  51.796  0.00  0.00    +0.000 C 
ATOM     14  C   UNL     1      -8.959  52.553  53.591  0.00  0.00    +0.000 A 
ATOM     15  C   UNL     1      -6.762  52.640  54.641  0.00  0.00    +0.000 A 
ATOM     16  N   UNL     1      -9.893  53.072  52.705  0.00  0.00    +0.000 N 
ATOM     17  C   UNL     1      -9.223  51.366  54.290  0.00  0.00    +0.000 A 
ATOM     18  C   UNL     1      -7.037  51.464  55.334  0.00  0.00    +0.000 A 
ATOM     19  C   UNL     1      -8.265  50.826  55.156  0.00  0.00    +0.000 A 
ATOM     20  H   UNL     1      -8.431  55.447  51.014  0.00  0.00    +0.000 HD
ATOM     21  H   UNL     1     -10.805  52.702  52.729  0.00  0.00    +0.000 HD
ENDBRANCH   1  13
BRANCH   7  22
ATOM     22  C   UNL     1     -11.577  54.999  47.366  0.00  0.00    +0.000 C 
ATOM     23  C   UNL     1     -11.655  53.905  46.268  0.00  0.00    +0.000 C 
ATOM     24  C   UNL     1     -12.521  56.115  46.873  0.00  0.00    +0.000 C 
ATOM     25  C   UNL     1     -10.137  55.539  47.381  0.00  0.00    +0.000 C 
ENDBRANCH   7  22
BRANCH   5  26
ATOM     26  C   UNL     1     -13.590  56.329  49.658  0.00  0.00    +0.000 C 
BRANCH  26  27
ATOM     27  C   UNL     1     -14.792  55.930  50.510  0.00  0.00    +0.000 C 
BRANCH  27  28
ATOM     28  C   UNL     1     -15.488  57.132  51.169  0.00  0.00    +0.000 C 
ATOM     29  C   UNL     1     -15.450  57.075  52.699  0.00  0.00    +0.000 C 
ATOM     30  C   UNL     1     -14.830  58.425  50.685  0.00  0.00    +0.000 C 
ENDBRANCH  27  28
ENDBRANCH  26  27
ENDBRANCH   5  26
TORSDOF 5
ENDMDL
MODEL 7
REMARK VINA RESULT:      -6.9      3.036      7.702
REMARK  Name = 
REMARK  10 active torsions:
REMARK  status: ('A' for Active; 'I' for Inactive)
REMARK    1  A    between atoms: C_6  and  C_10
REMARK    2  A    between atoms: N_17  and  C_20
REMARK    3  A    between atoms: C_19  and  C_21
REMARK    4  A    between atoms: C_20  and  C_22
REMARK    5  A    between atoms: C_21  and  C_23
REMARK    6  A    between atoms: C_21  and  C_24
REMARK    7  A    between atoms: C_21  and  C_25
REMARK    8  A    between atoms: C_22  and  C_26
REMARK    9  A    between atoms: C_26  and  C_27
REMARK   10  A    between atoms: C_26  and  C_28
REMARK                            x       y       z     vdW  Elec       q    Type
REMARK                         _______ _______ _______ _____ _____    ______ ____
ROOT
ATOM      1  C   UNL     1     -10.772  55.239  50.543  0.00  0.00    +0.000 C 
ATOM      2  C   UNL     1     -10.106  54.728  49.342  0.00  0.00    +0.000 C 
ATOM      3  C   UNL     1     -10.076  54.766  51.586  0.00  0.00    +0.000 C 
ATOM      4  O   UNL     1     -10.518  54.926  48.213  0.00  0.00    +0.000 OA
ATOM      5  N   UNL     1      -8.993  54.014  49.739  0.00  0.00    +0.000 N 
ATOM      6  O   UNL     1     -10.404  54.956  52.906  0.00  0.00    +0.000 OA
ATOM      7  C   UNL     1      -8.838  53.968  51.205  0.00  0.00    +0.000 C 
ENDROOT
BRANCH   1  13
ATOM      8  S   UNL     1     -13.709  57.416  49.221  0.00  0.00    +0.000 S 
ATOM      9  O   UNL     1     -14.723  56.534  48.674  0.00  0.00    +0.000 OA
ATOM     10  O   UNL     1     -13.386  58.666  48.558  0.00  0.00    +0.000 OA
ATOM     11  N   UNL     1     -12.337  56.569  49.371  0.00  0.00    +0.000 N 
ATOM     12  C   UNL     1     -14.267  57.851  50.830  0.00  0.00    +0.000 A 
ATOM     13  C   UNL     1     -11.985  56.097  50.530  0.00  0.00    +0.000 C 
ATOM     14  C   UNL     1     -13.662  57.226  51.907  0.00  0.00    +0.000 A 
ATOM     15  C   UNL     1     -15.281  58.798  50.989  0.00  0.00    +0.000 A 
ATOM     16  N   UNL     1     -12.634  56.310  51.725  0.00  0.00    +0.000 N 
ATOM     17  C   UNL     1     -14.086  57.575  53.197  0.00  0.00    +0.000 A 
ATOM     18  C   UNL     1     -15.698  59.134  52.275  0.00  0.00    +0.000 A 
ATOM     19  C   UNL     1     -15.098  58.525  53.378  0.00  0.00    +0.000 A 
ATOM     20  H   UNL     1     -11.769  56.412  48.583  0.00  0.00    +0.000 HD
ATOM     21  H   UNL     1     -12.352  55.776  52.503  0.00  0.00    +0.000 HD
ENDBRANCH   1  13
BRANCH   7  22
ATOM     22  C   UNL     1      -7.487  54.535  51.795  0.00  0.00    +0.000 C 
ATOM     23  C   UNL     1      -7.208  55.979  51.301  0.00  0.00    +0.000 C 
ATOM     24  C   UNL     1      -7.528  54.648  53.333  0.00  0.00    +0.000 C 
ATOM     25  C   UNL     1      -6.282  53.668  51.394  0.00  0.00    +0.000 C 
ENDBRANCH   7  22
BRANCH   5  26
ATOM     26  C   UNL     1      -8.151  53.360  48.753  0.00  0.00    +0.000 C 
BRANCH  26  27
ATOM     27  C   UNL     1      -7.262  54.319  47.965  0.00  0.00    +0.000 C 
BRANCH  27  28
ATOM     28  C   UNL     1      -7.174  53.968  46.471  0.00  0.00    +0.000 C 
ATOM     29  C   UNL     1      -7.616  52.533  46.170  0.00  0.00    +0.000 C 
ATOM     30  C   UNL     1      -8.031  54.950  45.671  0.00  0.00    +0.000 C 
ENDBRANCH  27  28
ENDBRANCH  26  27
ENDBRANCH   5  26
TORSDOF 5
ENDMDL
MODEL 8
REMARK VINA RESULT:      -6.9      1.827      2.212
REMARK  Name = 
REMARK  10 active torsions:
REMARK  status: ('A' for Active; 'I' for Inactive)
REMARK    1  A    between atoms: C_6  and  C_10
REMARK    2  A    between atoms: N_17  and  C_20
REMARK    3  A    between atoms: C_19  and  C_21
REMARK    4  A    between atoms: C_20  and  C_22
REMARK    5  A    between atoms: C_21  and  C_23
REMARK    6  A    between atoms: C_21  and  C_24
REMARK    7  A    between atoms: C_21  and  C_25
REMARK    8  A    between atoms: C_22  and  C_26
REMARK    9  A    between atoms: C_26  and  C_27
REMARK   10  A    between atoms: C_26  and  C_28
REMARK                            x       y       z     vdW  Elec       q    Type
REMARK                         _______ _______ _______ _____ _____    ______ ____
ROOT
ATOM      1  C   UNL     1     -10.526  54.745  48.108  0.00  0.00    +0.000 C 
ATOM      2  C   UNL     1     -11.787  55.448  47.856  0.00  0.00    +0.000 C 
ATOM      3  C   UNL     1     -10.171  55.053  49.363  0.00  0.00    +0.000 C 
ATOM      4  O   UNL     1     -12.361  55.429  46.781  0.00  0.00    +0.000 OA
ATOM      5  N   UNL     1     -12.153  56.103  49.015  0.00  0.00    +0.000 N 
ATOM      6  O   UNL     1      -9.010  54.651  49.976  0.00  0.00    +0.000 OA
ATOM      7  C   UNL     1     -11.180  55.915  50.107  0.00  0.00    +0.000 C 
ENDROOT
BRANCH   1  13
ATOM      8  S   UNL     1      -9.225  53.392  44.704  0.00  0.00    +0.000 S 
ATOM      9  O   UNL     1      -8.121  54.228  44.271  0.00  0.00    +0.000 OA
ATOM     10  O   UNL     1     -10.200  52.907  43.745  0.00  0.00    +0.000 OA
ATOM     11  N   UNL     1     -10.027  54.185  45.866  0.00  0.00    +0.000 N 
ATOM     12  C   UNL     1      -8.493  51.961  45.417  0.00  0.00    +0.000 A 
ATOM     13  C   UNL     1      -9.831  53.886  47.115  0.00  0.00    +0.000 C 
ATOM     14  C   UNL     1      -8.476  51.874  46.799  0.00  0.00    +0.000 A 
ATOM     15  C   UNL     1      -7.962  50.963  44.599  0.00  0.00    +0.000 A 
ATOM     16  N   UNL     1      -9.038  52.866  47.591  0.00  0.00    +0.000 N 
ATOM     17  C   UNL     1      -7.910  50.731  47.382  0.00  0.00    +0.000 A 
ATOM     18  C   UNL     1      -7.398  49.834  45.188  0.00  0.00    +0.000 A 
ATOM     19  C   UNL     1      -7.376  49.717  46.578  0.00  0.00    +0.000 A 
ATOM     20  H   UNL     1     -10.665  54.895  45.624  0.00  0.00    +0.000 HD
ATOM     21  H   UNL     1      -8.856  52.839  48.559  0.00  0.00    +0.000 HD
ENDBRANCH   1  13
BRANCH   7  22
ATOM     22  C   UNL     1     -11.726  55.277  51.445  0.00  0.00    +0.000 C 
ATOM     23  C   UNL     1     -12.272  53.844  51.213  0.00  0.00    +0.000 C 
ATOM     24  C   UNL     1     -10.615  55.106  52.502  0.00  0.00    +0.000 C 
ATOM     25  C   UNL     1     -12.864  56.114  52.053  0.00  0.00    +0.000 C 
ENDBRANCH   7  22
BRANCH   5  26
ATOM     26  C   UNL     1     -13.356  56.914  49.051  0.00  0.00    +0.000 C 
BRANCH  26  27
ATOM     27  C   UNL     1     -13.101  58.386  49.369  0.00  0.00    +0.000 C 
BRANCH  27  28
ATOM     28  C   UNL     1     -14.360  59.124  49.854  0.00  0.00    +0.000 C 
ATOM     29  C   UNL     1     -14.408  59.278  51.377  0.00  0.00    +0.000 C 
ATOM     30  C   UNL     1     -14.423  60.502  49.194  0.00  0.00    +0.000 C 
ENDBRANCH  27  28
ENDBRANCH  26  27
ENDBRANCH   5  26
TORSDOF 5
ENDMDL
MODEL 9
REMARK VINA RESULT:      -6.9      2.984      7.902
REMARK  Name = 
REMARK  10 active torsions:
REMARK  status: ('A' for Active; 'I' for Inactive)
REMARK    1  A    between atoms: C_6  and  C_10
REMARK    2  A    between atoms: N_17  and  C_20
REMARK    3  A    between atoms: C_19  and  C_21
REMARK    4  A    between atoms: C_20  and  C_22
REMARK    5  A    between atoms: C_21  and  C_23
REMARK    6  A    between atoms: C_21  and  C_24
REMARK    7  A    between atoms: C_21  and  C_25
REMARK    8  A    between atoms: C_22  and  C_26
REMARK    9  A    between atoms: C_26  and  C_27
REMARK   10  A    between atoms: C_26  and  C_28
REMARK                            x       y       z     vdW  Elec       q    Type
REMARK                         _______ _______ _______ _____ _____    ______ ____
ROOT
ATOM      1  C   UNL     1     -11.108  55.378  48.516  0.00  0.00    +0.000 C 
ATOM      2  C   UNL     1      -9.895  54.725  49.013  0.00  0.00    +0.000 C 
ATOM      3  C   UNL     1     -11.141  55.150  47.196  0.00  0.00    +0.000 C 
ATOM      4  O   UNL     1      -9.529  54.786  50.174  0.00  0.00    +0.000 OA
ATOM      5  N   UNL     1      -9.288  54.081  47.953  0.00  0.00    +0.000 N 
ATOM      6  O   UNL     1     -12.086  55.647  46.332  0.00  0.00    +0.000 OA
ATOM      7  C   UNL     1     -10.016  54.263  46.683  0.00  0.00    +0.000 C 
ENDROOT
BRANCH   1  13
ATOM      8  S   UNL     1     -13.560  56.236  51.409  0.00  0.00    +0.000 S 
ATOM      9  O   UNL     1     -12.781  56.508  52.603  0.00  0.00    +0.000 OA
ATOM     10  O   UNL     1     -14.801  55.490  51.495  0.00  0.00    +0.000 OA
ATOM     11  N   UNL     1     -12.600  55.477  50.349  0.00  0.00    +0.000 N 
ATOM     12  C   UNL     1     -13.984  57.807  50.743  0.00  0.00    +0.000 A 
ATOM     13  C   UNL     1     -12.062  56.137  49.367  0.00  0.00    +0.000 C 
ATOM     14  C   UNL     1     -13.275  58.243  49.636  0.00  0.00    +0.000 A 
ATOM     15  C   UNL     1     -15.003  58.563  51.324  0.00  0.00    +0.000 A 
ATOM     16  N   UNL     1     -12.286  57.460  49.057  0.00  0.00    +0.000 N 
ATOM     17  C   UNL     1     -13.614  59.487  49.084  0.00  0.00    +0.000 A 
ATOM     18  C   UNL     1     -15.327  59.799  50.770  0.00  0.00    +0.000 A 
ATOM     19  C   UNL     1     -14.636  60.259  49.649  0.00  0.00    +0.000 A 
ATOM     20  H   UNL     1     -12.424  54.513  50.448  0.00  0.00    +0.000 HD
ATOM     21  H   UNL     1     -11.705  57.878  48.381  0.00  0.00    +0.000 HD
ENDBRANCH   1  13
BRANCH   7  22
ATOM     22  C   UNL     1     -10.500  52.953  45.946  0.00  0.00    +0.000 C 
ATOM     23  C   UNL     1     -11.173  53.277  44.586  0.00  0.00    +0.000 C 
ATOM     24  C   UNL     1      -9.324  52.021  45.588  0.00  0.00    +0.000 C 
ATOM     25  C   UNL     1     -11.516  52.166  46.790  0.00  0.00    +0.000 C 
ENDBRANCH   7  22
BRANCH   5  26
ATOM     26  C   UNL     1      -8.038  53.370  48.145  0.00  0.00    +0.000 C 
BRANCH  26  27
ATOM     27  C   UNL     1      -6.815  54.110  47.609  0.00  0.00    +0.000 C 
BRANCH  27  28
ATOM     28  C   UNL     1      -5.730  54.332  48.676  0.00  0.00    +0.000 C 
ATOM     29  C   UNL     1      -6.153  53.844  50.064  0.00  0.00    +0.000 C 
ATOM     30  C   UNL     1      -4.447  53.619  48.247  0.00  0.00    +0.000 C 
ENDBRANCH  27  28
ENDBRANCH  26  27
ENDBRANCH   5  26
TORSDOF 5
ENDMDL
