MODEL 1
REMARK VINA RESULT:      -7.5      0.000      0.000
REMARK  Name = 
REMARK  9 active torsions:
REMARK  status: ('A' for Active; 'I' for Inactive)
REMARK    1  A    between atoms: C_6  and  C_10
REMARK    2  A    between atoms: N_17  and  C_20
REMARK    3  A    between atoms: C_19  and  C_21
REMARK    4  A    between atoms: C_20  and  C_22
REMARK    5  A    between atoms: C_21  and  C_23
REMARK    6  A    between atoms: C_21  and  C_24
REMARK    7  A    between atoms: C_22  and  C_25
REMARK    8  A    between atoms: C_25  and  C_26
REMARK    9  A    between atoms: C_25  and  C_27
REMARK                            x       y       z     vdW  Elec       q    Type
REMARK                         _______ _______ _______ _____ _____    ______ ____
ROOT
ATOM      1  C   UNL     1     -10.833  55.208  47.998  0.00  0.00    +0.000 C 
ATOM      2  C   UNL     1     -12.143  55.859  47.860  0.00  0.00    +0.000 C 
ATOM      3  C   UNL     1     -10.471  55.358  49.278  0.00  0.00    +0.000 C 
ATOM      4  O   UNL     1     -12.751  55.935  46.804  0.00  0.00    +0.000 OA
ATOM      5  N   UNL     1     -12.507  56.340  49.099  0.00  0.00    +0.000 N 
ATOM      6  O   UNL     1      -9.283  54.957  49.834  0.00  0.00    +0.000 OA
ATOM      7  C   UNL     1     -11.509  56.048  50.125  0.00  0.00    +0.000 C 
ENDROOT
BRANCH   1  13
ATOM      8  S   UNL     1      -7.959  54.327  45.536  0.00  0.00    +0.000 S 
ATOM      9  O   UNL     1      -6.984  53.487  46.203  0.00  0.00    +0.000 OA
ATOM     10  O   UNL     1      -7.524  55.378  44.635  0.00  0.00    +0.000 OA
ATOM     11  N   UNL     1      -8.895  55.011  46.665  0.00  0.00    +0.000 N 
ATOM     12  C   UNL     1      -8.961  53.248  44.577  0.00  0.00    +0.000 A 
ATOM     13  C   UNL     1     -10.090  54.554  46.894  0.00  0.00    +0.000 C 
ATOM     14  C   UNL     1     -10.236  52.963  45.043  0.00  0.00    +0.000 A 
ATOM     15  C   UNL     1      -8.467  52.711  43.387  0.00  0.00    +0.000 A 
ATOM     16  N   UNL     1     -10.717  53.536  46.217  0.00  0.00    +0.000 N 
ATOM     17  C   UNL     1     -11.037  52.097  44.292  0.00  0.00    +0.000 A 
ATOM     18  C   UNL     1      -9.277  51.856  42.644  0.00  0.00    +0.000 A 
ATOM     19  C   UNL     1     -10.561  51.551  43.099  0.00  0.00    +0.000 A 
ATOM     20  H   UNL     1      -8.558  55.778  47.183  0.00  0.00    +0.000 HD
ATOM     21  H   UNL     1     -11.561  53.190  46.585  0.00  0.00    +0.000 HD
ENDBRANCH   1  13
BRANCH   7  22
ATOM     22  C   UNL     1     -12.054  55.218  51.316  0.00  0.00    +0.000 C 
ATOM     23  C   UNL     1     -11.148  55.313  52.552  0.00  0.00    +0.000 C 
ATOM     24  C   UNL     1     -12.292  53.741  50.977  0.00  0.00    +0.000 C 
ENDBRANCH   7  22
BRANCH   5  25
ATOM     25  C   UNL     1     -13.775  57.002  49.341  0.00  0.00    +0.000 C 
BRANCH  25  26
ATOM     26  C   UNL     1     -13.691  58.079  50.417  0.00  0.00    +0.000 C 
BRANCH  26  27
ATOM     27  C   UNL     1     -14.778  57.932  51.495  0.00  0.00    +0.000 C 
ATOM     28  C   UNL     1     -15.700  56.740  51.227  0.00  0.00    +0.000 C 
ATOM     29  C   UNL     1     -14.121  57.782  52.868  0.00  0.00    +0.000 C 
ENDBRANCH  26  27
ENDBRANCH  25  26
ENDBRANCH   5  25
TORSDOF 5
ENDMDL
MODEL 2
REMARK VINA RESULT:      -7.5      2.685      4.252
REMARK  Name = 
REMARK  9 active torsions:
REMARK  status: ('A' for Active; 'I' for Inactive)
REMARK    1  A    between atoms: C_6  and  C_10
REMARK    2  A    between atoms: N_17  and  C_20
REMARK    3  A    between atoms: C_19  and  C_21
REMARK    4  A    between atoms: C_20  and  C_22
REMARK    5  A    between atoms: C_21  and  C_23
REMARK    6  A    between atoms: C_21  and  C_24
REMARK    7  A    between atoms: C_22  and  C_25
REMARK    8  A    between atoms: C_25  and  C_26
REMARK    9  A    between atoms: C_25  and  C_27
REMARK                            x       y       z     vdW  Elec       q    Type
REMARK                         _______ _______ _______ _____ _____    ______ ____
ROOT
ATOM      1  C   UNL     1     -10.950  55.212  48.667  0.00  0.00    +0.000 C 
ATOM      2  C   UNL     1     -11.487  55.046  50.024  0.00  0.00    +0.000 C 
ATOM      3  C   UNL     1     -11.960  55.669  47.916  0.00  0.00    +0.000 C 
ATOM      4  O   UNL     1     -10.834  54.611  50.960  0.00  0.00    +0.000 OA
ATOM      5  N   UNL     1     -12.803  55.452  50.009  0.00  0.00    +0.000 N 
ATOM      6  O   UNL     1     -11.920  55.904  46.565  0.00  0.00    +0.000 OA
ATOM      7  C   UNL     1     -13.228  55.916  48.690  0.00  0.00    +0.000 C 
ENDROOT
BRANCH   1  13
ATOM      8  S   UNL     1      -7.961  53.927  46.543  0.00  0.00    +0.000 S 
ATOM      9  O   UNL     1      -7.664  54.879  45.489  0.00  0.00    +0.000 OA
ATOM     10  O   UNL     1      -7.914  52.502  46.275  0.00  0.00    +0.000 OA
ATOM     11  N   UNL     1      -9.432  54.263  47.129  0.00  0.00    +0.000 N 
ATOM     12  C   UNL     1      -6.786  54.222  47.815  0.00  0.00    +0.000 A 
ATOM     13  C   UNL     1      -9.560  54.893  48.259  0.00  0.00    +0.000 C 
ATOM     14  C   UNL     1      -7.216  54.887  48.953  0.00  0.00    +0.000 A 
ATOM     15  C   UNL     1      -5.468  53.788  47.661  0.00  0.00    +0.000 A 
ATOM     16  N   UNL     1      -8.543  55.283  49.096  0.00  0.00    +0.000 N 
ATOM     17  C   UNL     1      -6.286  55.136  49.967  0.00  0.00    +0.000 A 
ATOM     18  C   UNL     1      -4.552  54.034  48.681  0.00  0.00    +0.000 A 
ATOM     19  C   UNL     1      -4.964  54.708  49.832  0.00  0.00    +0.000 A 
ATOM     20  H   UNL     1     -10.233  53.990  46.628  0.00  0.00    +0.000 HD
ATOM     21  H   UNL     1      -8.767  55.880  49.845  0.00  0.00    +0.000 HD
ENDBRANCH   1  13
BRANCH   7  22
ATOM     22  C   UNL     1     -13.745  57.378  48.672  0.00  0.00    +0.000 C 
ATOM     23  C   UNL     1     -14.220  57.807  47.277  0.00  0.00    +0.000 C 
ATOM     24  C   UNL     1     -12.723  58.396  49.193  0.00  0.00    +0.000 C 
ENDBRANCH   7  22
BRANCH   5  25
ATOM     25  C   UNL     1     -13.633  55.469  51.200  0.00  0.00    +0.000 C 
BRANCH  25  26
ATOM     26  C   UNL     1     -13.296  56.617  52.146  0.00  0.00    +0.000 C 
BRANCH  26  27
ATOM     27  C   UNL     1     -14.545  57.358  52.653  0.00  0.00    +0.000 C 
ATOM     28  C   UNL     1     -14.409  58.877  52.519  0.00  0.00    +0.000 C 
ATOM     29  C   UNL     1     -15.775  56.876  51.883  0.00  0.00    +0.000 C 
ENDBRANCH  26  27
ENDBRANCH  25  26
ENDBRANCH   5  25
TORSDOF 5
ENDMDL
MODEL 3
REMARK VINA RESULT:      -7.3      2.903      8.003
REMARK  Name = 
REMARK  9 active torsions:
REMARK  status: ('A' for Active; 'I' for Inactive)
REMARK    1  A    between atoms: C_6  and  C_10
REMARK    2  A    between atoms: N_17  and  C_20
REMARK    3  A    between atoms: C_19  and  C_21
REMARK    4  A    between atoms: C_20  and  C_22
REMARK    5  A    between atoms: C_21  and  C_23
REMARK    6  A    between atoms: C_21  and  C_24
REMARK    7  A    between atoms: C_22  and  C_25
REMARK    8  A    between atoms: C_25  and  C_26
REMARK    9  A    between atoms: C_25  and  C_27
REMARK                            x       y       z     vdW  Elec       q    Type
REMARK                         _______ _______ _______ _____ _____    ______ ____
ROOT
ATOM      1  C   UNL     1     -11.508  56.196  48.689  0.00  0.00    +0.000 C 
ATOM      2  C   UNL     1     -10.295  55.635  49.300  0.00  0.00    +0.000 C 
ATOM      3  C   UNL     1     -11.539  55.742  47.430  0.00  0.00    +0.000 C 
ATOM      4  O   UNL     1      -9.942  55.877  50.444  0.00  0.00    +0.000 OA
ATOM      5  N   UNL     1      -9.679  54.839  48.359  0.00  0.00    +0.000 N 
ATOM      6  O   UNL     1     -12.470  56.069  46.476  0.00  0.00    +0.000 OA
ATOM      7  C   UNL     1     -10.413  54.798  47.097  0.00  0.00    +0.000 C 
ENDROOT
BRANCH   1  13
ATOM      8  S   UNL     1     -13.612  59.361  49.496  0.00  0.00    +0.000 S 
ATOM      9  O   UNL     1     -14.751  59.433  48.600  0.00  0.00    +0.000 OA
ATOM     10  O   UNL     1     -12.878  60.563  49.844  0.00  0.00    +0.000 OA
ATOM     11  N   UNL     1     -12.551  58.303  48.882  0.00  0.00    +0.000 N 
ATOM     12  C   UNL     1     -14.220  58.707  51.009  0.00  0.00    +0.000 A 
ATOM     13  C   UNL     1     -12.461  57.104  49.372  0.00  0.00    +0.000 C 
ATOM     14  C   UNL     1     -13.929  57.384  51.306  0.00  0.00    +0.000 A 
ATOM     15  C   UNL     1     -14.968  59.515  51.868  0.00  0.00    +0.000 A 
ATOM     16  N   UNL     1     -13.156  56.608  50.448  0.00  0.00    +0.000 N 
ATOM     17  C   UNL     1     -14.417  56.852  52.504  0.00  0.00    +0.000 A 
ATOM     18  C   UNL     1     -15.441  58.976  53.061  0.00  0.00    +0.000 A 
ATOM     19  C   UNL     1     -15.165  57.645  53.377  0.00  0.00    +0.000 A 
ATOM     20  H   UNL     1     -11.972  58.571  48.133  0.00  0.00    +0.000 HD
ATOM     21  H   UNL     1     -13.104  55.641  50.624  0.00  0.00    +0.000 HD
ENDBRANCH   1  13
BRANCH   7  22
ATOM     22  C   UNL     1     -10.846  53.373  46.665  0.00  0.00    +0.000 C 
ATOM     23  C   UNL     1     -11.174  53.295  45.168  0.00  0.00    +0.000 C 
ATOM     24  C   UNL     1     -12.028  52.820  47.471  0.00  0.00    +0.000 C 
ENDBRANCH   7  22
BRANCH   5  25
ATOM     25  C   UNL     1      -8.471  54.085  48.640  0.00  0.00    +0.000 C 
BRANCH  25  26
ATOM     26  C   UNL     1      -7.226  54.692  48.002  0.00  0.00    +0.000 C 
BRANCH  26  27
ATOM     27  C   UNL     1      -6.764  53.927  46.749  0.00  0.00    +0.000 C 
ATOM     28  C   UNL     1      -7.161  52.450  46.796  0.00  0.00    +0.000 C 
ATOM     29  C   UNL     1      -7.355  54.584  45.501  0.00  0.00    +0.000 C 
ENDBRANCH  26  27
ENDBRANCH  25  26
ENDBRANCH   5  25
TORSDOF 5
ENDMDL
MODEL 4
REMARK VINA RESULT:      -7.2      3.725      5.983
REMARK  Name = 
REMARK  9 active torsions:
REMARK  status: ('A' for Active; 'I' for Inactive)
REMARK    1  A    between atoms: C_6  and  C_10
REMARK    2  A    between atoms: N_17  and  C_20
REMARK    3  A    between atoms: C_19  and  C_21
REMARK    4  A    between atoms: C_20  and  C_22
REMARK    5  A    between atoms: C_21  and  C_23
REMARK    6  A    between atoms: C_21  and  C_24
REMARK    7  A    between atoms: C_22  and  C_25
REMARK    8  A    between atoms: C_25  and  C_26
REMARK    9  A    between atoms: C_25  and  C_27
REMARK                            x       y       z     vdW  Elec       q    Type
REMARK                         _______ _______ _______ _____ _____    ______ ____
ROOT
ATOM      1  C   UNL     1     -10.237  55.261  50.449  0.00  0.00    +0.000 C 
ATOM      2  C   UNL     1     -11.371  55.313  51.382  0.00  0.00    +0.000 C 
ATOM      3  C   UNL     1     -10.755  55.382  49.221  0.00  0.00    +0.000 C 
ATOM      4  O   UNL     1     -11.256  55.198  52.592  0.00  0.00    +0.000 OA
ATOM      5  N   UNL     1     -12.518  55.497  50.641  0.00  0.00    +0.000 N 
ATOM      6  O   UNL     1     -10.057  55.322  48.040  0.00  0.00    +0.000 OA
ATOM      7  C   UNL     1     -12.247  55.591  49.208  0.00  0.00    +0.000 C 
ENDROOT
BRANCH   1  13
ATOM      8  S   UNL     1      -6.439  54.476  50.209  0.00  0.00    +0.000 S 
ATOM      9  O   UNL     1      -5.746  55.595  49.598  0.00  0.00    +0.000 OA
ATOM     10  O   UNL     1      -6.073  53.115  49.868  0.00  0.00    +0.000 OA
ATOM     11  N   UNL     1      -8.023  54.642  49.918  0.00  0.00    +0.000 N 
ATOM     12  C   UNL     1      -6.185  54.630  51.941  0.00  0.00    +0.000 A 
ATOM     13  C   UNL     1      -8.819  55.081  50.846  0.00  0.00    +0.000 C 
ATOM     14  C   UNL     1      -7.242  55.087  52.713  0.00  0.00    +0.000 A 
ATOM     15  C   UNL     1      -4.949  54.293  52.496  0.00  0.00    +0.000 A 
ATOM     16  N   UNL     1      -8.474  55.387  52.139  0.00  0.00    +0.000 N 
ATOM     17  C   UNL     1      -7.045  55.222  54.091  0.00  0.00    +0.000 A 
ATOM     18  C   UNL     1      -4.769  54.424  53.871  0.00  0.00    +0.000 A 
ATOM     19  C   UNL     1      -5.818  54.888  54.666  0.00  0.00    +0.000 A 
ATOM     20  H   UNL     1      -8.385  54.409  49.032  0.00  0.00    +0.000 HD
ATOM     21  H   UNL     1      -9.140  55.849  52.697  0.00  0.00    +0.000 HD
ENDBRANCH   1  13
BRANCH   7  22
ATOM     22  C   UNL     1     -12.727  56.916  48.561  0.00  0.00    +0.000 C 
ATOM     23  C   UNL     1     -12.454  58.132  49.458  0.00  0.00    +0.000 C 
ATOM     24  C   UNL     1     -14.209  56.904  48.164  0.00  0.00    +0.000 C 
ENDBRANCH   7  22
BRANCH   5  25
ATOM     25  C   UNL     1     -13.828  55.643  51.247  0.00  0.00    +0.000 C 
BRANCH  25  26
ATOM     26  C   UNL     1     -13.890  56.769  52.273  0.00  0.00    +0.000 C 
BRANCH  26  27
ATOM     27  C   UNL     1     -15.230  57.524  52.251  0.00  0.00    +0.000 C 
ATOM     28  C   UNL     1     -15.053  59.004  51.904  0.00  0.00    +0.000 C 
ATOM     29  C   UNL     1     -16.174  56.865  51.244  0.00  0.00    +0.000 C 
ENDBRANCH  26  27
ENDBRANCH  25  26
ENDBRANCH   5  25
TORSDOF 5
ENDMDL
MODEL 5
REMARK VINA RESULT:      -7.1      3.173      7.660
REMARK  Name = 
REMARK  9 active torsions:
REMARK  status: ('A' for Active; 'I' for Inactive)
REMARK    1  A    between atoms: C_6  and  C_10
REMARK    2  A    between atoms: N_17  and  C_20
REMARK    3  A    between atoms: C_19  and  C_21
REMARK    4  A    between atoms: C_20  and  C_22
REMARK    5  A    between atoms: C_21  and  C_23
REMARK    6  A    between atoms: C_21  and  C_24
REMARK    7  A    between atoms: C_22  and  C_25
REMARK    8  A    between atoms: C_25  and  C_26
REMARK    9  A    between atoms: C_25  and  C_27
REMARK                            x       y       z     vdW  Elec       q    Type
REMARK                         _______ _______ _______ _____ _____    ______ ____
ROOT
ATOM      1  C   UNL     1     -12.240  54.537  49.941  0.00  0.00    +0.000 C 
ATOM      2  C   UNL     1     -12.012  54.214  48.526  0.00  0.00    +0.000 C 
ATOM      3  C   UNL     1     -11.716  53.527  50.647  0.00  0.00    +0.000 C 
ATOM      4  O   UNL     1     -12.397  54.914  47.602  0.00  0.00    +0.000 OA
ATOM      5  N   UNL     1     -11.322  53.022  48.472  0.00  0.00    +0.000 N 
ATOM      6  O   UNL     1     -11.761  53.386  52.011  0.00  0.00    +0.000 OA
ATOM      7  C   UNL     1     -11.037  52.483  49.799  0.00  0.00    +0.000 C 
ENDROOT
BRANCH   1  13
ATOM      8  S   UNL     1     -14.329  56.879  52.231  0.00  0.00    +0.000 S 
ATOM      9  O   UNL     1     -13.502  57.365  53.319  0.00  0.00    +0.000 OA
ATOM     10  O   UNL     1     -15.707  56.498  52.474  0.00  0.00    +0.000 OA
ATOM     11  N   UNL     1     -13.585  55.611  51.556  0.00  0.00    +0.000 N 
ATOM     12  C   UNL     1     -14.385  58.173  51.044  0.00  0.00    +0.000 A 
ATOM     13  C   UNL     1     -12.946  55.745  50.432  0.00  0.00    +0.000 C 
ATOM     14  C   UNL     1     -13.625  58.030  49.893  0.00  0.00    +0.000 A 
ATOM     15  C   UNL     1     -15.180  59.298  51.275  0.00  0.00    +0.000 A 
ATOM     16  N   UNL     1     -12.865  56.886  49.671  0.00  0.00    +0.000 N 
ATOM     17  C   UNL     1     -13.656  59.060  48.946  0.00  0.00    +0.000 A 
ATOM     18  C   UNL     1     -15.208  60.313  50.321  0.00  0.00    +0.000 A 
ATOM     19  C   UNL     1     -14.446  60.191  49.159  0.00  0.00    +0.000 A 
ATOM     20  H   UNL     1     -13.616  54.732  51.999  0.00  0.00    +0.000 HD
ATOM     21  H   UNL     1     -12.229  56.894  48.920  0.00  0.00    +0.000 HD
ENDBRANCH   1  13
BRANCH   7  22
ATOM     22  C   UNL     1      -9.526  52.274  50.084  0.00  0.00    +0.000 C 
ATOM     23  C   UNL     1      -9.284  51.269  51.217  0.00  0.00    +0.000 C 
ATOM     24  C   UNL     1      -8.775  53.575  50.392  0.00  0.00    +0.000 C 
ENDBRANCH   7  22
BRANCH   5  25
ATOM     25  C   UNL     1     -10.884  52.425  47.223  0.00  0.00    +0.000 C 
BRANCH  25  26
ATOM     26  C   UNL     1      -9.694  53.148  46.601  0.00  0.00    +0.000 C 
BRANCH  26  27
ATOM     27  C   UNL     1      -9.974  53.635  45.169  0.00  0.00    +0.000 C 
ATOM     28  C   UNL     1      -8.903  53.169  44.181  0.00  0.00    +0.000 C 
ATOM     29  C   UNL     1     -11.348  53.139  44.718  0.00  0.00    +0.000 C 
ENDBRANCH  26  27
ENDBRANCH  25  26
ENDBRANCH   5  25
TORSDOF 5
ENDMDL
MODEL 6
REMARK VINA RESULT:      -7.1      4.129      7.689
REMARK  Name = 
REMARK  9 active torsions:
REMARK  status: ('A' for Active; 'I' for Inactive)
REMARK    1  A    between atoms: C_6  and  C_10
REMARK    2  A    between atoms: N_17  and  C_20
REMARK    3  A    between atoms: C_19  and  C_21
REMARK    4  A    between atoms: C_20  and  C_22
REMARK    5  A    between atoms: C_21  and  C_23
REMARK    6  A    between atoms: C_21  and  C_24
REMARK    7  A    between atoms: C_22  and  C_25
REMARK    8  A    between atoms: C_25  and  C_26
REMARK    9  A    between atoms: C_25  and  C_27
REMARK                            x       y       z     vdW  Elec       q    Type
REMARK                         _______ _______ _______ _____ _____    ______ ____
ROOT
ATOM      1  C   UNL     1      -9.230  55.504  51.081  0.00  0.00    +0.000 C 
ATOM      2  C   UNL     1      -8.719  55.259  52.437  0.00  0.00    +0.000 C 
ATOM      3  C   UNL     1      -8.157  55.700  50.304  0.00  0.00    +0.000 C 
ATOM      4  O   UNL     1      -9.438  55.072  53.406  0.00  0.00    +0.000 OA
ATOM      5  N   UNL     1      -7.343  55.294  52.381  0.00  0.00    +0.000 N 
ATOM      6  O   UNL     1      -8.174  56.026  48.972  0.00  0.00    +0.000 OA
ATOM      7  C   UNL     1      -6.846  55.543  51.030  0.00  0.00    +0.000 C 
ENDROOT
BRANCH   1  13
ATOM      8  S   UNL     1     -12.475  55.169  48.971  0.00  0.00    +0.000 S 
ATOM      9  O   UNL     1     -12.867  53.775  48.894  0.00  0.00    +0.000 OA
ATOM     10  O   UNL     1     -12.589  56.027  47.807  0.00  0.00    +0.000 OA
ATOM     11  N   UNL     1     -10.939  55.236  49.476  0.00  0.00    +0.000 N 
ATOM     12  C   UNL     1     -13.488  55.894  50.210  0.00  0.00    +0.000 A 
ATOM     13  C   UNL     1     -10.665  55.541  50.709  0.00  0.00    +0.000 C 
ATOM     14  C   UNL     1     -12.912  56.161  51.443  0.00  0.00    +0.000 A 
ATOM     15  C   UNL     1     -14.826  56.185  49.935  0.00  0.00    +0.000 A 
ATOM     16  N   UNL     1     -11.568  55.890  51.683  0.00  0.00    +0.000 N 
ATOM     17  C   UNL     1     -13.714  56.729  52.439  0.00  0.00    +0.000 A 
ATOM     18  C   UNL     1     -15.611  56.758  50.933  0.00  0.00    +0.000 A 
ATOM     19  C   UNL     1     -15.053  57.029  52.183  0.00  0.00    +0.000 A 
ATOM     20  H   UNL     1     -10.207  55.044  48.845  0.00  0.00    +0.000 HD
ATOM     21  H   UNL     1     -11.245  55.953  52.610  0.00  0.00    +0.000 HD
ENDBRANCH   1  13
BRANCH   7  22
ATOM     22  C   UNL     1      -5.914  54.430  50.485  0.00  0.00    +0.000 C 
ATOM     23  C   UNL     1      -5.033  54.925  49.329  0.00  0.00    +0.000 C 
ATOM     24  C   UNL     1      -6.661  53.165  50.044  0.00  0.00    +0.000 C 
ENDBRANCH   7  22
BRANCH   5  25
ATOM     25  C   UNL     1      -6.504  55.042  53.538  0.00  0.00    +0.000 C 
BRANCH  25  26
ATOM     26  C   UNL     1      -6.287  53.557  53.807  0.00  0.00    +0.000 C 
BRANCH  26  27
ATOM     27  C   UNL     1      -4.798  53.177  53.887  0.00  0.00    +0.000 C 
ATOM     28  C   UNL     1      -4.443  52.033  52.935  0.00  0.00    +0.000 C 
ATOM     29  C   UNL     1      -3.938  54.401  53.571  0.00  0.00    +0.000 C 
ENDBRANCH  26  27
ENDBRANCH  25  26
ENDBRANCH   5  25
TORSDOF 5
ENDMDL
MODEL 7
REMARK VINA RESULT:      -6.9      2.721      7.749
REMARK  Name = 
REMARK  9 active torsions:
REMARK  status: ('A' for Active; 'I' for Inactive)
REMARK    1  A    between atoms: C_6  and  C_10
REMARK    2  A    between atoms: N_17  and  C_20
REMARK    3  A    between atoms: C_19  and  C_21
REMARK    4  A    between atoms: C_20  and  C_22
REMARK    5  A    between atoms: C_21  and  C_23
REMARK    6  A    between atoms: C_21  and  C_24
REMARK    7  A    between atoms: C_22  and  C_25
REMARK    8  A    between atoms: C_25  and  C_26
REMARK    9  A    between atoms: C_25  and  C_27
REMARK                            x       y       z     vdW  Elec       q    Type
REMARK                         _______ _______ _______ _____ _____    ______ ____
ROOT
ATOM      1  C   UNL     1     -12.259  55.240  48.682  0.00  0.00    +0.000 C 
ATOM      2  C   UNL     1     -11.845  55.191  47.273  0.00  0.00    +0.000 C 
ATOM      3  C   UNL     1     -11.915  54.062  49.216  0.00  0.00    +0.000 C 
ATOM      4  O   UNL     1     -12.040  56.100  46.481  0.00  0.00    +0.000 OA
ATOM      5  N   UNL     1     -11.238  53.974  47.054  0.00  0.00    +0.000 N 
ATOM      6  O   UNL     1     -12.173  53.650  50.500  0.00  0.00    +0.000 OA
ATOM      7  C   UNL     1     -11.190  53.150  48.260  0.00  0.00    +0.000 C 
ENDROOT
BRANCH   1  13
ATOM      8  S   UNL     1     -13.488  58.864  49.355  0.00  0.00    +0.000 S 
ATOM      9  O   UNL     1     -14.580  59.185  48.456  0.00  0.00    +0.000 OA
ATOM     10  O   UNL     1     -12.471  59.855  49.652  0.00  0.00    +0.000 OA
ATOM     11  N   UNL     1     -12.734  57.549  48.786  0.00  0.00    +0.000 N 
ATOM     12  C   UNL     1     -14.226  58.447  50.893  0.00  0.00    +0.000 A 
ATOM     13  C   UNL     1     -12.945  56.386  49.327  0.00  0.00    +0.000 C 
ATOM     14  C   UNL     1     -14.276  57.107  51.246  0.00  0.00    +0.000 A 
ATOM     15  C   UNL     1     -14.737  59.453  51.717  0.00  0.00    +0.000 A 
ATOM     16  N   UNL     1     -13.732  56.126  50.422  0.00  0.00    +0.000 N 
ATOM     17  C   UNL     1     -14.870  56.765  52.465  0.00  0.00    +0.000 A 
ATOM     18  C   UNL     1     -15.319  59.099  52.932  0.00  0.00    +0.000 A 
ATOM     19  C   UNL     1     -15.385  57.756  53.303  0.00  0.00    +0.000 A 
ATOM     20  H   UNL     1     -12.113  57.630  48.027  0.00  0.00    +0.000 HD
ATOM     21  H   UNL     1     -13.924  55.186  50.638  0.00  0.00    +0.000 HD
ENDBRANCH   1  13
BRANCH   7  22
ATOM     22  C   UNL     1      -9.757  52.741  48.688  0.00  0.00    +0.000 C 
ATOM     23  C   UNL     1      -8.744  53.874  48.477  0.00  0.00    +0.000 C 
ATOM     24  C   UNL     1      -9.248  51.472  47.994  0.00  0.00    +0.000 C 
ENDBRANCH   7  22
BRANCH   5  25
ATOM     25  C   UNL     1     -10.661  53.605  45.775  0.00  0.00    +0.000 C 
BRANCH  25  26
ATOM     26  C   UNL     1     -11.666  52.949  44.834  0.00  0.00    +0.000 C 
BRANCH  26  27
ATOM     27  C   UNL     1     -11.288  51.503  44.470  0.00  0.00    +0.000 C 
ATOM     28  C   UNL     1      -9.773  51.311  44.368  0.00  0.00    +0.000 C 
ATOM     29  C   UNL     1     -11.864  50.544  45.514  0.00  0.00    +0.000 C 
ENDBRANCH  26  27
ENDBRANCH  25  26
ENDBRANCH   5  25
TORSDOF 5
ENDMDL
MODEL 8
REMARK VINA RESULT:      -6.9      3.541      6.529
REMARK  Name = 
REMARK  9 active torsions:
REMARK  status: ('A' for Active; 'I' for Inactive)
REMARK    1  A    between atoms: C_6  and  C_10
REMARK    2  A    between atoms: N_17  and  C_20
REMARK    3  A    between atoms: C_19  and  C_21
REMARK    4  A    between atoms: C_20  and  C_22
REMARK    5  A    between atoms: C_21  and  C_23
REMARK    6  A    between atoms: C_21  and  C_24
REMARK    7  A    between atoms: C_22  and  C_25
REMARK    8  A    between atoms: C_25  and  C_26
REMARK    9  A    between atoms: C_25  and  C_27
REMARK                            x       y       z     vdW  Elec       q    Type
REMARK                         _______ _______ _______ _____ _____    ______ ____
ROOT
ATOM      1  C   UNL     1     -10.762  54.227  50.307  0.00  0.00    +0.000 C 
ATOM      2  C   UNL     1     -11.678  55.361  50.490  0.00  0.00    +0.000 C 
ATOM      3  C   UNL     1     -11.040  53.708  49.105  0.00  0.00    +0.000 C 
ATOM      4  O   UNL     1     -11.715  56.043  51.503  0.00  0.00    +0.000 OA
ATOM      5  N   UNL     1     -12.443  55.472  49.350  0.00  0.00    +0.000 N 
ATOM      6  O   UNL     1     -10.464  52.592  48.553  0.00  0.00    +0.000 OA
ATOM      7  C   UNL     1     -12.100  54.466  48.348  0.00  0.00    +0.000 C 
ENDROOT
BRANCH   1  13
ATOM      8  S   UNL     1      -8.855  51.936  52.799  0.00  0.00    +0.000 S 
ATOM      9  O   UNL     1      -8.000  51.022  52.067  0.00  0.00    +0.000 OA
ATOM     10  O   UNL     1      -9.592  51.477  53.961  0.00  0.00    +0.000 OA
ATOM     11  N   UNL     1      -9.924  52.569  51.763  0.00  0.00    +0.000 N 
ATOM     12  C   UNL     1      -7.813  53.232  53.366  0.00  0.00    +0.000 A 
ATOM     13  C   UNL     1      -9.762  53.774  51.305  0.00  0.00    +0.000 C 
ATOM     14  C   UNL     1      -7.880  54.452  52.710  0.00  0.00    +0.000 A 
ATOM     15  C   UNL     1      -6.955  53.016  54.446  0.00  0.00    +0.000 A 
ATOM     16  N   UNL     1      -8.766  54.652  51.655  0.00  0.00    +0.000 N 
ATOM     17  C   UNL     1      -7.047  55.487  53.148  0.00  0.00    +0.000 A 
ATOM     18  C   UNL     1      -6.136  54.056  54.878  0.00  0.00    +0.000 A 
ATOM     19  C   UNL     1      -6.184  55.290  54.227  0.00  0.00    +0.000 A 
ATOM     20  H   UNL     1     -10.703  52.038  51.477  0.00  0.00    +0.000 HD
ATOM     21  H   UNL     1      -8.671  55.477  51.126  0.00  0.00    +0.000 HD
ENDBRANCH   1  13
BRANCH   7  22
ATOM     22  C   UNL     1     -11.651  55.058  46.987  0.00  0.00    +0.000 C 
ATOM     23  C   UNL     1     -11.858  54.072  45.829  0.00  0.00    +0.000 C 
ATOM     24  C   UNL     1     -10.197  55.547  46.981  0.00  0.00    +0.000 C 
ENDBRANCH   7  22
BRANCH   5  25
ATOM     25  C   UNL     1     -13.428  56.523  49.166  0.00  0.00    +0.000 C 
BRANCH  25  26
ATOM     26  C   UNL     1     -14.755  56.225  49.855  0.00  0.00    +0.000 C 
BRANCH  26  27
ATOM     27  C   UNL     1     -15.193  57.345  50.814  0.00  0.00    +0.000 C 
ATOM     28  C   UNL     1     -15.108  56.915  52.281  0.00  0.00    +0.000 C 
ATOM     29  C   UNL     1     -14.327  58.585  50.586  0.00  0.00    +0.000 C 
ENDBRANCH  26  27
ENDBRANCH  25  26
ENDBRANCH   5  25
TORSDOF 5
ENDMDL
MODEL 9
REMARK VINA RESULT:      -6.8      3.317      7.693
REMARK  Name = 
REMARK  9 active torsions:
REMARK  status: ('A' for Active; 'I' for Inactive)
REMARK    1  A    between atoms: C_6  and  C_10
REMARK    2  A    between atoms: N_17  and  C_20
REMARK    3  A    between atoms: C_19  and  C_21
REMARK    4  A    between atoms: C_20  and  C_22
REMARK    5  A    between atoms: C_21  and  C_23
REMARK    6  A    between atoms: C_21  and  C_24
REMARK    7  A    between atoms: C_22  and  C_25
REMARK    8  A    between atoms: C_25  and  C_26
REMARK    9  A    between atoms: C_25  and  C_27
REMARK                            x       y       z     vdW  Elec       q    Type
REMARK                         _______ _______ _______ _____ _____    ______ ____
ROOT
ATOM      1  C   UNL     1     -10.787  55.127  50.479  0.00  0.00    +0.000 C 
ATOM      2  C   UNL     1     -10.271  54.397  51.645  0.00  0.00    +0.000 C 
ATOM      3  C   UNL     1      -9.953  54.858  49.467  0.00  0.00    +0.000 C 
ATOM      4  O   UNL     1     -10.780  54.448  52.754  0.00  0.00    +0.000 OA
ATOM      5  N   UNL     1      -9.154  53.697  51.243  0.00  0.00    +0.000 N 
ATOM      6  O   UNL     1     -10.022  55.385  48.202  0.00  0.00    +0.000 OA
ATOM      7  C   UNL     1      -8.857  53.888  49.825  0.00  0.00    +0.000 C 
ENDROOT
BRANCH   1  13
ATOM      8  S   UNL     1     -13.695  57.365  49.202  0.00  0.00    +0.000 S 
ATOM      9  O   UNL     1     -14.753  56.532  48.661  0.00  0.00    +0.000 OA
ATOM     10  O   UNL     1     -13.326  58.601  48.538  0.00  0.00    +0.000 OA
ATOM     11  N   UNL     1     -12.357  56.464  49.331  0.00  0.00    +0.000 N 
ATOM     12  C   UNL     1     -14.207  57.816  50.821  0.00  0.00    +0.000 A 
ATOM     13  C   UNL     1     -11.987  55.999  50.487  0.00  0.00    +0.000 C 
ATOM     14  C   UNL     1     -13.599  57.181  51.893  0.00  0.00    +0.000 A 
ATOM     15  C   UNL     1     -15.194  58.788  50.995  0.00  0.00    +0.000 A 
ATOM     16  N   UNL     1     -12.596  56.237  51.695  0.00  0.00    +0.000 N 
ATOM     17  C   UNL     1     -14.007  57.526  53.186  0.00  0.00    +0.000 A 
ATOM     18  C   UNL     1     -15.586  59.129  52.287  0.00  0.00    +0.000 A 
ATOM     19  C   UNL     1     -14.991  58.497  53.380  0.00  0.00    +0.000 A 
ATOM     20  H   UNL     1     -11.820  56.266  48.530  0.00  0.00    +0.000 HD
ATOM     21  H   UNL     1     -12.304  55.706  52.470  0.00  0.00    +0.000 HD
ENDBRANCH   1  13
BRANCH   7  22
ATOM     22  C   UNL     1      -8.836  52.574  49.002  0.00  0.00    +0.000 C 
ATOM     23  C   UNL     1      -8.034  52.718  47.701  0.00  0.00    +0.000 C 
ATOM     24  C   UNL     1     -10.234  52.032  48.676  0.00  0.00    +0.000 C 
ENDBRANCH   7  22
BRANCH   5  25
ATOM     25  C   UNL     1      -8.414  52.822  52.133  0.00  0.00    +0.000 C 
BRANCH  25  26
ATOM     26  C   UNL     1      -7.114  53.442  52.634  0.00  0.00    +0.000 C 
BRANCH  26  27
ATOM     27  C   UNL     1      -7.271  54.140  53.996  0.00  0.00    +0.000 C 
ATOM     28  C   UNL     1      -6.098  53.847  54.934  0.00  0.00    +0.000 C 
ATOM     29  C   UNL     1      -7.403  55.649  53.786  0.00  0.00    +0.000 C 
ENDBRANCH  26  27
ENDBRANCH  25  26
ENDBRANCH   5  25
TORSDOF 5
ENDMDL
