MODEL 1
REMARK VINA RESULT:      -7.5      0.000      0.000
REMARK  Name = 
REMARK  9 active torsions:
REMARK  status: ('A' for Active; 'I' for Inactive)
REMARK    1  A    between atoms: C_6  and  C_10
REMARK    2  A    between atoms: N_17  and  C_20
REMARK    3  A    between atoms: C_19  and  C_21
REMARK    4  A    between atoms: C_20  and  C_22
REMARK    5  A    between atoms: C_21  and  C_23
REMARK    6  A    between atoms: C_21  and  C_24
REMARK    7  A    between atoms: C_22  and  C_25
REMARK    8  A    between atoms: C_25  and  C_26
REMARK    9  A    between atoms: C_25  and  C_27
REMARK                            x       y       z     vdW  Elec       q    Type
REMARK                         _______ _______ _______ _____ _____    ______ ____
ROOT
ATOM      1  C   UNL     1     -10.845  55.210  47.975  0.00  0.00    +0.000 C 
ATOM      2  C   UNL     1     -12.162  55.845  47.831  0.00  0.00    +0.000 C 
ATOM      3  C   UNL     1     -10.488  55.366  49.255  0.00  0.00    +0.000 C 
ATOM      4  O   UNL     1     -12.768  55.912  46.773  0.00  0.00    +0.000 OA
ATOM      5  N   UNL     1     -12.532  56.328  49.067  0.00  0.00    +0.000 N 
ATOM      6  O   UNL     1      -9.298  54.976  49.815  0.00  0.00    +0.000 OA
ATOM      7  C   UNL     1     -11.532  56.052  50.097  0.00  0.00    +0.000 C 
ENDROOT
BRANCH   1  13
ATOM      8  S   UNL     1      -7.952  54.329  45.538  0.00  0.00    +0.000 S 
ATOM      9  O   UNL     1      -6.985  53.481  46.209  0.00  0.00    +0.000 OA
ATOM     10  O   UNL     1      -7.505  55.385  44.648  0.00  0.00    +0.000 OA
ATOM     11  N   UNL     1      -8.896  55.010  46.661  0.00  0.00    +0.000 N 
ATOM     12  C   UNL     1      -8.948  53.258  44.565  0.00  0.00    +0.000 A 
ATOM     13  C   UNL     1     -10.096  54.557  46.877  0.00  0.00    +0.000 C 
ATOM     14  C   UNL     1     -10.228  52.975  45.019  0.00  0.00    +0.000 A 
ATOM     15  C   UNL     1      -8.443  52.724  43.377  0.00  0.00    +0.000 A 
ATOM     16  N   UNL     1     -10.716  53.542  46.190  0.00  0.00    +0.000 N 
ATOM     17  C   UNL     1     -11.023  52.116  44.256  0.00  0.00    +0.000 A 
ATOM     18  C   UNL     1      -9.250  51.875  42.625  0.00  0.00    +0.000 A 
ATOM     19  C   UNL     1     -10.539  51.571  43.064  0.00  0.00    +0.000 A 
ATOM     20  H   UNL     1      -8.561  55.772  47.185  0.00  0.00    +0.000 HD
ATOM     21  H   UNL     1     -11.563  53.194  46.550  0.00  0.00    +0.000 HD
ENDBRANCH   1  13
BRANCH   7  22
ATOM     22  C   UNL     1     -12.071  55.225  51.293  0.00  0.00    +0.000 C 
ATOM     23  C   UNL     1     -11.173  55.347  52.531  0.00  0.00    +0.000 C 
ATOM     24  C   UNL     1     -12.284  53.742  50.967  0.00  0.00    +0.000 C 
ENDBRANCH   7  22
BRANCH   5  25
ATOM     25  C   UNL     1     -13.806  56.980  49.304  0.00  0.00    +0.000 C 
BRANCH  25  26
ATOM     26  C   UNL     1     -13.726  58.090  50.346  0.00  0.00    +0.000 C 
BRANCH  26  27
ATOM     27  C   UNL     1     -14.794  57.952  51.444  0.00  0.00    +0.000 C 
ATOM     28  C   UNL     1     -15.690  56.731  51.231  0.00  0.00    +0.000 C 
ATOM     29  C   UNL     1     -14.114  57.865  52.812  0.00  0.00    +0.000 C 
ENDBRANCH  26  27
ENDBRANCH  25  26
ENDBRANCH   5  25
TORSDOF 5
ENDMDL
MODEL 2
REMARK VINA RESULT:      -7.5      2.692      4.252
REMARK  Name = 
REMARK  9 active torsions:
REMARK  status: ('A' for Active; 'I' for Inactive)
REMARK    1  A    between atoms: C_6  and  C_10
REMARK    2  A    between atoms: N_17  and  C_20
REMARK    3  A    between atoms: C_19  and  C_21
REMARK    4  A    between atoms: C_20  and  C_22
REMARK    5  A    between atoms: C_21  and  C_23
REMARK    6  A    between atoms: C_21  and  C_24
REMARK    7  A    between atoms: C_22  and  C_25
REMARK    8  A    between atoms: C_25  and  C_26
REMARK    9  A    between atoms: C_25  and  C_27
REMARK                            x       y       z     vdW  Elec       q    Type
REMARK                         _______ _______ _______ _____ _____    ______ ____
ROOT
ATOM      1  C   UNL     1     -10.983  55.253  48.684  0.00  0.00    +0.000 C 
ATOM      2  C   UNL     1     -11.509  55.106  50.048  0.00  0.00    +0.000 C 
ATOM      3  C   UNL     1     -11.993  55.708  47.936  0.00  0.00    +0.000 C 
ATOM      4  O   UNL     1     -10.852  54.678  50.984  0.00  0.00    +0.000 OA
ATOM      5  N   UNL     1     -12.824  55.517  50.036  0.00  0.00    +0.000 N 
ATOM      6  O   UNL     1     -11.960  55.930  46.582  0.00  0.00    +0.000 OA
ATOM      7  C   UNL     1     -13.257  55.966  48.714  0.00  0.00    +0.000 C 
ENDROOT
BRANCH   1  13
ATOM      8  S   UNL     1      -8.012  53.938  46.555  0.00  0.00    +0.000 S 
ATOM      9  O   UNL     1      -7.716  54.880  45.491  0.00  0.00    +0.000 OA
ATOM     10  O   UNL     1      -7.976  52.511  46.298  0.00  0.00    +0.000 OA
ATOM     11  N   UNL     1      -9.477  54.287  47.147  0.00  0.00    +0.000 N 
ATOM     12  C   UNL     1      -6.828  54.240  47.817  0.00  0.00    +0.000 A 
ATOM     13  C   UNL     1      -9.598  54.927  48.273  0.00  0.00    +0.000 C 
ATOM     14  C   UNL     1      -7.250  54.919  48.951  0.00  0.00    +0.000 A 
ATOM     15  C   UNL     1      -5.512  53.799  47.658  0.00  0.00    +0.000 A 
ATOM     16  N   UNL     1      -8.572  55.322  49.096  0.00  0.00    +0.000 N 
ATOM     17  C   UNL     1      -6.312  55.171  49.955  0.00  0.00    +0.000 A 
ATOM     18  C   UNL     1      -4.591  54.052  48.670  0.00  0.00    +0.000 A 
ATOM     19  C   UNL     1      -4.990  54.738  49.818  0.00  0.00    +0.000 A 
ATOM     20  H   UNL     1     -10.282  54.013  46.652  0.00  0.00    +0.000 HD
ATOM     21  H   UNL     1      -8.787  55.930  49.840  0.00  0.00    +0.000 HD
ENDBRANCH   1  13
BRANCH   7  22
ATOM     22  C   UNL     1     -13.772  57.428  48.681  0.00  0.00    +0.000 C 
ATOM     23  C   UNL     1     -14.231  57.849  47.279  0.00  0.00    +0.000 C 
ATOM     24  C   UNL     1     -12.755  58.448  49.208  0.00  0.00    +0.000 C 
ENDBRANCH   7  22
BRANCH   5  25
ATOM     25  C   UNL     1     -13.646  55.549  51.231  0.00  0.00    +0.000 C 
BRANCH  25  26
ATOM     26  C   UNL     1     -13.256  56.664  52.195  0.00  0.00    +0.000 C 
BRANCH  26  27
ATOM     27  C   UNL     1     -14.474  57.428  52.743  0.00  0.00    +0.000 C 
ATOM     28  C   UNL     1     -14.382  58.931  52.479  0.00  0.00    +0.000 C 
ATOM     29  C   UNL     1     -15.754  56.868  52.118  0.00  0.00    +0.000 C 
ENDBRANCH  26  27
ENDBRANCH  25  26
ENDBRANCH   5  25
TORSDOF 5
ENDMDL
MODEL 3
REMARK VINA RESULT:      -7.2      3.730      5.984
REMARK  Name = 
REMARK  9 active torsions:
REMARK  status: ('A' for Active; 'I' for Inactive)
REMARK    1  A    between atoms: C_6  and  C_10
REMARK    2  A    between atoms: N_17  and  C_20
REMARK    3  A    between atoms: C_19  and  C_21
REMARK    4  A    between atoms: C_20  and  C_22
REMARK    5  A    between atoms: C_21  and  C_23
REMARK    6  A    between atoms: C_21  and  C_24
REMARK    7  A    between atoms: C_22  and  C_25
REMARK    8  A    between atoms: C_25  and  C_26
REMARK    9  A    between atoms: C_25  and  C_27
REMARK                            x       y       z     vdW  Elec       q    Type
REMARK                         _______ _______ _______ _____ _____    ______ ____
ROOT
ATOM      1  C   UNL     1     -10.253  55.248  50.453  0.00  0.00    +0.000 C 
ATOM      2  C   UNL     1     -11.383  55.316  51.388  0.00  0.00    +0.000 C 
ATOM      3  C   UNL     1     -10.771  55.360  49.225  0.00  0.00    +0.000 C 
ATOM      4  O   UNL     1     -11.266  55.212  52.599  0.00  0.00    +0.000 OA
ATOM      5  N   UNL     1     -12.531  55.496  50.647  0.00  0.00    +0.000 N 
ATOM      6  O   UNL     1     -10.075  55.288  48.044  0.00  0.00    +0.000 OA
ATOM      7  C   UNL     1     -12.262  55.572  49.212  0.00  0.00    +0.000 C 
ENDROOT
BRANCH   1  13
ATOM      8  S   UNL     1      -6.455  54.470  50.206  0.00  0.00    +0.000 S 
ATOM      9  O   UNL     1      -5.762  55.591  49.600  0.00  0.00    +0.000 OA
ATOM     10  O   UNL     1      -6.090  53.110  49.857  0.00  0.00    +0.000 OA
ATOM     11  N   UNL     1      -8.038  54.636  49.918  0.00  0.00    +0.000 N 
ATOM     12  C   UNL     1      -6.199  54.617  51.938  0.00  0.00    +0.000 A 
ATOM     13  C   UNL     1      -8.837  55.070  50.849  0.00  0.00    +0.000 C 
ATOM     14  C   UNL     1      -7.256  55.072  52.713  0.00  0.00    +0.000 A 
ATOM     15  C   UNL     1      -4.962  54.279  52.491  0.00  0.00    +0.000 A 
ATOM     16  N   UNL     1      -8.487  55.374  52.141  0.00  0.00    +0.000 N 
ATOM     17  C   UNL     1      -7.058  55.201  54.089  0.00  0.00    +0.000 A 
ATOM     18  C   UNL     1      -4.781  54.407  53.865  0.00  0.00    +0.000 A 
ATOM     19  C   UNL     1      -5.828  54.868  54.664  0.00  0.00    +0.000 A 
ATOM     20  H   UNL     1      -8.400  54.406  49.032  0.00  0.00    +0.000 HD
ATOM     21  H   UNL     1      -9.152  55.836  52.700  0.00  0.00    +0.000 HD
ENDBRANCH   1  13
BRANCH   7  22
ATOM     22  C   UNL     1     -12.742  56.890  48.550  0.00  0.00    +0.000 C 
ATOM     23  C   UNL     1     -12.436  58.118  49.418  0.00  0.00    +0.000 C 
ATOM     24  C   UNL     1     -14.230  56.886  48.185  0.00  0.00    +0.000 C 
ENDBRANCH   7  22
BRANCH   5  25
ATOM     25  C   UNL     1     -13.839  55.651  51.254  0.00  0.00    +0.000 C 
BRANCH  25  26
ATOM     26  C   UNL     1     -13.896  56.788  52.268  0.00  0.00    +0.000 C 
BRANCH  26  27
ATOM     27  C   UNL     1     -15.237  57.542  52.241  0.00  0.00    +0.000 C 
ATOM     28  C   UNL     1     -15.068  59.009  51.842  0.00  0.00    +0.000 C 
ATOM     29  C   UNL     1     -16.196  56.847  51.272  0.00  0.00    +0.000 C 
ENDBRANCH  26  27
ENDBRANCH  25  26
ENDBRANCH   5  25
TORSDOF 5
ENDMDL
MODEL 4
REMARK VINA RESULT:      -7.1      3.167      7.671
REMARK  Name = 
REMARK  9 active torsions:
REMARK  status: ('A' for Active; 'I' for Inactive)
REMARK    1  A    between atoms: C_6  and  C_10
REMARK    2  A    between atoms: N_17  and  C_20
REMARK    3  A    between atoms: C_19  and  C_21
REMARK    4  A    between atoms: C_20  and  C_22
REMARK    5  A    between atoms: C_21  and  C_23
REMARK    6  A    between atoms: C_21  and  C_24
REMARK    7  A    between atoms: C_22  and  C_25
REMARK    8  A    between atoms: C_25  and  C_26
REMARK    9  A    between atoms: C_25  and  C_27
REMARK                            x       y       z     vdW  Elec       q    Type
REMARK                         _______ _______ _______ _____ _____    ______ ____
ROOT
ATOM      1  C   UNL     1     -12.254  54.547  49.917  0.00  0.00    +0.000 C 
ATOM      2  C   UNL     1     -12.000  54.249  48.502  0.00  0.00    +0.000 C 
ATOM      3  C   UNL     1     -11.750  53.524  50.615  0.00  0.00    +0.000 C 
ATOM      4  O   UNL     1     -12.363  54.969  47.584  0.00  0.00    +0.000 OA
ATOM      5  N   UNL     1     -11.320  53.053  48.439  0.00  0.00    +0.000 N 
ATOM      6  O   UNL     1     -11.820  53.361  51.976  0.00  0.00    +0.000 OA
ATOM      7  C   UNL     1     -11.066  52.487  49.764  0.00  0.00    +0.000 C 
ENDROOT
BRANCH   1  13
ATOM      8  S   UNL     1     -14.335  56.878  52.225  0.00  0.00    +0.000 S 
ATOM      9  O   UNL     1     -13.505  57.359  53.314  0.00  0.00    +0.000 OA
ATOM     10  O   UNL     1     -15.711  56.493  52.470  0.00  0.00    +0.000 OA
ATOM     11  N   UNL     1     -13.591  55.615  51.541  0.00  0.00    +0.000 N 
ATOM     12  C   UNL     1     -14.393  58.179  51.045  0.00  0.00    +0.000 A 
ATOM     13  C   UNL     1     -12.955  55.753  50.415  0.00  0.00    +0.000 C 
ATOM     14  C   UNL     1     -13.634  58.042  49.892  0.00  0.00    +0.000 A 
ATOM     15  C   UNL     1     -15.187  59.303  51.286  0.00  0.00    +0.000 A 
ATOM     16  N   UNL     1     -12.875  56.901  49.664  0.00  0.00    +0.000 N 
ATOM     17  C   UNL     1     -13.668  59.076  48.954  0.00  0.00    +0.000 A 
ATOM     18  C   UNL     1     -15.215  60.322  50.338  0.00  0.00    +0.000 A 
ATOM     19  C   UNL     1     -14.456  60.210  49.173  0.00  0.00    +0.000 A 
ATOM     20  H   UNL     1     -13.622  54.734  51.979  0.00  0.00    +0.000 HD
ATOM     21  H   UNL     1     -12.238  56.915  48.914  0.00  0.00    +0.000 HD
ENDBRANCH   1  13
BRANCH   7  22
ATOM     22  C   UNL     1      -9.564  52.256  50.073  0.00  0.00    +0.000 C 
ATOM     23  C   UNL     1      -9.355  51.223  51.188  0.00  0.00    +0.000 C 
ATOM     24  C   UNL     1      -8.806  53.541  50.425  0.00  0.00    +0.000 C 
ENDBRANCH   7  22
BRANCH   5  25
ATOM     25  C   UNL     1     -10.865  52.474  47.190  0.00  0.00    +0.000 C 
BRANCH  25  26
ATOM     26  C   UNL     1      -9.675  53.212  46.588  0.00  0.00    +0.000 C 
BRANCH  26  27
ATOM     27  C   UNL     1      -9.909  53.620  45.122  0.00  0.00    +0.000 C 
ATOM     28  C   UNL     1      -8.901  52.969  44.173  0.00  0.00    +0.000 C 
ATOM     29  C   UNL     1     -11.332  53.243  44.706  0.00  0.00    +0.000 C 
ENDBRANCH  26  27
ENDBRANCH  25  26
ENDBRANCH   5  25
TORSDOF 5
ENDMDL
MODEL 5
REMARK VINA RESULT:      -7.1      2.724      7.811
REMARK  Name = 
REMARK  9 active torsions:
REMARK  status: ('A' for Active; 'I' for Inactive)
REMARK    1  A    between atoms: C_6  and  C_10
REMARK    2  A    between atoms: N_17  and  C_20
REMARK    3  A    between atoms: C_19  and  C_21
REMARK    4  A    between atoms: C_20  and  C_22
REMARK    5  A    between atoms: C_21  and  C_23
REMARK    6  A    between atoms: C_21  and  C_24
REMARK    7  A    between atoms: C_22  and  C_25
REMARK    8  A    between atoms: C_25  and  C_26
REMARK    9  A    between atoms: C_25  and  C_27
REMARK                            x       y       z     vdW  Elec       q    Type
REMARK                         _______ _______ _______ _____ _____    ______ ____
ROOT
ATOM      1  C   UNL     1     -12.364  55.187  48.684  0.00  0.00    +0.000 C 
ATOM      2  C   UNL     1     -11.954  55.133  47.275  0.00  0.00    +0.000 C 
ATOM      3  C   UNL     1     -12.038  54.005  49.218  0.00  0.00    +0.000 C 
ATOM      4  O   UNL     1     -12.136  56.044  46.482  0.00  0.00    +0.000 OA
ATOM      5  N   UNL     1     -11.372  53.904  47.053  0.00  0.00    +0.000 N 
ATOM      6  O   UNL     1     -12.297  53.600  50.503  0.00  0.00    +0.000 OA
ATOM      7  C   UNL     1     -11.337  53.078  48.259  0.00  0.00    +0.000 C 
ENDROOT
BRANCH   1  13
ATOM      8  S   UNL     1     -13.505  58.838  49.359  0.00  0.00    +0.000 S 
ATOM      9  O   UNL     1     -14.592  59.186  48.463  0.00  0.00    +0.000 OA
ATOM     10  O   UNL     1     -12.463  59.803  49.652  0.00  0.00    +0.000 OA
ATOM     11  N   UNL     1     -12.786  57.505  48.790  0.00  0.00    +0.000 N 
ATOM     12  C   UNL     1     -14.252  58.439  50.898  0.00  0.00    +0.000 A 
ATOM     13  C   UNL     1     -13.022  56.346  49.330  0.00  0.00    +0.000 C 
ATOM     14  C   UNL     1     -14.333  57.099  51.249  0.00  0.00    +0.000 A 
ATOM     15  C   UNL     1     -14.737  59.457  51.722  0.00  0.00    +0.000 A 
ATOM     16  N   UNL     1     -13.817  56.108  50.424  0.00  0.00    +0.000 N 
ATOM     17  C   UNL     1     -14.934  56.773  52.467  0.00  0.00    +0.000 A 
ATOM     18  C   UNL     1     -15.327  59.116  52.936  0.00  0.00    +0.000 A 
ATOM     19  C   UNL     1     -15.426  57.775  53.309  0.00  0.00    +0.000 A 
ATOM     20  H   UNL     1     -12.165  57.573  48.029  0.00  0.00    +0.000 HD
ATOM     21  H   UNL     1     -14.034  55.172  50.639  0.00  0.00    +0.000 HD
ENDBRANCH   1  13
BRANCH   7  22
ATOM     22  C   UNL     1      -9.911  52.638  48.682  0.00  0.00    +0.000 C 
ATOM     23  C   UNL     1      -9.929  51.371  49.546  0.00  0.00    +0.000 C 
ATOM     24  C   UNL     1      -9.121  53.734  49.405  0.00  0.00    +0.000 C 
ENDBRANCH   7  22
BRANCH   5  25
ATOM     25  C   UNL     1     -10.808  53.523  45.773  0.00  0.00    +0.000 C 
BRANCH  25  26
ATOM     26  C   UNL     1      -9.398  54.061  45.557  0.00  0.00    +0.000 C 
BRANCH  26  27
ATOM     27  C   UNL     1      -8.473  53.043  44.865  0.00  0.00    +0.000 C 
ATOM     28  C   UNL     1      -8.573  51.651  45.492  0.00  0.00    +0.000 C 
ATOM     29  C   UNL     1      -8.817  52.968  43.376  0.00  0.00    +0.000 C 
ENDBRANCH  26  27
ENDBRANCH  25  26
ENDBRANCH   5  25
TORSDOF 5
ENDMDL
MODEL 6
REMARK VINA RESULT:      -6.9      2.923      7.775
REMARK  Name = 
REMARK  9 active torsions:
REMARK  status: ('A' for Active; 'I' for Inactive)
REMARK    1  A    between atoms: C_6  and  C_10
REMARK    2  A    between atoms: N_17  and  C_20
REMARK    3  A    between atoms: C_19  and  C_21
REMARK    4  A    between atoms: C_20  and  C_22
REMARK    5  A    between atoms: C_21  and  C_23
REMARK    6  A    between atoms: C_21  and  C_24
REMARK    7  A    between atoms: C_22  and  C_25
REMARK    8  A    between atoms: C_25  and  C_26
REMARK    9  A    between atoms: C_25  and  C_27
REMARK                            x       y       z     vdW  Elec       q    Type
REMARK                         _______ _______ _______ _____ _____    ______ ____
ROOT
ATOM      1  C   UNL     1     -11.485  55.853  48.895  0.00  0.00    +0.000 C 
ATOM      2  C   UNL     1     -10.520  55.050  49.658  0.00  0.00    +0.000 C 
ATOM      3  C   UNL     1     -11.314  55.528  47.609  0.00  0.00    +0.000 C 
ATOM      4  O   UNL     1     -10.387  55.126  50.869  0.00  0.00    +0.000 OA
ATOM      5  N   UNL     1      -9.834  54.257  48.765  0.00  0.00    +0.000 N 
ATOM      6  O   UNL     1     -11.969  56.085  46.540  0.00  0.00    +0.000 OA
ATOM      7  C   UNL     1     -10.282  54.453  47.387  0.00  0.00    +0.000 C 
ENDROOT
BRANCH   1  13
ATOM      8  S   UNL     1     -13.514  59.124  49.416  0.00  0.00    +0.000 S 
ATOM      9  O   UNL     1     -14.629  59.163  48.489  0.00  0.00    +0.000 OA
ATOM     10  O   UNL     1     -12.751  60.327  49.692  0.00  0.00    +0.000 OA
ATOM     11  N   UNL     1     -12.472  57.995  48.908  0.00  0.00    +0.000 N 
ATOM     12  C   UNL     1     -14.177  58.600  50.956  0.00  0.00    +0.000 A 
ATOM     13  C   UNL     1     -12.427  56.831  49.486  0.00  0.00    +0.000 C 
ATOM     14  C   UNL     1     -13.933  57.293  51.354  0.00  0.00    +0.000 A 
ATOM     15  C   UNL     1     -14.921  59.490  51.733  0.00  0.00    +0.000 A 
ATOM     16  N   UNL     1     -13.166  56.437  50.574  0.00  0.00    +0.000 N 
ATOM     17  C   UNL     1     -14.466  56.865  52.572  0.00  0.00    +0.000 A 
ATOM     18  C   UNL     1     -15.440  59.050  52.948  0.00  0.00    +0.000 A 
ATOM     19  C   UNL     1     -15.213  57.739  53.368  0.00  0.00    +0.000 A 
ATOM     20  H   UNL     1     -11.867  58.191  48.157  0.00  0.00    +0.000 HD
ATOM     21  H   UNL     1     -13.150  55.483  50.819  0.00  0.00    +0.000 HD
ENDBRANCH   1  13
BRANCH   7  22
ATOM     22  C   UNL     1     -10.803  53.162  46.703  0.00  0.00    +0.000 C 
ATOM     23  C   UNL     1     -10.922  53.320  45.182  0.00  0.00    +0.000 C 
ATOM     24  C   UNL     1     -12.140  52.666  47.266  0.00  0.00    +0.000 C 
ENDBRANCH   7  22
BRANCH   5  25
ATOM     25  C   UNL     1      -8.829  53.298  49.180  0.00  0.00    +0.000 C 
BRANCH  25  26
ATOM     26  C   UNL     1      -7.414  53.865  49.151  0.00  0.00    +0.000 C 
BRANCH  26  27
ATOM     27  C   UNL     1      -6.984  54.458  50.504  0.00  0.00    +0.000 C 
ATOM     28  C   UNL     1      -5.660  53.872  50.998  0.00  0.00    +0.000 C 
ATOM     29  C   UNL     1      -6.866  55.979  50.383  0.00  0.00    +0.000 C 
ENDBRANCH  26  27
ENDBRANCH  25  26
ENDBRANCH   5  25
TORSDOF 5
ENDMDL
MODEL 7
REMARK VINA RESULT:      -6.8      3.551      6.532
REMARK  Name = 
REMARK  9 active torsions:
REMARK  status: ('A' for Active; 'I' for Inactive)
REMARK    1  A    between atoms: C_6  and  C_10
REMARK    2  A    between atoms: N_17  and  C_20
REMARK    3  A    between atoms: C_19  and  C_21
REMARK    4  A    between atoms: C_20  and  C_22
REMARK    5  A    between atoms: C_21  and  C_23
REMARK    6  A    between atoms: C_21  and  C_24
REMARK    7  A    between atoms: C_22  and  C_25
REMARK    8  A    between atoms: C_25  and  C_26
REMARK    9  A    between atoms: C_25  and  C_27
REMARK                            x       y       z     vdW  Elec       q    Type
REMARK                         _______ _______ _______ _____ _____    ______ ____
ROOT
ATOM      1  C   UNL     1     -10.784  54.063  50.248  0.00  0.00    +0.000 C 
ATOM      2  C   UNL     1     -11.785  55.108  50.499  0.00  0.00    +0.000 C 
ATOM      3  C   UNL     1     -11.011  53.612  49.010  0.00  0.00    +0.000 C 
ATOM      4  O   UNL     1     -11.882  55.711  51.556  0.00  0.00    +0.000 OA
ATOM      5  N   UNL     1     -12.550  55.239  49.360  0.00  0.00    +0.000 N 
ATOM      6  O   UNL     1     -10.343  52.587  48.388  0.00  0.00    +0.000 OA
ATOM      7  C   UNL     1     -12.124  54.333  48.295  0.00  0.00    +0.000 C 
ENDROOT
BRANCH   1  13
ATOM      8  S   UNL     1      -8.681  51.749  52.552  0.00  0.00    +0.000 S 
ATOM      9  O   UNL     1      -7.717  51.010  51.758  0.00  0.00    +0.000 OA
ATOM     10  O   UNL     1      -9.386  51.096  53.639  0.00  0.00    +0.000 OA
ATOM     11  N   UNL     1      -9.793  52.367  51.553  0.00  0.00    +0.000 N 
ATOM     12  C   UNL     1      -7.797  53.085  53.274  0.00  0.00    +0.000 A 
ATOM     13  C   UNL     1      -9.758  53.623  51.221  0.00  0.00    +0.000 C 
ATOM     14  C   UNL     1      -7.986  54.351  52.739  0.00  0.00    +0.000 A 
ATOM     15  C   UNL     1      -6.939  52.851  54.351  0.00  0.00    +0.000 A 
ATOM     16  N   UNL     1      -8.866  54.560  51.685  0.00  0.00    +0.000 N 
ATOM     17  C   UNL     1      -7.279  55.416  53.300  0.00  0.00    +0.000 A 
ATOM     18  C   UNL     1      -6.247  53.925  54.905  0.00  0.00    +0.000 A 
ATOM     19  C   UNL     1      -6.416  55.207  54.380  0.00  0.00    +0.000 A 
ATOM     20  H   UNL     1     -10.503  51.787  51.194  0.00  0.00    +0.000 HD
ATOM     21  H   UNL     1      -8.851  55.438  51.241  0.00  0.00    +0.000 HD
ENDBRANCH   1  13
BRANCH   7  22
ATOM     22  C   UNL     1     -11.716  55.050  46.982  0.00  0.00    +0.000 C 
ATOM     23  C   UNL     1     -11.859  54.138  45.756  0.00  0.00    +0.000 C 
ATOM     24  C   UNL     1     -10.300  55.635  47.016  0.00  0.00    +0.000 C 
ENDBRANCH   7  22
BRANCH   5  25
ATOM     25  C   UNL     1     -13.612  56.219  49.238  0.00  0.00    +0.000 C 
BRANCH  25  26
ATOM     26  C   UNL     1     -13.100  57.654  49.189  0.00  0.00    +0.000 C 
BRANCH  26  27
ATOM     27  C   UNL     1     -13.789  58.566  50.219  0.00  0.00    +0.000 C 
ATOM     28  C   UNL     1     -14.119  59.944  49.641  0.00  0.00    +0.000 C 
ATOM     29  C   UNL     1     -15.067  57.894  50.724  0.00  0.00    +0.000 C 
ENDBRANCH  26  27
ENDBRANCH  25  26
ENDBRANCH   5  25
TORSDOF 5
ENDMDL
MODEL 8
REMARK VINA RESULT:      -6.7      3.789      6.233
REMARK  Name = 
REMARK  9 active torsions:
REMARK  status: ('A' for Active; 'I' for Inactive)
REMARK    1  A    between atoms: C_6  and  C_10
REMARK    2  A    between atoms: N_17  and  C_20
REMARK    3  A    between atoms: C_19  and  C_21
REMARK    4  A    between atoms: C_20  and  C_22
REMARK    5  A    between atoms: C_21  and  C_23
REMARK    6  A    between atoms: C_21  and  C_24
REMARK    7  A    between atoms: C_22  and  C_25
REMARK    8  A    between atoms: C_25  and  C_26
REMARK    9  A    between atoms: C_25  and  C_27
REMARK                            x       y       z     vdW  Elec       q    Type
REMARK                         _______ _______ _______ _____ _____    ______ ____
ROOT
ATOM      1  C   UNL     1      -9.147  54.271  49.813  0.00  0.00    +0.000 C 
ATOM      2  C   UNL     1     -10.245  55.070  50.373  0.00  0.00    +0.000 C 
ATOM      3  C   UNL     1      -9.673  53.558  48.811  0.00  0.00    +0.000 C 
ATOM      4  O   UNL     1     -10.116  55.817  51.332  0.00  0.00    +0.000 OA
ATOM      5  N   UNL     1     -11.379  54.801  49.638  0.00  0.00    +0.000 N 
ATOM      6  O   UNL     1      -9.012  52.629  48.047  0.00  0.00    +0.000 OA
ATOM      7  C   UNL     1     -11.130  53.844  48.561  0.00  0.00    +0.000 C 
ENDROOT
BRANCH   1  13
ATOM      8  S   UNL     1      -5.292  53.811  49.908  0.00  0.00    +0.000 S 
ATOM      9  O   UNL     1      -4.650  54.892  49.184  0.00  0.00    +0.000 OA
ATOM     10  O   UNL     1      -4.794  52.454  49.787  0.00  0.00    +0.000 OA
ATOM     11  N   UNL     1      -6.858  53.791  49.506  0.00  0.00    +0.000 N 
ATOM     12  C   UNL     1      -5.172  54.226  51.611  0.00  0.00    +0.000 A 
ATOM     13  C   UNL     1      -7.753  54.279  50.313  0.00  0.00    +0.000 C 
ATOM     14  C   UNL     1      -6.315  54.690  52.246  0.00  0.00    +0.000 A 
ATOM     15  C   UNL     1      -3.954  54.084  52.279  0.00  0.00    +0.000 A 
ATOM     16  N   UNL     1      -7.522  54.795  51.565  0.00  0.00    +0.000 N 
ATOM     17  C   UNL     1      -6.226  55.032  53.597  0.00  0.00    +0.000 A 
ATOM     18  C   UNL     1      -3.883  54.422  53.628  0.00  0.00    +0.000 A 
ATOM     19  C   UNL     1      -5.018  54.896  54.287  0.00  0.00    +0.000 A 
ATOM     20  H   UNL     1      -7.137  53.405  48.644  0.00  0.00    +0.000 HD
ATOM     21  H   UNL     1      -8.260  55.271  52.009  0.00  0.00    +0.000 HD
ENDBRANCH   1  13
BRANCH   7  22
ATOM     22  C   UNL     1     -11.470  54.385  47.147  0.00  0.00    +0.000 C 
ATOM     23  C   UNL     1     -11.632  53.257  46.120  0.00  0.00    +0.000 C 
ATOM     24  C   UNL     1     -10.456  55.407  46.622  0.00  0.00    +0.000 C 
ENDBRANCH   7  22
BRANCH   5  25
ATOM     25  C   UNL     1     -12.649  55.455  49.889  0.00  0.00    +0.000 C 
BRANCH  25  26
ATOM     26  C   UNL     1     -12.604  56.959  49.647  0.00  0.00    +0.000 C 
BRANCH  26  27
ATOM     27  C   UNL     1     -13.900  57.498  49.017  0.00  0.00    +0.000 C 
ATOM     28  C   UNL     1     -14.078  58.999  49.253  0.00  0.00    +0.000 C 
ATOM     29  C   UNL     1     -13.900  57.205  47.515  0.00  0.00    +0.000 C 
ENDBRANCH  26  27
ENDBRANCH  25  26
ENDBRANCH   5  25
TORSDOF 5
ENDMDL
MODEL 9
REMARK VINA RESULT:      -6.7      2.926      7.669
REMARK  Name = 
REMARK  9 active torsions:
REMARK  status: ('A' for Active; 'I' for Inactive)
REMARK    1  A    between atoms: C_6  and  C_10
REMARK    2  A    between atoms: N_17  and  C_20
REMARK    3  A    between atoms: C_19  and  C_21
REMARK    4  A    between atoms: C_20  and  C_22
REMARK    5  A    between atoms: C_21  and  C_23
REMARK    6  A    between atoms: C_21  and  C_24
REMARK    7  A    between atoms: C_22  and  C_25
REMARK    8  A    between atoms: C_25  and  C_26
REMARK    9  A    between atoms: C_25  and  C_27
REMARK                            x       y       z     vdW  Elec       q    Type
REMARK                         _______ _______ _______ _____ _____    ______ ____
ROOT
ATOM      1  C   UNL     1     -10.919  54.983  50.641  0.00  0.00    +0.000 C 
ATOM      2  C   UNL     1     -10.428  54.228  49.481  0.00  0.00    +0.000 C 
ATOM      3  C   UNL     1     -10.146  54.632  51.675  0.00  0.00    +0.000 C 
ATOM      4  O   UNL     1     -10.935  54.289  48.371  0.00  0.00    +0.000 OA
ATOM      5  N   UNL     1      -9.351  53.476  49.894  0.00  0.00    +0.000 N 
ATOM      6  O   UNL     1     -10.291  55.054  52.972  0.00  0.00    +0.000 OA
ATOM      7  C   UNL     1      -9.043  53.674  51.310  0.00  0.00    +0.000 C 
ENDROOT
BRANCH   1  13
ATOM      8  S   UNL     1     -13.619  57.426  49.289  0.00  0.00    +0.000 S 
ATOM      9  O   UNL     1     -14.695  56.675  48.669  0.00  0.00    +0.000 OA
ATOM     10  O   UNL     1     -13.142  58.654  48.683  0.00  0.00    +0.000 OA
ATOM     11  N   UNL     1     -12.346  56.442  49.459  0.00  0.00    +0.000 N 
ATOM     12  C   UNL     1     -14.190  57.860  50.893  0.00  0.00    +0.000 A 
ATOM     13  C   UNL     1     -12.064  55.922  50.617  0.00  0.00    +0.000 C 
ATOM     14  C   UNL     1     -13.678  57.157  51.974  0.00  0.00    +0.000 A 
ATOM     15  C   UNL     1     -15.127  58.884  51.045  0.00  0.00    +0.000 A 
ATOM     16  N   UNL     1     -12.725  56.162  51.797  0.00  0.00    +0.000 N 
ATOM     17  C   UNL     1     -14.134  57.490  53.251  0.00  0.00    +0.000 A 
ATOM     18  C   UNL     1     -15.567  59.209  52.325  0.00  0.00    +0.000 A 
ATOM     19  C   UNL     1     -15.071  58.512  53.428  0.00  0.00    +0.000 A 
ATOM     20  H   UNL     1     -11.780  56.236  48.680  0.00  0.00    +0.000 HD
ATOM     21  H   UNL     1     -12.509  55.590  52.568  0.00  0.00    +0.000 HD
ENDBRANCH   1  13
BRANCH   7  22
ATOM     22  C   UNL     1      -7.603  54.184  51.576  0.00  0.00    +0.000 C 
ATOM     23  C   UNL     1      -7.138  53.883  53.007  0.00  0.00    +0.000 C 
ATOM     24  C   UNL     1      -7.418  55.678  51.287  0.00  0.00    +0.000 C 
ENDBRANCH   7  22
BRANCH   5  25
ATOM     25  C   UNL     1      -8.587  52.638  48.990  0.00  0.00    +0.000 C 
BRANCH  25  26
ATOM     26  C   UNL     1      -7.535  53.410  48.203  0.00  0.00    +0.000 C 
BRANCH  26  27
ATOM     27  C   UNL     1      -7.790  53.386  46.686  0.00  0.00    +0.000 C 
ATOM     28  C   UNL     1      -8.842  52.347  46.293  0.00  0.00    +0.000 C 
ATOM     29  C   UNL     1      -8.231  54.774  46.218  0.00  0.00    +0.000 C 
ENDBRANCH  26  27
ENDBRANCH  25  26
ENDBRANCH   5  25
TORSDOF 5
ENDMDL
