MODEL 1
REMARK VINA RESULT:      -8.0      0.000      0.000
REMARK  Name = 
REMARK  10 active torsions:
REMARK  status: ('A' for Active; 'I' for Inactive)
REMARK    1  A    between atoms: C_6  and  C_10
REMARK    2  A    between atoms: N_17  and  C_20
REMARK    3  A    between atoms: C_19  and  C_21
REMARK    4  A    between atoms: C_20  and  C_22
REMARK    5  A    between atoms: C_21  and  C_23
REMARK    6  A    between atoms: C_21  and  C_24
REMARK    7  A    between atoms: C_21  and  C_25
REMARK    8  A    between atoms: C_22  and  C_26
REMARK    9  A    between atoms: C_26  and  C_27
REMARK   10  A    between atoms: C_26  and  C_28
REMARK                            x       y       z     vdW  Elec       q    Type
REMARK                         _______ _______ _______ _____ _____    ______ ____
ROOT
ATOM      1  C   UNL     1     -10.807  55.316  47.835  0.00  0.00    +0.000 C 
ATOM      2  C   UNL     1     -12.180  55.806  47.690  0.00  0.00    +0.000 C 
ATOM      3  C   UNL     1     -10.432  55.629  49.082  0.00  0.00    +0.000 C 
ATOM      4  O   UNL     1     -12.806  55.743  46.643  0.00  0.00    +0.000 OA
ATOM      5  N   UNL     1     -12.582  56.333  48.900  0.00  0.00    +0.000 N 
ATOM      6  O   UNL     1      -9.187  55.398  49.614  0.00  0.00    +0.000 OA
ATOM      7  C   UNL     1     -11.525  56.272  49.926  0.00  0.00    +0.000 C 
ENDROOT
BRANCH   1  13
ATOM      8  S   UNL     1      -7.895  54.328  45.450  0.00  0.00    +0.000 S 
ATOM      9  O   UNL     1      -6.948  53.524  46.191  0.00  0.00    +0.000 OA
ATOM     10  O   UNL     1      -7.427  55.325  44.503  0.00  0.00    +0.000 OA
ATOM     11  N   UNL     1      -8.856  55.081  46.516  0.00  0.00    +0.000 N 
ATOM     12  C   UNL     1      -8.879  53.205  44.526  0.00  0.00    +0.000 A 
ATOM     13  C   UNL     1     -10.046  54.621  46.762  0.00  0.00    +0.000 C 
ATOM     14  C   UNL     1     -10.159  52.938  44.988  0.00  0.00    +0.000 A 
ATOM     15  C   UNL     1      -8.366  52.616  43.370  0.00  0.00    +0.000 A 
ATOM     16  N   UNL     1     -10.650  53.557  46.132  0.00  0.00    +0.000 N 
ATOM     17  C   UNL     1     -10.952  52.055  44.255  0.00  0.00    +0.000 A 
ATOM     18  C   UNL     1      -9.163  51.731  42.651  0.00  0.00    +0.000 A 
ATOM     19  C   UNL     1     -10.455  51.446  43.093  0.00  0.00    +0.000 A 
ATOM     20  H   UNL     1      -8.537  55.889  46.977  0.00  0.00    +0.000 HD
ATOM     21  H   UNL     1     -11.486  53.210  46.518  0.00  0.00    +0.000 HD
ENDBRANCH   1  13
BRANCH   7  22
ATOM     22  C   UNL     1     -11.875  55.496  51.257  0.00  0.00    +0.000 C 
ATOM     23  C   UNL     1     -10.627  55.324  52.162  0.00  0.00    +0.000 C 
ATOM     24  C   UNL     1     -12.887  56.267  52.132  0.00  0.00    +0.000 C 
ATOM     25  C   UNL     1     -12.440  54.094  50.969  0.00  0.00    +0.000 C 
ENDBRANCH   7  22
BRANCH   5  26
ATOM     26  C   UNL     1     -13.902  56.926  49.042  0.00  0.00    +0.000 C 
BRANCH  26  27
ATOM     27  C   UNL     1     -13.941  58.425  48.766  0.00  0.00    +0.000 C 
BRANCH  27  28
ATOM     28  C   UNL     1     -13.721  59.279  50.028  0.00  0.00    +0.000 C 
ATOM     29  C   UNL     1     -13.152  60.667  49.715  0.00  0.00    +0.000 C 
ATOM     30  C   UNL     1     -15.047  59.425  50.777  0.00  0.00    +0.000 C 
ENDBRANCH  27  28
ENDBRANCH  26  27
ENDBRANCH   5  26
TORSDOF 5
ENDMDL
MODEL 2
REMARK VINA RESULT:      -7.5      3.638      6.027
REMARK  Name = 
REMARK  10 active torsions:
REMARK  status: ('A' for Active; 'I' for Inactive)
REMARK    1  A    between atoms: C_6  and  C_10
REMARK    2  A    between atoms: N_17  and  C_20
REMARK    3  A    between atoms: C_19  and  C_21
REMARK    4  A    between atoms: C_20  and  C_22
REMARK    5  A    between atoms: C_21  and  C_23
REMARK    6  A    between atoms: C_21  and  C_24
REMARK    7  A    between atoms: C_21  and  C_25
REMARK    8  A    between atoms: C_22  and  C_26
REMARK    9  A    between atoms: C_26  and  C_27
REMARK   10  A    between atoms: C_26  and  C_28
REMARK                            x       y       z     vdW  Elec       q    Type
REMARK                         _______ _______ _______ _____ _____    ______ ____
ROOT
ATOM      1  C   UNL     1     -10.242  55.067  50.595  0.00  0.00    +0.000 C 
ATOM      2  C   UNL     1     -11.267  55.331  51.608  0.00  0.00    +0.000 C 
ATOM      3  C   UNL     1     -10.887  55.010  49.423  0.00  0.00    +0.000 C 
ATOM      4  O   UNL     1     -11.028  55.378  52.805  0.00  0.00    +0.000 OA
ATOM      5  N   UNL     1     -12.478  55.489  50.968  0.00  0.00    +0.000 N 
ATOM      6  O   UNL     1     -10.303  54.723  48.213  0.00  0.00    +0.000 OA
ATOM      7  C   UNL     1     -12.377  55.315  49.508  0.00  0.00    +0.000 C 
ENDROOT
BRANCH   1  13
ATOM      8  S   UNL     1      -6.467  54.255  50.113  0.00  0.00    +0.000 S 
ATOM      9  O   UNL     1      -5.857  55.333  49.365  0.00  0.00    +0.000 OA
ATOM     10  O   UNL     1      -6.100  52.876  49.841  0.00  0.00    +0.000 OA
ATOM     11  N   UNL     1      -8.074  54.374  49.946  0.00  0.00    +0.000 N 
ATOM     12  C   UNL     1      -6.071  54.539  51.801  0.00  0.00    +0.000 A 
ATOM     13  C   UNL     1      -8.793  54.902  50.890  0.00  0.00    +0.000 C 
ATOM     14  C   UNL     1      -7.065  55.058  52.616  0.00  0.00    +0.000 A 
ATOM     15  C   UNL     1      -4.794  54.243  52.277  0.00  0.00    +0.000 A 
ATOM     16  N   UNL     1      -8.335  55.324  52.117  0.00  0.00    +0.000 N 
ATOM     17  C   UNL     1      -6.764  55.279  53.961  0.00  0.00    +0.000 A 
ATOM     18  C   UNL     1      -4.502  54.474  53.618  0.00  0.00    +0.000 A 
ATOM     19  C   UNL     1      -5.484  54.994  54.461  0.00  0.00    +0.000 A 
ATOM     20  H   UNL     1      -8.507  54.043  49.125  0.00  0.00    +0.000 HD
ATOM     21  H   UNL     1      -8.949  55.849  52.679  0.00  0.00    +0.000 HD
ENDBRANCH   1  13
BRANCH   7  22
ATOM     22  C   UNL     1     -12.854  56.528  48.614  0.00  0.00    +0.000 C 
ATOM     23  C   UNL     1     -12.453  56.337  47.129  0.00  0.00    +0.000 C 
ATOM     24  C   UNL     1     -14.393  56.662  48.588  0.00  0.00    +0.000 C 
ATOM     25  C   UNL     1     -12.252  57.862  49.093  0.00  0.00    +0.000 C 
ENDBRANCH   7  22
BRANCH   5  26
ATOM     26  C   UNL     1     -13.690  55.734  51.734  0.00  0.00    +0.000 C 
BRANCH  26  27
ATOM     27  C   UNL     1     -13.710  57.082  52.447  0.00  0.00    +0.000 C 
BRANCH  27  28
ATOM     28  C   UNL     1     -15.057  57.815  52.317  0.00  0.00    +0.000 C 
ATOM     29  C   UNL     1     -14.962  59.084  51.463  0.00  0.00    +0.000 C 
ATOM     30  C   UNL     1     -16.093  56.866  51.713  0.00  0.00    +0.000 C 
ENDBRANCH  27  28
ENDBRANCH  26  27
ENDBRANCH   5  26
TORSDOF 5
ENDMDL
MODEL 3
REMARK VINA RESULT:      -7.3      3.046      7.878
REMARK  Name = 
REMARK  10 active torsions:
REMARK  status: ('A' for Active; 'I' for Inactive)
REMARK    1  A    between atoms: C_6  and  C_10
REMARK    2  A    between atoms: N_17  and  C_20
REMARK    3  A    between atoms: C_19  and  C_21
REMARK    4  A    between atoms: C_20  and  C_22
REMARK    5  A    between atoms: C_21  and  C_23
REMARK    6  A    between atoms: C_21  and  C_24
REMARK    7  A    between atoms: C_21  and  C_25
REMARK    8  A    between atoms: C_22  and  C_26
REMARK    9  A    between atoms: C_26  and  C_27
REMARK   10  A    between atoms: C_26  and  C_28
REMARK                            x       y       z     vdW  Elec       q    Type
REMARK                         _______ _______ _______ _____ _____    ______ ____
ROOT
ATOM      1  C   UNL     1     -11.419  55.977  48.882  0.00  0.00    +0.000 C 
ATOM      2  C   UNL     1     -10.392  55.249  49.631  0.00  0.00    +0.000 C 
ATOM      3  C   UNL     1     -11.287  55.594  47.606  0.00  0.00    +0.000 C 
ATOM      4  O   UNL     1     -10.190  55.416  50.825  0.00  0.00    +0.000 OA
ATOM      5  N   UNL     1      -9.737  54.405  48.760  0.00  0.00    +0.000 N 
ATOM      6  O   UNL     1     -12.023  56.084  46.554  0.00  0.00    +0.000 OA
ATOM      7  C   UNL     1     -10.235  54.517  47.377  0.00  0.00    +0.000 C 
ENDROOT
BRANCH   1  13
ATOM      8  S   UNL     1     -13.521  59.203  49.450  0.00  0.00    +0.000 S 
ATOM      9  O   UNL     1     -14.619  59.207  48.508  0.00  0.00    +0.000 OA
ATOM     10  O   UNL     1     -12.807  60.433  49.749  0.00  0.00    +0.000 OA
ATOM     11  N   UNL     1     -12.430  58.117  48.945  0.00  0.00    +0.000 N 
ATOM     12  C   UNL     1     -14.183  58.642  50.977  0.00  0.00    +0.000 A 
ATOM     13  C   UNL     1     -12.378  56.939  49.490  0.00  0.00    +0.000 C 
ATOM     14  C   UNL     1     -13.914  57.336  51.354  0.00  0.00    +0.000 A 
ATOM     15  C   UNL     1     -14.948  59.503  51.763  0.00  0.00    +0.000 A 
ATOM     16  N   UNL     1     -13.130  56.507  50.559  0.00  0.00    +0.000 N 
ATOM     17  C   UNL     1     -14.427  56.883  52.571  0.00  0.00    +0.000 A 
ATOM     18  C   UNL     1     -15.461  59.040  52.971  0.00  0.00    +0.000 A 
ATOM     19  C   UNL     1     -15.205  57.729  53.376  0.00  0.00    +0.000 A 
ATOM     20  H   UNL     1     -11.804  58.351  48.222  0.00  0.00    +0.000 HD
ATOM     21  H   UNL     1     -13.111  55.547  50.775  0.00  0.00    +0.000 HD
ENDBRANCH   1  13
BRANCH   7  22
ATOM     22  C   UNL     1     -10.780  53.192  46.711  0.00  0.00    +0.000 C 
ATOM     23  C   UNL     1     -11.350  53.457  45.293  0.00  0.00    +0.000 C 
ATOM     24  C   UNL     1      -9.664  52.147  46.493  0.00  0.00    +0.000 C 
ATOM     25  C   UNL     1     -11.899  52.549  47.551  0.00  0.00    +0.000 C 
ENDBRANCH   7  22
BRANCH   5  26
ATOM     26  C   UNL     1      -8.638  53.574  49.225  0.00  0.00    +0.000 C 
BRANCH  26  27
ATOM     27  C   UNL     1      -7.272  54.002  48.700  0.00  0.00    +0.000 C 
BRANCH  27  28
ATOM     28  C   UNL     1      -6.564  55.021  49.612  0.00  0.00    +0.000 C 
ATOM     29  C   UNL     1      -6.809  54.754  51.101  0.00  0.00    +0.000 C 
ATOM     30  C   UNL     1      -5.061  54.997  49.327  0.00  0.00    +0.000 C 
ENDBRANCH  27  28
ENDBRANCH  26  27
ENDBRANCH   5  26
TORSDOF 5
ENDMDL
MODEL 4
REMARK VINA RESULT:      -7.3      2.795      7.620
REMARK  Name = 
REMARK  10 active torsions:
REMARK  status: ('A' for Active; 'I' for Inactive)
REMARK    1  A    between atoms: C_6  and  C_10
REMARK    2  A    between atoms: N_17  and  C_20
REMARK    3  A    between atoms: C_19  and  C_21
REMARK    4  A    between atoms: C_20  and  C_22
REMARK    5  A    between atoms: C_21  and  C_23
REMARK    6  A    between atoms: C_21  and  C_24
REMARK    7  A    between atoms: C_21  and  C_25
REMARK    8  A    between atoms: C_22  and  C_26
REMARK    9  A    between atoms: C_26  and  C_27
REMARK   10  A    between atoms: C_26  and  C_28
REMARK                            x       y       z     vdW  Elec       q    Type
REMARK                         _______ _______ _______ _____ _____    ______ ____
ROOT
ATOM      1  C   UNL     1     -11.739  55.607  48.758  0.00  0.00    +0.000 C 
ATOM      2  C   UNL     1     -11.584  55.431  47.312  0.00  0.00    +0.000 C 
ATOM      3  C   UNL     1     -10.990  54.656  49.329  0.00  0.00    +0.000 C 
ATOM      4  O   UNL     1     -12.191  56.098  46.487  0.00  0.00    +0.000 OA
ATOM      5  N   UNL     1     -10.681  54.411  47.094  0.00  0.00    +0.000 N 
ATOM      6  O   UNL     1     -10.897  54.430  50.681  0.00  0.00    +0.000 OA
ATOM      7  C   UNL     1     -10.191  53.809  48.347  0.00  0.00    +0.000 C 
ENDROOT
BRANCH   1  13
ATOM      8  S   UNL     1     -13.488  59.027  49.386  0.00  0.00    +0.000 S 
ATOM      9  O   UNL     1     -14.594  59.153  48.462  0.00  0.00    +0.000 OA
ATOM     10  O   UNL     1     -12.646  60.173  49.684  0.00  0.00    +0.000 OA
ATOM     11  N   UNL     1     -12.523  57.839  48.854  0.00  0.00    +0.000 N 
ATOM     12  C   UNL     1     -14.181  58.522  50.919  0.00  0.00    +0.000 A 
ATOM     13  C   UNL     1     -12.585  56.656  49.389  0.00  0.00    +0.000 C 
ATOM     14  C   UNL     1     -14.043  57.191  51.281  0.00  0.00    +0.000 A 
ATOM     15  C   UNL     1     -14.842  59.450  51.725  0.00  0.00    +0.000 A 
ATOM     16  N   UNL     1     -13.361  56.294  50.466  0.00  0.00    +0.000 N 
ATOM     17  C   UNL     1     -14.581  56.781  52.502  0.00  0.00    +0.000 A 
ATOM     18  C   UNL     1     -15.381  59.029  52.937  0.00  0.00    +0.000 A 
ATOM     19  C   UNL     1     -15.256  57.695  53.326  0.00  0.00    +0.000 A 
ATOM     20  H   UNL     1     -11.886  58.015  48.124  0.00  0.00    +0.000 HD
ATOM     21  H   UNL     1     -13.438  55.335  50.674  0.00  0.00    +0.000 HD
ENDBRANCH   1  13
BRANCH   7  22
ATOM     22  C   UNL     1      -8.628  53.828  48.579  0.00  0.00    +0.000 C 
ATOM     23  C   UNL     1      -7.883  52.976  47.519  0.00  0.00    +0.000 C 
ATOM     24  C   UNL     1      -8.033  55.245  48.427  0.00  0.00    +0.000 C 
ATOM     25  C   UNL     1      -8.250  53.281  49.968  0.00  0.00    +0.000 C 
ENDBRANCH   7  22
BRANCH   5  26
ATOM     26  C   UNL     1     -10.353  53.994  45.741  0.00  0.00    +0.000 C 
BRANCH  26  27
ATOM     27  C   UNL     1     -11.524  53.377  44.982  0.00  0.00    +0.000 C 
BRANCH  27  28
ATOM     28  C   UNL     1     -11.618  51.850  45.151  0.00  0.00    +0.000 C 
ATOM     29  C   UNL     1     -10.249  51.190  45.354  0.00  0.00    +0.000 C 
ATOM     30  C   UNL     1     -12.525  51.527  46.340  0.00  0.00    +0.000 C 
ENDBRANCH  27  28
ENDBRANCH  26  27
ENDBRANCH   5  26
TORSDOF 5
ENDMDL
MODEL 5
REMARK VINA RESULT:      -7.2      3.287      7.626
REMARK  Name = 
REMARK  10 active torsions:
REMARK  status: ('A' for Active; 'I' for Inactive)
REMARK    1  A    between atoms: C_6  and  C_10
REMARK    2  A    between atoms: N_17  and  C_20
REMARK    3  A    between atoms: C_19  and  C_21
REMARK    4  A    between atoms: C_20  and  C_22
REMARK    5  A    between atoms: C_21  and  C_23
REMARK    6  A    between atoms: C_21  and  C_24
REMARK    7  A    between atoms: C_21  and  C_25
REMARK    8  A    between atoms: C_22  and  C_26
REMARK    9  A    between atoms: C_26  and  C_27
REMARK   10  A    between atoms: C_26  and  C_28
REMARK                            x       y       z     vdW  Elec       q    Type
REMARK                         _______ _______ _______ _____ _____    ______ ____
ROOT
ATOM      1  C   UNL     1     -12.435  54.351  49.912  0.00  0.00    +0.000 C 
ATOM      2  C   UNL     1     -12.075  54.099  48.514  0.00  0.00    +0.000 C 
ATOM      3  C   UNL     1     -12.064  53.259  50.592  0.00  0.00    +0.000 C 
ATOM      4  O   UNL     1     -12.337  54.873  47.606  0.00  0.00    +0.000 OA
ATOM      5  N   UNL     1     -11.435  52.879  48.446  0.00  0.00    +0.000 N 
ATOM      6  O   UNL     1     -12.274  53.057  51.935  0.00  0.00    +0.000 OA
ATOM      7  C   UNL     1     -11.343  52.210  49.756  0.00  0.00    +0.000 C 
ENDROOT
BRANCH   1  13
ATOM      8  S   UNL     1     -14.381  56.823  52.204  0.00  0.00    +0.000 S 
ATOM      9  O   UNL     1     -13.496  57.261  53.261  0.00  0.00    +0.000 OA
ATOM     10  O   UNL     1     -15.775  56.528  52.489  0.00  0.00    +0.000 OA
ATOM     11  N   UNL     1     -13.733  55.503  51.522  0.00  0.00    +0.000 N 
ATOM     12  C   UNL     1     -14.392  58.107  51.006  0.00  0.00    +0.000 A 
ATOM     13  C   UNL     1     -13.087  55.597  50.399  0.00  0.00    +0.000 C 
ATOM     14  C   UNL     1     -13.654  57.914  49.848  0.00  0.00    +0.000 A 
ATOM     15  C   UNL     1     -15.127  59.270  51.237  0.00  0.00    +0.000 A 
ATOM     16  N   UNL     1     -12.947  56.735  49.638  0.00  0.00    +0.000 N 
ATOM     17  C   UNL     1     -13.664  58.924  48.885  0.00  0.00    +0.000 A 
ATOM     18  C   UNL     1     -15.124  60.274  50.273  0.00  0.00    +0.000 A 
ATOM     19  C   UNL     1     -14.391  60.105  49.099  0.00  0.00    +0.000 A 
ATOM     20  H   UNL     1     -13.831  54.627  51.960  0.00  0.00    +0.000 HD
ATOM     21  H   UNL     1     -12.304  56.713  48.893  0.00  0.00    +0.000 HD
ENDBRANCH   1  13
BRANCH   7  22
ATOM     22  C   UNL     1      -9.893  51.842  50.264  0.00  0.00    +0.000 C 
ATOM     23  C   UNL     1      -9.230  50.764  49.369  0.00  0.00    +0.000 C 
ATOM     24  C   UNL     1      -8.930  53.048  50.200  0.00  0.00    +0.000 C 
ATOM     25  C   UNL     1      -9.914  51.305  51.707  0.00  0.00    +0.000 C 
ENDBRANCH   7  22
BRANCH   5  26
ATOM     26  C   UNL     1     -10.988  52.353  47.166  0.00  0.00    +0.000 C 
BRANCH  26  27
ATOM     27  C   UNL     1      -9.752  53.050  46.607  0.00  0.00    +0.000 C 
BRANCH  27  28
ATOM     28  C   UNL     1      -9.973  53.640  45.203  0.00  0.00    +0.000 C 
ATOM     29  C   UNL     1      -8.881  53.230  44.208  0.00  0.00    +0.000 C 
ATOM     30  C   UNL     1     -11.339  53.197  44.677  0.00  0.00    +0.000 C 
ENDBRANCH  27  28
ENDBRANCH  26  27
ENDBRANCH   5  26
TORSDOF 5
ENDMDL
MODEL 6
REMARK VINA RESULT:      -7.1      4.131      7.938
REMARK  Name = 
REMARK  10 active torsions:
REMARK  status: ('A' for Active; 'I' for Inactive)
REMARK    1  A    between atoms: C_6  and  C_10
REMARK    2  A    between atoms: N_17  and  C_20
REMARK    3  A    between atoms: C_19  and  C_21
REMARK    4  A    between atoms: C_20  and  C_22
REMARK    5  A    between atoms: C_21  and  C_23
REMARK    6  A    between atoms: C_21  and  C_24
REMARK    7  A    between atoms: C_21  and  C_25
REMARK    8  A    between atoms: C_22  and  C_26
REMARK    9  A    between atoms: C_26  and  C_27
REMARK   10  A    between atoms: C_26  and  C_28
REMARK                            x       y       z     vdW  Elec       q    Type
REMARK                         _______ _______ _______ _____ _____    ______ ____
ROOT
ATOM      1  C   UNL     1     -10.891  54.916  50.639  0.00  0.00    +0.000 C 
ATOM      2  C   UNL     1      -9.592  55.153  50.004  0.00  0.00    +0.000 C 
ATOM      3  C   UNL     1     -10.805  53.712  51.219  0.00  0.00    +0.000 C 
ATOM      4  O   UNL     1      -9.349  56.139  49.325  0.00  0.00    +0.000 OA
ATOM      5  N   UNL     1      -8.764  54.090  50.303  0.00  0.00    +0.000 N 
ATOM      6  O   UNL     1     -11.830  53.079  51.880  0.00  0.00    +0.000 OA
ATOM      7  C   UNL     1      -9.433  53.059  51.117  0.00  0.00    +0.000 C 
ENDROOT
BRANCH   1  13
ATOM      8  S   UNL     1     -13.598  57.345  49.255  0.00  0.00    +0.000 S 
ATOM      9  O   UNL     1     -14.660  56.559  48.663  0.00  0.00    +0.000 OA
ATOM     10  O   UNL     1     -13.147  58.568  48.614  0.00  0.00    +0.000 OA
ATOM     11  N   UNL     1     -12.306  56.385  49.438  0.00  0.00    +0.000 N 
ATOM     12  C   UNL     1     -14.162  57.812  50.851  0.00  0.00    +0.000 A 
ATOM     13  C   UNL     1     -12.031  55.871  50.599  0.00  0.00    +0.000 C 
ATOM     14  C   UNL     1     -13.647  57.128  51.942  0.00  0.00    +0.000 A 
ATOM     15  C   UNL     1     -15.095  58.839  50.988  0.00  0.00    +0.000 A 
ATOM     16  N   UNL     1     -12.701  56.122  51.775  0.00  0.00    +0.000 N 
ATOM     17  C   UNL     1     -14.080  57.498  53.215  0.00  0.00    +0.000 A 
ATOM     18  C   UNL     1     -15.527  59.195  52.262  0.00  0.00    +0.000 A 
ATOM     19  C   UNL     1     -15.023  58.525  53.377  0.00  0.00    +0.000 A 
ATOM     20  H   UNL     1     -11.726  56.191  48.666  0.00  0.00    +0.000 HD
ATOM     21  H   UNL     1     -12.496  55.552  52.550  0.00  0.00    +0.000 HD
ENDBRANCH   1  13
BRANCH   7  22
ATOM     22  C   UNL     1      -8.764  52.707  52.504  0.00  0.00    +0.000 C 
ATOM     23  C   UNL     1      -9.674  51.791  53.362  0.00  0.00    +0.000 C 
ATOM     24  C   UNL     1      -7.455  51.905  52.333  0.00  0.00    +0.000 C 
ATOM     25  C   UNL     1      -8.462  53.972  53.330  0.00  0.00    +0.000 C 
ENDBRANCH   7  22
BRANCH   5  26
ATOM     26  C   UNL     1      -7.411  54.041  49.775  0.00  0.00    +0.000 C 
BRANCH  26  27
ATOM     27  C   UNL     1      -6.435  54.978  50.481  0.00  0.00    +0.000 C 
BRANCH  27  28
ATOM     28  C   UNL     1      -5.003  54.418  50.552  0.00  0.00    +0.000 C 
ATOM     29  C   UNL     1      -4.532  54.176  51.990  0.00  0.00    +0.000 C 
ATOM     30  C   UNL     1      -4.931  53.111  49.761  0.00  0.00    +0.000 C 
ENDBRANCH  27  28
ENDBRANCH  26  27
ENDBRANCH   5  26
TORSDOF 5
ENDMDL
MODEL 7
REMARK VINA RESULT:      -7.0      2.911      7.677
REMARK  Name = 
REMARK  10 active torsions:
REMARK  status: ('A' for Active; 'I' for Inactive)
REMARK    1  A    between atoms: C_6  and  C_10
REMARK    2  A    between atoms: N_17  and  C_20
REMARK    3  A    between atoms: C_19  and  C_21
REMARK    4  A    between atoms: C_20  and  C_22
REMARK    5  A    between atoms: C_21  and  C_23
REMARK    6  A    between atoms: C_21  and  C_24
REMARK    7  A    between atoms: C_21  and  C_25
REMARK    8  A    between atoms: C_22  and  C_26
REMARK    9  A    between atoms: C_26  and  C_27
REMARK   10  A    between atoms: C_26  and  C_28
REMARK                            x       y       z     vdW  Elec       q    Type
REMARK                         _______ _______ _______ _____ _____    ______ ____
ROOT
ATOM      1  C   UNL     1     -10.850  55.032  50.540  0.00  0.00    +0.000 C 
ATOM      2  C   UNL     1     -10.325  54.356  49.350  0.00  0.00    +0.000 C 
ATOM      3  C   UNL     1     -10.085  54.629  51.562  0.00  0.00    +0.000 C 
ATOM      4  O   UNL     1     -10.839  54.451  48.246  0.00  0.00    +0.000 OA
ATOM      5  N   UNL     1      -9.214  53.628  49.721  0.00  0.00    +0.000 N 
ATOM      6  O   UNL     1     -10.272  54.983  52.876  0.00  0.00    +0.000 OA
ATOM      7  C   UNL     1      -8.926  53.725  51.164  0.00  0.00    +0.000 C 
ENDROOT
BRANCH   1  13
ATOM      8  S   UNL     1     -13.611  57.447  49.239  0.00  0.00    +0.000 S 
ATOM      9  O   UNL     1     -14.658  56.658  48.626  0.00  0.00    +0.000 OA
ATOM     10  O   UNL     1     -13.187  58.698  48.635  0.00  0.00    +0.000 OA
ATOM     11  N   UNL     1     -12.299  56.508  49.388  0.00  0.00    +0.000 N 
ATOM     12  C   UNL     1     -14.178  57.853  50.851  0.00  0.00    +0.000 A 
ATOM     13  C   UNL     1     -12.010  55.964  50.532  0.00  0.00    +0.000 C 
ATOM     14  C   UNL     1     -13.645  57.146  51.918  0.00  0.00    +0.000 A 
ATOM     15  C   UNL     1     -15.133  58.856  51.022  0.00  0.00    +0.000 A 
ATOM     16  N   UNL     1     -12.680  56.166  51.717  0.00  0.00    +0.000 N 
ATOM     17  C   UNL     1     -14.081  57.468  53.204  0.00  0.00    +0.000 A 
ATOM     18  C   UNL     1     -15.566  59.163  52.308  0.00  0.00    +0.000 A 
ATOM     19  C   UNL     1     -15.045  58.469  53.400  0.00  0.00    +0.000 A 
ATOM     20  H   UNL     1     -11.718  56.351  48.609  0.00  0.00    +0.000 HD
ATOM     21  H   UNL     1     -12.461  55.576  52.474  0.00  0.00    +0.000 HD
ENDBRANCH   1  13
BRANCH   7  22
ATOM     22  C   UNL     1      -7.497  54.266  51.566  0.00  0.00    +0.000 C 
ATOM     23  C   UNL     1      -7.379  54.484  53.096  0.00  0.00    +0.000 C 
ATOM     24  C   UNL     1      -6.376  53.259  51.228  0.00  0.00    +0.000 C 
ATOM     25  C   UNL     1      -7.180  55.606  50.877  0.00  0.00    +0.000 C 
ENDBRANCH   7  22
BRANCH   5  26
ATOM     26  C   UNL     1      -8.501  52.824  48.742  0.00  0.00    +0.000 C 
BRANCH  26  27
ATOM     27  C   UNL     1      -7.523  53.618  47.883  0.00  0.00    +0.000 C 
BRANCH  27  28
ATOM     28  C   UNL     1      -7.805  53.496  46.374  0.00  0.00    +0.000 C 
ATOM     29  C   UNL     1      -8.892  52.464  46.055  0.00  0.00    +0.000 C 
ATOM     30  C   UNL     1      -8.218  54.862  45.824  0.00  0.00    +0.000 C 
ENDBRANCH  27  28
ENDBRANCH  26  27
ENDBRANCH   5  26
TORSDOF 5
ENDMDL
MODEL 8
REMARK VINA RESULT:      -7.0      3.005      7.999
REMARK  Name = 
REMARK  10 active torsions:
REMARK  status: ('A' for Active; 'I' for Inactive)
REMARK    1  A    between atoms: C_6  and  C_10
REMARK    2  A    between atoms: N_17  and  C_20
REMARK    3  A    between atoms: C_19  and  C_21
REMARK    4  A    between atoms: C_20  and  C_22
REMARK    5  A    between atoms: C_21  and  C_23
REMARK    6  A    between atoms: C_21  and  C_24
REMARK    7  A    between atoms: C_21  and  C_25
REMARK    8  A    between atoms: C_22  and  C_26
REMARK    9  A    between atoms: C_26  and  C_27
REMARK   10  A    between atoms: C_26  and  C_28
REMARK                            x       y       z     vdW  Elec       q    Type
REMARK                         _______ _______ _______ _____ _____    ______ ____
ROOT
ATOM      1  C   UNL     1     -11.685  54.874  48.605  0.00  0.00    +0.000 C 
ATOM      2  C   UNL     1     -10.866  53.868  49.285  0.00  0.00    +0.000 C 
ATOM      3  C   UNL     1     -11.387  54.775  47.303  0.00  0.00    +0.000 C 
ATOM      4  O   UNL     1     -10.843  53.733  50.499  0.00  0.00    +0.000 OA
ATOM      5  N   UNL     1     -10.162  53.164  48.330  0.00  0.00    +0.000 N 
ATOM      6  O   UNL     1     -11.895  55.581  46.313  0.00  0.00    +0.000 OA
ATOM      7  C   UNL     1     -10.419  53.650  46.962  0.00  0.00    +0.000 C 
ENDROOT
BRANCH   1  13
ATOM      8  S   UNL     1     -14.642  56.117  50.809  0.00  0.00    +0.000 S 
ATOM      9  O   UNL     1     -14.261  55.993  52.199  0.00  0.00    +0.000 OA
ATOM     10  O   UNL     1     -15.991  55.781  50.386  0.00  0.00    +0.000 OA
ATOM     11  N   UNL     1     -13.618  55.224  49.927  0.00  0.00    +0.000 N 
ATOM     12  C   UNL     1     -14.404  57.803  50.381  0.00  0.00    +0.000 A 
ATOM     13  C   UNL     1     -12.634  55.790  49.294  0.00  0.00    +0.000 C 
ATOM     14  C   UNL     1     -13.284  58.126  49.631  0.00  0.00    +0.000 A 
ATOM     15  C   UNL     1     -15.328  58.764  50.793  0.00  0.00    +0.000 A 
ATOM     16  N   UNL     1     -12.392  57.142  49.217  0.00  0.00    +0.000 N 
ATOM     17  C   UNL     1     -13.091  59.462  49.276  0.00  0.00    +0.000 A 
ATOM     18  C   UNL     1     -15.122  60.095  50.440  0.00  0.00    +0.000 A 
ATOM     19  C   UNL     1     -14.003  60.447  49.685  0.00  0.00    +0.000 A 
ATOM     20  H   UNL     1     -13.742  54.249  49.869  0.00  0.00    +0.000 HD
ATOM     21  H   UNL     1     -11.529  57.433  48.843  0.00  0.00    +0.000 HD
ENDBRANCH   1  13
BRANCH   7  22
ATOM     22  C   UNL     1     -10.974  52.592  45.927  0.00  0.00    +0.000 C 
ATOM     23  C   UNL     1     -11.246  53.235  44.542  0.00  0.00    +0.000 C 
ATOM     24  C   UNL     1      -9.956  51.467  45.641  0.00  0.00    +0.000 C 
ATOM     25  C   UNL     1     -12.289  51.955  46.412  0.00  0.00    +0.000 C 
ENDBRANCH   7  22
BRANCH   5  26
ATOM     26  C   UNL     1      -9.237  52.114  48.722  0.00  0.00    +0.000 C 
BRANCH  26  27
ATOM     27  C   UNL     1      -7.793  52.584  48.871  0.00  0.00    +0.000 C 
BRANCH  27  28
ATOM     28  C   UNL     1      -6.933  52.301  47.626  0.00  0.00    +0.000 C 
ATOM     29  C   UNL     1      -6.713  53.547  46.761  0.00  0.00    +0.000 C 
ATOM     30  C   UNL     1      -5.582  51.734  48.063  0.00  0.00    +0.000 C 
ENDBRANCH  27  28
ENDBRANCH  26  27
ENDBRANCH   5  26
TORSDOF 5
ENDMDL
MODEL 9
REMARK VINA RESULT:      -6.9      1.831      2.066
REMARK  Name = 
REMARK  10 active torsions:
REMARK  status: ('A' for Active; 'I' for Inactive)
REMARK    1  A    between atoms: C_6  and  C_10
REMARK    2  A    between atoms: N_17  and  C_20
REMARK    3  A    between atoms: C_19  and  C_21
REMARK    4  A    between atoms: C_20  and  C_22
REMARK    5  A    between atoms: C_21  and  C_23
REMARK    6  A    between atoms: C_21  and  C_24
REMARK    7  A    between atoms: C_21  and  C_25
REMARK    8  A    between atoms: C_22  and  C_26
REMARK    9  A    between atoms: C_26  and  C_27
REMARK   10  A    between atoms: C_26  and  C_28
REMARK                            x       y       z     vdW  Elec       q    Type
REMARK                         _______ _______ _______ _____ _____    ______ ____
ROOT
ATOM      1  C   UNL     1     -10.511  54.738  48.102  0.00  0.00    +0.000 C 
ATOM      2  C   UNL     1     -11.769  55.446  47.850  0.00  0.00    +0.000 C 
ATOM      3  C   UNL     1     -10.163  55.039  49.359  0.00  0.00    +0.000 C 
ATOM      4  O   UNL     1     -12.333  55.442  46.766  0.00  0.00    +0.000 OA
ATOM      5  N   UNL     1     -12.145  56.087  49.012  0.00  0.00    +0.000 N 
ATOM      6  O   UNL     1      -9.009  54.625  49.979  0.00  0.00    +0.000 OA
ATOM      7  C   UNL     1     -11.177  55.895  50.107  0.00  0.00    +0.000 C 
ENDROOT
BRANCH   1  13
ATOM      8  S   UNL     1      -9.223  53.378  44.690  0.00  0.00    +0.000 S 
ATOM      9  O   UNL     1      -8.124  54.209  44.251  0.00  0.00    +0.000 OA
ATOM     10  O   UNL     1     -10.209  52.901  43.736  0.00  0.00    +0.000 OA
ATOM     11  N   UNL     1     -10.019  54.173  45.856  0.00  0.00    +0.000 N 
ATOM     12  C   UNL     1      -8.503  51.943  45.403  0.00  0.00    +0.000 A 
ATOM     13  C   UNL     1      -9.818  53.877  47.105  0.00  0.00    +0.000 C 
ATOM     14  C   UNL     1      -8.478  51.854  46.786  0.00  0.00    +0.000 A 
ATOM     15  C   UNL     1      -7.982  50.943  44.581  0.00  0.00    +0.000 A 
ATOM     16  N   UNL     1      -9.024  52.858  47.578  0.00  0.00    +0.000 N 
ATOM     17  C   UNL     1      -7.917  50.713  47.362  0.00  0.00    +0.000 A 
ATOM     18  C   UNL     1      -7.418  49.813  45.166  0.00  0.00    +0.000 A 
ATOM     19  C   UNL     1      -7.381  49.697  46.556  0.00  0.00    +0.000 A 
ATOM     20  H   UNL     1     -10.658  54.883  45.616  0.00  0.00    +0.000 HD
ATOM     21  H   UNL     1      -8.831  52.837  48.543  0.00  0.00    +0.000 HD
ENDBRANCH   1  13
BRANCH   7  22
ATOM     22  C   UNL     1     -11.732  55.249  51.438  0.00  0.00    +0.000 C 
ATOM     23  C   UNL     1     -10.626  55.126  52.518  0.00  0.00    +0.000 C 
ATOM     24  C   UNL     1     -12.824  56.119  52.096  0.00  0.00    +0.000 C 
ATOM     25  C   UNL     1     -12.305  53.841  51.193  0.00  0.00    +0.000 C 
ENDBRANCH   7  22
BRANCH   5  26
ATOM     26  C   UNL     1     -13.350  56.900  49.047  0.00  0.00    +0.000 C 
BRANCH  26  27
ATOM     27  C   UNL     1     -13.096  58.372  49.352  0.00  0.00    +0.000 C 
BRANCH  27  28
ATOM     28  C   UNL     1     -14.350  59.113  49.848  0.00  0.00    +0.000 C 
ATOM     29  C   UNL     1     -14.385  59.267  51.373  0.00  0.00    +0.000 C 
ATOM     30  C   UNL     1     -14.416  60.493  49.192  0.00  0.00    +0.000 C 
ENDBRANCH  27  28
ENDBRANCH  26  27
ENDBRANCH   5  26
TORSDOF 5
ENDMDL
