MODEL 1
REMARK VINA RESULT:      -7.5      0.000      0.000
REMARK  Name = 
REMARK  9 active torsions:
REMARK  status: ('A' for Active; 'I' for Inactive)
REMARK    1  A    between atoms: C_6  and  C_10
REMARK    2  A    between atoms: N_17  and  C_20
REMARK    3  A    between atoms: C_19  and  C_21
REMARK    4  A    between atoms: C_20  and  C_22
REMARK    5  A    between atoms: C_21  and  C_23
REMARK    6  A    between atoms: C_21  and  C_24
REMARK    7  A    between atoms: C_22  and  C_25
REMARK    8  A    between atoms: C_25  and  C_26
REMARK    9  A    between atoms: C_25  and  C_27
REMARK                            x       y       z     vdW  Elec       q    Type
REMARK                         _______ _______ _______ _____ _____    ______ ____
ROOT
ATOM      1  C   UNL     1     -10.845  55.235  47.968  0.00  0.00    +0.000 C 
ATOM      2  C   UNL     1     -12.153  55.887  47.821  0.00  0.00    +0.000 C 
ATOM      3  C   UNL     1     -10.493  55.385  49.252  0.00  0.00    +0.000 C 
ATOM      4  O   UNL     1     -12.753  55.965  46.760  0.00  0.00    +0.000 OA
ATOM      5  N   UNL     1     -12.524  56.368  49.055  0.00  0.00    +0.000 N 
ATOM      6  O   UNL     1      -9.313  54.971  49.816  0.00  0.00    +0.000 OA
ATOM      7  C   UNL     1     -11.533  56.079  50.090  0.00  0.00    +0.000 C 
ENDROOT
BRANCH   1  13
ATOM      8  S   UNL     1      -7.955  54.340  45.536  0.00  0.00    +0.000 S 
ATOM      9  O   UNL     1      -6.992  53.498  46.219  0.00  0.00    +0.000 OA
ATOM     10  O   UNL     1      -7.508  55.384  44.637  0.00  0.00    +0.000 OA
ATOM     11  N   UNL     1      -8.901  55.029  46.657  0.00  0.00    +0.000 N 
ATOM     12  C   UNL     1      -8.953  53.263  44.577  0.00  0.00    +0.000 A 
ATOM     13  C   UNL     1     -10.098  54.577  46.876  0.00  0.00    +0.000 C 
ATOM     14  C   UNL     1     -10.234  52.980  45.031  0.00  0.00    +0.000 A 
ATOM     15  C   UNL     1      -8.453  52.721  43.393  0.00  0.00    +0.000 A 
ATOM     16  N   UNL     1     -10.721  53.554  46.200  0.00  0.00    +0.000 N 
ATOM     17  C   UNL     1     -11.033  52.121  44.277  0.00  0.00    +0.000 A 
ATOM     18  C   UNL     1      -9.263  51.867  42.643  0.00  0.00    +0.000 A 
ATOM     19  C   UNL     1     -10.550  51.568  43.086  0.00  0.00    +0.000 A 
ATOM     20  H   UNL     1      -8.564  55.796  47.176  0.00  0.00    +0.000 HD
ATOM     21  H   UNL     1     -11.565  53.206  46.568  0.00  0.00    +0.000 HD
ENDBRANCH   1  13
BRANCH   7  22
ATOM     22  C   UNL     1     -12.079  55.252  51.284  0.00  0.00    +0.000 C 
ATOM     23  C   UNL     1     -11.176  55.350  52.522  0.00  0.00    +0.000 C 
ATOM     24  C   UNL     1     -12.311  53.774  50.949  0.00  0.00    +0.000 C 
ENDBRANCH   7  22
BRANCH   5  25
ATOM     25  C   UNL     1     -13.792  57.035  49.281  0.00  0.00    +0.000 C 
BRANCH  25  26
ATOM     26  C   UNL     1     -13.712  58.110  50.358  0.00  0.00    +0.000 C 
BRANCH  26  27
ATOM     27  C   UNL     1     -14.807  57.959  51.427  0.00  0.00    +0.000 C 
ATOM     28  C   UNL     1     -15.672  56.719  51.191  0.00  0.00    +0.000 C 
ATOM     29  C   UNL     1     -14.161  57.888  52.810  0.00  0.00    +0.000 C 
ENDBRANCH  26  27
ENDBRANCH  25  26
ENDBRANCH   5  25
TORSDOF 5
ENDMDL
MODEL 2
REMARK VINA RESULT:      -7.5      2.685      4.246
REMARK  Name = 
REMARK  9 active torsions:
REMARK  status: ('A' for Active; 'I' for Inactive)
REMARK    1  A    between atoms: C_6  and  C_10
REMARK    2  A    between atoms: N_17  and  C_20
REMARK    3  A    between atoms: C_19  and  C_21
REMARK    4  A    between atoms: C_20  and  C_22
REMARK    5  A    between atoms: C_21  and  C_23
REMARK    6  A    between atoms: C_21  and  C_24
REMARK    7  A    between atoms: C_22  and  C_25
REMARK    8  A    between atoms: C_25  and  C_26
REMARK    9  A    between atoms: C_25  and  C_27
REMARK                            x       y       z     vdW  Elec       q    Type
REMARK                         _______ _______ _______ _____ _____    ______ ____
ROOT
ATOM      1  C   UNL     1     -10.989  55.256  48.694  0.00  0.00    +0.000 C 
ATOM      2  C   UNL     1     -11.513  55.109  50.058  0.00  0.00    +0.000 C 
ATOM      3  C   UNL     1     -12.005  55.709  47.947  0.00  0.00    +0.000 C 
ATOM      4  O   UNL     1     -10.853  54.682  50.992  0.00  0.00    +0.000 OA
ATOM      5  N   UNL     1     -12.826  55.522  50.050  0.00  0.00    +0.000 N 
ATOM      6  O   UNL     1     -11.972  55.936  46.595  0.00  0.00    +0.000 OA
ATOM      7  C   UNL     1     -13.265  55.968  48.729  0.00  0.00    +0.000 C 
ENDROOT
BRANCH   1  13
ATOM      8  S   UNL     1      -8.030  53.943  46.552  0.00  0.00    +0.000 S 
ATOM      9  O   UNL     1      -7.746  54.888  45.488  0.00  0.00    +0.000 OA
ATOM     10  O   UNL     1      -7.987  52.518  46.296  0.00  0.00    +0.000 OA
ATOM     11  N   UNL     1      -9.494  54.290  47.153  0.00  0.00    +0.000 N 
ATOM     12  C   UNL     1      -6.845  54.250  47.808  0.00  0.00    +0.000 A 
ATOM     13  C   UNL     1      -9.610  54.930  48.276  0.00  0.00    +0.000 C 
ATOM     14  C   UNL     1      -7.259  54.929  48.946  0.00  0.00    +0.000 A 
ATOM     15  C   UNL     1      -5.531  53.812  47.647  0.00  0.00    +0.000 A 
ATOM     16  N   UNL     1      -8.581  55.332  49.096  0.00  0.00    +0.000 N 
ATOM     17  C   UNL     1      -6.322  55.182  49.948  0.00  0.00    +0.000 A 
ATOM     18  C   UNL     1      -4.604  54.064  48.658  0.00  0.00    +0.000 A 
ATOM     19  C   UNL     1      -5.000  54.749  49.806  0.00  0.00    +0.000 A 
ATOM     20  H   UNL     1     -10.302  54.015  46.661  0.00  0.00    +0.000 HD
ATOM     21  H   UNL     1      -8.795  55.944  49.836  0.00  0.00    +0.000 HD
ENDBRANCH   1  13
BRANCH   7  22
ATOM     22  C   UNL     1     -13.779  57.432  48.688  0.00  0.00    +0.000 C 
ATOM     23  C   UNL     1     -14.232  57.851  47.282  0.00  0.00    +0.000 C 
ATOM     24  C   UNL     1     -12.761  58.452  49.211  0.00  0.00    +0.000 C 
ENDBRANCH   7  22
BRANCH   5  25
ATOM     25  C   UNL     1     -13.639  55.551  51.251  0.00  0.00    +0.000 C 
BRANCH  25  26
ATOM     26  C   UNL     1     -13.251  56.676  52.202  0.00  0.00    +0.000 C 
BRANCH  26  27
ATOM     27  C   UNL     1     -14.471  57.437  52.748  0.00  0.00    +0.000 C 
ATOM     28  C   UNL     1     -14.383  58.939  52.467  0.00  0.00    +0.000 C 
ATOM     29  C   UNL     1     -15.746  56.866  52.128  0.00  0.00    +0.000 C 
ENDBRANCH  26  27
ENDBRANCH  25  26
ENDBRANCH   5  25
TORSDOF 5
ENDMDL
MODEL 3
REMARK VINA RESULT:      -7.2      3.726      5.977
REMARK  Name = 
REMARK  9 active torsions:
REMARK  status: ('A' for Active; 'I' for Inactive)
REMARK    1  A    between atoms: C_6  and  C_10
REMARK    2  A    between atoms: N_17  and  C_20
REMARK    3  A    between atoms: C_19  and  C_21
REMARK    4  A    between atoms: C_20  and  C_22
REMARK    5  A    between atoms: C_21  and  C_23
REMARK    6  A    between atoms: C_21  and  C_24
REMARK    7  A    between atoms: C_22  and  C_25
REMARK    8  A    between atoms: C_25  and  C_26
REMARK    9  A    between atoms: C_25  and  C_27
REMARK                            x       y       z     vdW  Elec       q    Type
REMARK                         _______ _______ _______ _____ _____    ______ ____
ROOT
ATOM      1  C   UNL     1     -10.249  55.257  50.450  0.00  0.00    +0.000 C 
ATOM      2  C   UNL     1     -11.382  55.311  51.383  0.00  0.00    +0.000 C 
ATOM      3  C   UNL     1     -10.768  55.383  49.221  0.00  0.00    +0.000 C 
ATOM      4  O   UNL     1     -11.267  55.192  52.593  0.00  0.00    +0.000 OA
ATOM      5  N   UNL     1     -12.527  55.501  50.643  0.00  0.00    +0.000 N 
ATOM      6  O   UNL     1     -10.068  55.332  48.043  0.00  0.00    +0.000 OA
ATOM      7  C   UNL     1     -12.258  55.593  49.210  0.00  0.00    +0.000 C 
ENDROOT
BRANCH   1  13
ATOM      8  S   UNL     1      -6.457  54.469  50.199  0.00  0.00    +0.000 S 
ATOM      9  O   UNL     1      -5.769  55.591  49.588  0.00  0.00    +0.000 OA
ATOM     10  O   UNL     1      -6.091  53.111  49.857  0.00  0.00    +0.000 OA
ATOM     11  N   UNL     1      -8.042  54.638  49.913  0.00  0.00    +0.000 N 
ATOM     12  C   UNL     1      -6.202  54.622  51.928  0.00  0.00    +0.000 A 
ATOM     13  C   UNL     1      -8.836  55.075  50.842  0.00  0.00    +0.000 C 
ATOM     14  C   UNL     1      -7.256  55.082  52.707  0.00  0.00    +0.000 A 
ATOM     15  C   UNL     1      -4.967  54.284  52.482  0.00  0.00    +0.000 A 
ATOM     16  N   UNL     1      -8.486  55.387  52.135  0.00  0.00    +0.000 N 
ATOM     17  C   UNL     1      -7.060  55.211  54.081  0.00  0.00    +0.000 A 
ATOM     18  C   UNL     1      -4.785  54.411  53.859  0.00  0.00    +0.000 A 
ATOM     19  C   UNL     1      -5.830  54.875  54.656  0.00  0.00    +0.000 A 
ATOM     20  H   UNL     1      -8.406  54.408  49.027  0.00  0.00    +0.000 HD
ATOM     21  H   UNL     1      -9.148  55.856  52.691  0.00  0.00    +0.000 HD
ENDBRANCH   1  13
BRANCH   7  22
ATOM     22  C   UNL     1     -12.733  56.918  48.555  0.00  0.00    +0.000 C 
ATOM     23  C   UNL     1     -12.463  58.138  49.448  0.00  0.00    +0.000 C 
ATOM     24  C   UNL     1     -14.214  56.906  48.158  0.00  0.00    +0.000 C 
ENDBRANCH   7  22
BRANCH   5  25
ATOM     25  C   UNL     1     -13.834  55.646  51.256  0.00  0.00    +0.000 C 
BRANCH  25  26
ATOM     26  C   UNL     1     -13.888  56.776  52.276  0.00  0.00    +0.000 C 
BRANCH  26  27
ATOM     27  C   UNL     1     -15.233  57.522  52.261  0.00  0.00    +0.000 C 
ATOM     28  C   UNL     1     -15.062  59.005  51.923  0.00  0.00    +0.000 C 
ATOM     29  C   UNL     1     -16.170  56.863  51.250  0.00  0.00    +0.000 C 
ENDBRANCH  26  27
ENDBRANCH  25  26
ENDBRANCH   5  25
TORSDOF 5
ENDMDL
MODEL 4
REMARK VINA RESULT:      -7.1      3.176      7.656
REMARK  Name = 
REMARK  9 active torsions:
REMARK  status: ('A' for Active; 'I' for Inactive)
REMARK    1  A    between atoms: C_6  and  C_10
REMARK    2  A    between atoms: N_17  and  C_20
REMARK    3  A    between atoms: C_19  and  C_21
REMARK    4  A    between atoms: C_20  and  C_22
REMARK    5  A    between atoms: C_21  and  C_23
REMARK    6  A    between atoms: C_21  and  C_24
REMARK    7  A    between atoms: C_22  and  C_25
REMARK    8  A    between atoms: C_25  and  C_26
REMARK    9  A    between atoms: C_25  and  C_27
REMARK                            x       y       z     vdW  Elec       q    Type
REMARK                         _______ _______ _______ _____ _____    ______ ____
ROOT
ATOM      1  C   UNL     1     -12.260  54.527  49.943  0.00  0.00    +0.000 C 
ATOM      2  C   UNL     1     -12.031  54.202  48.529  0.00  0.00    +0.000 C 
ATOM      3  C   UNL     1     -11.738  53.516  50.651  0.00  0.00    +0.000 C 
ATOM      4  O   UNL     1     -12.415  54.901  47.605  0.00  0.00    +0.000 OA
ATOM      5  N   UNL     1     -11.345  53.010  48.479  0.00  0.00    +0.000 N 
ATOM      6  O   UNL     1     -11.777  53.384  52.016  0.00  0.00    +0.000 OA
ATOM      7  C   UNL     1     -11.065  52.468  49.807  0.00  0.00    +0.000 C 
ENDROOT
BRANCH   1  13
ATOM      8  S   UNL     1     -14.331  56.878  52.234  0.00  0.00    +0.000 S 
ATOM      9  O   UNL     1     -13.495  57.357  53.318  0.00  0.00    +0.000 OA
ATOM     10  O   UNL     1     -15.709  56.506  52.481  0.00  0.00    +0.000 OA
ATOM     11  N   UNL     1     -13.593  55.606  51.557  0.00  0.00    +0.000 N 
ATOM     12  C   UNL     1     -14.380  58.168  51.046  0.00  0.00    +0.000 A 
ATOM     13  C   UNL     1     -12.956  55.735  50.433  0.00  0.00    +0.000 C 
ATOM     14  C   UNL     1     -13.621  58.024  49.893  0.00  0.00    +0.000 A 
ATOM     15  C   UNL     1     -15.167  59.296  51.276  0.00  0.00    +0.000 A 
ATOM     16  N   UNL     1     -12.865  56.878  49.674  0.00  0.00    +0.000 N 
ATOM     17  C   UNL     1     -13.649  59.047  48.945  0.00  0.00    +0.000 A 
ATOM     18  C   UNL     1     -15.193  60.311  50.319  0.00  0.00    +0.000 A 
ATOM     19  C   UNL     1     -14.435  60.185  49.156  0.00  0.00    +0.000 A 
ATOM     20  H   UNL     1     -13.626  54.727  52.002  0.00  0.00    +0.000 HD
ATOM     21  H   UNL     1     -12.223  56.885  48.927  0.00  0.00    +0.000 HD
ENDBRANCH   1  13
BRANCH   7  22
ATOM     22  C   UNL     1      -9.557  52.249  50.101  0.00  0.00    +0.000 C 
ATOM     23  C   UNL     1      -9.326  51.257  51.250  0.00  0.00    +0.000 C 
ATOM     24  C   UNL     1      -8.798  53.548  50.401  0.00  0.00    +0.000 C 
ENDBRANCH   7  22
BRANCH   5  25
ATOM     25  C   UNL     1     -10.915  52.413  47.229  0.00  0.00    +0.000 C 
BRANCH  25  26
ATOM     26  C   UNL     1      -9.704  53.113  46.624  0.00  0.00    +0.000 C 
BRANCH  26  27
ATOM     27  C   UNL     1      -9.973  53.643  45.206  0.00  0.00    +0.000 C 
ATOM     28  C   UNL     1      -8.882  53.222  44.219  0.00  0.00    +0.000 C 
ATOM     29  C   UNL     1     -11.333  53.139  44.724  0.00  0.00    +0.000 C 
ENDBRANCH  26  27
ENDBRANCH  25  26
ENDBRANCH   5  25
TORSDOF 5
ENDMDL
MODEL 5
REMARK VINA RESULT:      -7.0      2.980      7.867
REMARK  Name = 
REMARK  9 active torsions:
REMARK  status: ('A' for Active; 'I' for Inactive)
REMARK    1  A    between atoms: C_6  and  C_10
REMARK    2  A    between atoms: N_17  and  C_20
REMARK    3  A    between atoms: C_19  and  C_21
REMARK    4  A    between atoms: C_20  and  C_22
REMARK    5  A    between atoms: C_21  and  C_23
REMARK    6  A    between atoms: C_21  and  C_24
REMARK    7  A    between atoms: C_22  and  C_25
REMARK    8  A    between atoms: C_25  and  C_26
REMARK    9  A    between atoms: C_25  and  C_27
REMARK                            x       y       z     vdW  Elec       q    Type
REMARK                         _______ _______ _______ _____ _____    ______ ____
ROOT
ATOM      1  C   UNL     1     -11.329  56.016  48.936  0.00  0.00    +0.000 C 
ATOM      2  C   UNL     1     -10.251  55.359  49.687  0.00  0.00    +0.000 C 
ATOM      3  C   UNL     1     -11.200  55.615  47.664  0.00  0.00    +0.000 C 
ATOM      4  O   UNL     1     -10.056  55.533  50.880  0.00  0.00    +0.000 OA
ATOM      5  N   UNL     1      -9.551  54.565  48.808  0.00  0.00    +0.000 N 
ATOM      6  O   UNL     1     -11.969  56.031  46.607  0.00  0.00    +0.000 OA
ATOM      7  C   UNL     1     -10.090  54.621  47.451  0.00  0.00    +0.000 C 
ENDROOT
BRANCH   1  13
ATOM      8  S   UNL     1     -13.514  59.186  49.433  0.00  0.00    +0.000 S 
ATOM      9  O   UNL     1     -14.617  59.166  48.490  0.00  0.00    +0.000 OA
ATOM     10  O   UNL     1     -12.818  60.423  49.720  0.00  0.00    +0.000 OA
ATOM     11  N   UNL     1     -12.412  58.107  48.937  0.00  0.00    +0.000 N 
ATOM     12  C   UNL     1     -14.167  58.626  50.962  0.00  0.00    +0.000 A 
ATOM     13  C   UNL     1     -12.319  56.948  49.515  0.00  0.00    +0.000 C 
ATOM     14  C   UNL     1     -13.867  57.332  51.367  0.00  0.00    +0.000 A 
ATOM     15  C   UNL     1     -14.959  59.476  51.733  0.00  0.00    +0.000 A 
ATOM     16  N   UNL     1     -13.052  56.513  50.594  0.00  0.00    +0.000 N 
ATOM     17  C   UNL     1     -14.386  56.877  52.578  0.00  0.00    +0.000 A 
ATOM     18  C   UNL     1     -15.468  59.013  52.946  0.00  0.00    +0.000 A 
ATOM     19  C   UNL     1     -15.181  57.715  53.367  0.00  0.00    +0.000 A 
ATOM     20  H   UNL     1     -11.809  58.332  48.191  0.00  0.00    +0.000 HD
ATOM     21  H   UNL     1     -12.996  55.560  50.835  0.00  0.00    +0.000 HD
ENDBRANCH   1  13
BRANCH   7  22
ATOM     22  C   UNL     1     -10.534  53.247  46.882  0.00  0.00    +0.000 C 
ATOM     23  C   UNL     1     -10.636  53.256  45.350  0.00  0.00    +0.000 C 
ATOM     24  C   UNL     1     -11.857  52.742  47.469  0.00  0.00    +0.000 C 
ENDBRANCH   7  22
BRANCH   5  25
ATOM     25  C   UNL     1      -8.439  53.732  49.228  0.00  0.00    +0.000 C 
BRANCH  25  26
ATOM     26  C   UNL     1      -7.129  54.107  48.547  0.00  0.00    +0.000 C 
BRANCH  26  27
ATOM     27  C   UNL     1      -6.253  55.025  49.416  0.00  0.00    +0.000 C 
ATOM     28  C   UNL     1      -6.597  54.908  50.903  0.00  0.00    +0.000 C 
ATOM     29  C   UNL     1      -4.780  54.683  49.194  0.00  0.00    +0.000 C 
ENDBRANCH  26  27
ENDBRANCH  25  26
ENDBRANCH   5  25
TORSDOF 5
ENDMDL
MODEL 6
REMARK VINA RESULT:      -6.9      4.152      7.744
REMARK  Name = 
REMARK  9 active torsions:
REMARK  status: ('A' for Active; 'I' for Inactive)
REMARK    1  A    between atoms: C_6  and  C_10
REMARK    2  A    between atoms: N_17  and  C_20
REMARK    3  A    between atoms: C_19  and  C_21
REMARK    4  A    between atoms: C_20  and  C_22
REMARK    5  A    between atoms: C_21  and  C_23
REMARK    6  A    between atoms: C_21  and  C_24
REMARK    7  A    between atoms: C_22  and  C_25
REMARK    8  A    between atoms: C_25  and  C_26
REMARK    9  A    between atoms: C_25  and  C_27
REMARK                            x       y       z     vdW  Elec       q    Type
REMARK                         _______ _______ _______ _____ _____    ______ ____
ROOT
ATOM      1  C   UNL     1      -9.501  55.148  51.454  0.00  0.00    +0.000 C 
ATOM      2  C   UNL     1      -9.191  54.462  52.715  0.00  0.00    +0.000 C 
ATOM      3  C   UNL     1      -8.324  55.459  50.895  0.00  0.00    +0.000 C 
ATOM      4  O   UNL     1     -10.042  54.070  53.497  0.00  0.00    +0.000 OA
ATOM      5  N   UNL     1      -7.821  54.374  52.818  0.00  0.00    +0.000 N 
ATOM      6  O   UNL     1      -8.146  56.158  49.728  0.00  0.00    +0.000 OA
ATOM      7  C   UNL     1      -7.133  54.966  51.673  0.00  0.00    +0.000 C 
ENDROOT
BRANCH   1  13
ATOM      8  S   UNL     1     -12.505  55.529  49.025  0.00  0.00    +0.000 S 
ATOM      9  O   UNL     1     -13.064  54.222  48.738  0.00  0.00    +0.000 OA
ATOM     10  O   UNL     1     -12.378  56.519  47.975  0.00  0.00    +0.000 OA
ATOM     11  N   UNL     1     -11.038  55.315  49.678  0.00  0.00    +0.000 N 
ATOM     12  C   UNL     1     -13.540  56.246  50.247  0.00  0.00    +0.000 A 
ATOM     13  C   UNL     1     -10.864  55.436  50.959  0.00  0.00    +0.000 C 
ATOM     14  C   UNL     1     -13.077  56.284  51.556  0.00  0.00    +0.000 A 
ATOM     15  C   UNL     1     -14.787  56.757  49.890  0.00  0.00    +0.000 A 
ATOM     16  N   UNL     1     -11.818  55.793  51.883  0.00  0.00    +0.000 N 
ATOM     17  C   UNL     1     -13.895  56.847  52.535  0.00  0.00    +0.000 A 
ATOM     18  C   UNL     1     -15.595  57.324  50.877  0.00  0.00    +0.000 A 
ATOM     19  C   UNL     1     -15.148  57.368  52.196  0.00  0.00    +0.000 A 
ATOM     20  H   UNL     1     -10.274  55.090  49.099  0.00  0.00    +0.000 HD
ATOM     21  H   UNL     1     -11.595  55.694  52.836  0.00  0.00    +0.000 HD
ENDBRANCH   1  13
BRANCH   7  22
ATOM     22  C   UNL     1      -6.204  53.985  50.909  0.00  0.00    +0.000 C 
ATOM     23  C   UNL     1      -5.159  54.718  50.056  0.00  0.00    +0.000 C 
ATOM     24  C   UNL     1      -6.963  52.989  50.024  0.00  0.00    +0.000 C 
ENDBRANCH   7  22
BRANCH   5  25
ATOM     25  C   UNL     1      -7.167  53.709  53.929  0.00  0.00    +0.000 C 
BRANCH  25  26
ATOM     26  C   UNL     1      -6.109  54.578  54.599  0.00  0.00    +0.000 C 
BRANCH  26  27
ATOM     27  C   UNL     1      -4.687  54.021  54.421  0.00  0.00    +0.000 C 
ATOM     28  C   UNL     1      -4.688  52.653  53.733  0.00  0.00    +0.000 C 
ATOM     29  C   UNL     1      -3.850  55.010  53.612  0.00  0.00    +0.000 C 
ENDBRANCH  26  27
ENDBRANCH  25  26
ENDBRANCH   5  25
TORSDOF 5
ENDMDL
MODEL 7
REMARK VINA RESULT:      -6.9      3.612      6.582
REMARK  Name = 
REMARK  9 active torsions:
REMARK  status: ('A' for Active; 'I' for Inactive)
REMARK    1  A    between atoms: C_6  and  C_10
REMARK    2  A    between atoms: N_17  and  C_20
REMARK    3  A    between atoms: C_19  and  C_21
REMARK    4  A    between atoms: C_20  and  C_22
REMARK    5  A    between atoms: C_21  and  C_23
REMARK    6  A    between atoms: C_21  and  C_24
REMARK    7  A    between atoms: C_22  and  C_25
REMARK    8  A    between atoms: C_25  and  C_26
REMARK    9  A    between atoms: C_25  and  C_27
REMARK                            x       y       z     vdW  Elec       q    Type
REMARK                         _______ _______ _______ _____ _____    ______ ____
ROOT
ATOM      1  C   UNL     1     -10.792  54.080  50.405  0.00  0.00    +0.000 C 
ATOM      2  C   UNL     1     -11.785  55.136  50.643  0.00  0.00    +0.000 C 
ATOM      3  C   UNL     1     -11.037  53.604  49.176  0.00  0.00    +0.000 C 
ATOM      4  O   UNL     1     -11.868  55.761  51.689  0.00  0.00    +0.000 OA
ATOM      5  N   UNL     1     -12.556  55.251  49.509  0.00  0.00    +0.000 N 
ATOM      6  O   UNL     1     -10.377  52.567  48.569  0.00  0.00    +0.000 OA
ATOM      7  C   UNL     1     -12.149  54.320  48.458  0.00  0.00    +0.000 C 
ENDROOT
BRANCH   1  13
ATOM      8  S   UNL     1      -8.742  51.813  52.798  0.00  0.00    +0.000 S 
ATOM      9  O   UNL     1      -7.850  50.973  52.022  0.00  0.00    +0.000 OA
ATOM     10  O   UNL     1      -9.438  51.276  53.949  0.00  0.00    +0.000 OA
ATOM     11  N   UNL     1      -9.855  52.425  51.792  0.00  0.00    +0.000 N 
ATOM     12  C   UNL     1      -7.766  53.144  53.394  0.00  0.00    +0.000 A 
ATOM     13  C   UNL     1      -9.763  53.650  51.374  0.00  0.00    +0.000 C 
ATOM     14  C   UNL     1      -7.902  54.382  52.780  0.00  0.00    +0.000 A 
ATOM     15  C   UNL     1      -6.887  52.940  54.458  0.00  0.00    +0.000 A 
ATOM     16  N   UNL     1      -8.806  54.567  51.739  0.00  0.00    +0.000 N 
ATOM     17  C   UNL     1      -7.127  55.443  53.244  0.00  0.00    +0.000 A 
ATOM     18  C   UNL     1      -6.121  54.010  54.918  0.00  0.00    +0.000 A 
ATOM     19  C   UNL     1      -6.241  55.259  54.312  0.00  0.00    +0.000 A 
ATOM     20  H   UNL     1     -10.607  51.861  51.495  0.00  0.00    +0.000 HD
ATOM     21  H   UNL     1      -8.756  55.409  51.232  0.00  0.00    +0.000 HD
ENDBRANCH   1  13
BRANCH   7  22
ATOM     22  C   UNL     1     -11.744  55.001  47.124  0.00  0.00    +0.000 C 
ATOM     23  C   UNL     1     -11.866  54.050  45.925  0.00  0.00    +0.000 C 
ATOM     24  C   UNL     1     -10.333  55.599  47.147  0.00  0.00    +0.000 C 
ENDBRANCH   7  22
BRANCH   5  25
ATOM     25  C   UNL     1     -13.612  56.238  49.384  0.00  0.00    +0.000 C 
BRANCH  25  26
ATOM     26  C   UNL     1     -13.085  57.667  49.336  0.00  0.00    +0.000 C 
BRANCH  26  27
ATOM     27  C   UNL     1     -14.063  58.678  49.957  0.00  0.00    +0.000 C 
ATOM     28  C   UNL     1     -14.373  58.352  51.420  0.00  0.00    +0.000 C 
ATOM     29  C   UNL     1     -13.476  60.085  49.851  0.00  0.00    +0.000 C 
ENDBRANCH  26  27
ENDBRANCH  25  26
ENDBRANCH   5  25
TORSDOF 5
ENDMDL
MODEL 8
REMARK VINA RESULT:      -6.7      3.524      6.426
REMARK  Name = 
REMARK  9 active torsions:
REMARK  status: ('A' for Active; 'I' for Inactive)
REMARK    1  A    between atoms: C_6  and  C_10
REMARK    2  A    between atoms: N_17  and  C_20
REMARK    3  A    between atoms: C_19  and  C_21
REMARK    4  A    between atoms: C_20  and  C_22
REMARK    5  A    between atoms: C_21  and  C_23
REMARK    6  A    between atoms: C_21  and  C_24
REMARK    7  A    between atoms: C_22  and  C_25
REMARK    8  A    between atoms: C_25  and  C_26
REMARK    9  A    between atoms: C_25  and  C_27
REMARK                            x       y       z     vdW  Elec       q    Type
REMARK                         _______ _______ _______ _____ _____    ______ ____
ROOT
ATOM      1  C   UNL     1     -10.623  54.526  50.600  0.00  0.00    +0.000 C 
ATOM      2  C   UNL     1     -11.745  55.460  50.758  0.00  0.00    +0.000 C 
ATOM      3  C   UNL     1     -10.720  54.027  49.360  0.00  0.00    +0.000 C 
ATOM      4  O   UNL     1     -11.976  56.070  51.791  0.00  0.00    +0.000 OA
ATOM      5  N   UNL     1     -12.438  55.488  49.570  0.00  0.00    +0.000 N 
ATOM      6  O   UNL     1      -9.902  53.074  48.809  0.00  0.00    +0.000 OA
ATOM      7  C   UNL     1     -11.852  54.612  48.558  0.00  0.00    +0.000 C 
ENDROOT
BRANCH   1  13
ATOM      8  S   UNL     1      -7.422  54.757  52.784  0.00  0.00    +0.000 S 
ATOM      9  O   UNL     1      -7.572  55.829  53.750  0.00  0.00    +0.000 OA
ATOM     10  O   UNL     1      -6.155  54.546  52.115  0.00  0.00    +0.000 OA
ATOM     11  N   UNL     1      -8.554  54.950  51.642  0.00  0.00    +0.000 N 
ATOM     12  C   UNL     1      -7.773  53.270  53.645  0.00  0.00    +0.000 A 
ATOM     13  C   UNL     1      -9.625  54.216  51.645  0.00  0.00    +0.000 C 
ATOM     14  C   UNL     1      -9.000  52.659  53.422  0.00  0.00    +0.000 A 
ATOM     15  C   UNL     1      -6.830  52.733  54.521  0.00  0.00    +0.000 A 
ATOM     16  N   UNL     1      -9.914  53.198  52.523  0.00  0.00    +0.000 N 
ATOM     17  C   UNL     1      -9.290  51.479  54.106  0.00  0.00    +0.000 A 
ATOM     18  C   UNL     1      -7.128  51.549  55.196  0.00  0.00    +0.000 A 
ATOM     19  C   UNL     1      -8.356  50.924  54.988  0.00  0.00    +0.000 A 
ATOM     20  H   UNL     1      -8.430  55.631  50.940  0.00  0.00    +0.000 HD
ATOM     21  H   UNL     1     -10.825  52.827  52.514  0.00  0.00    +0.000 HD
ENDBRANCH   1  13
BRANCH   7  22
ATOM     22  C   UNL     1     -11.431  55.337  47.252  0.00  0.00    +0.000 C 
ATOM     23  C   UNL     1     -11.787  54.529  45.996  0.00  0.00    +0.000 C 
ATOM     24  C   UNL     1      -9.942  55.700  47.208  0.00  0.00    +0.000 C 
ENDBRANCH   7  22
BRANCH   5  25
ATOM     25  C   UNL     1     -13.589  56.347  49.361  0.00  0.00    +0.000 C 
BRANCH  25  26
ATOM     26  C   UNL     1     -13.212  57.814  49.201  0.00  0.00    +0.000 C 
BRANCH  26  27
ATOM     27  C   UNL     1     -14.235  58.761  49.849  0.00  0.00    +0.000 C 
ATOM     28  C   UNL     1     -14.713  58.246  51.209  0.00  0.00    +0.000 C 
ATOM     29  C   UNL     1     -13.616  60.150  50.007  0.00  0.00    +0.000 C 
ENDBRANCH  26  27
ENDBRANCH  25  26
ENDBRANCH   5  25
TORSDOF 5
ENDMDL
MODEL 9
REMARK VINA RESULT:      -6.7      3.547      7.752
REMARK  Name = 
REMARK  9 active torsions:
REMARK  status: ('A' for Active; 'I' for Inactive)
REMARK    1  A    between atoms: C_6  and  C_10
REMARK    2  A    between atoms: N_17  and  C_20
REMARK    3  A    between atoms: C_19  and  C_21
REMARK    4  A    between atoms: C_20  and  C_22
REMARK    5  A    between atoms: C_21  and  C_23
REMARK    6  A    between atoms: C_21  and  C_24
REMARK    7  A    between atoms: C_22  and  C_25
REMARK    8  A    between atoms: C_25  and  C_26
REMARK    9  A    between atoms: C_25  and  C_27
REMARK                            x       y       z     vdW  Elec       q    Type
REMARK                         _______ _______ _______ _____ _____    ______ ____
ROOT
ATOM      1  C   UNL     1      -7.677  54.642  48.470  0.00  0.00    +0.000 C 
ATOM      2  C   UNL     1      -7.217  54.200  47.147  0.00  0.00    +0.000 C 
ATOM      3  C   UNL     1      -8.805  55.335  48.264  0.00  0.00    +0.000 C 
ATOM      4  O   UNL     1      -6.188  53.567  46.967  0.00  0.00    +0.000 OA
ATOM      5  N   UNL     1      -8.132  54.637  46.217  0.00  0.00    +0.000 N 
ATOM      6  O   UNL     1      -9.543  55.976  49.226  0.00  0.00    +0.000 OA
ATOM      7  C   UNL     1      -9.240  55.373  46.824  0.00  0.00    +0.000 C 
ENDROOT
BRANCH   1  13
ATOM      8  S   UNL     1      -5.233  53.054  51.034  0.00  0.00    +0.000 S 
ATOM      9  O   UNL     1      -3.905  53.604  50.841  0.00  0.00    +0.000 OA
ATOM     10  O   UNL     1      -5.408  51.645  51.321  0.00  0.00    +0.000 OA
ATOM     11  N   UNL     1      -6.115  53.401  49.720  0.00  0.00    +0.000 N 
ATOM     12  C   UNL     1      -5.929  53.919  52.393  0.00  0.00    +0.000 A 
ATOM     13  C   UNL     1      -6.981  54.367  49.745  0.00  0.00    +0.000 C 
ATOM     14  C   UNL     1      -6.885  54.890  52.130  0.00  0.00    +0.000 A 
ATOM     15  C   UNL     1      -5.518  53.619  53.692  0.00  0.00    +0.000 A 
ATOM     16  N   UNL     1      -7.299  55.151  50.829  0.00  0.00    +0.000 N 
ATOM     17  C   UNL     1      -7.439  55.586  53.204  0.00  0.00    +0.000 A 
ATOM     18  C   UNL     1      -6.083  54.317  54.759  0.00  0.00    +0.000 A 
ATOM     19  C   UNL     1      -7.042  55.299  54.514  0.00  0.00    +0.000 A 
ATOM     20  H   UNL     1      -5.992  52.875  48.896  0.00  0.00    +0.000 HD
ATOM     21  H   UNL     1      -7.854  55.949  50.674  0.00  0.00    +0.000 HD
ENDBRANCH   1  13
BRANCH   7  22
ATOM     22  C   UNL     1     -10.640  54.766  46.539  0.00  0.00    +0.000 C 
ATOM     23  C   UNL     1     -11.767  55.793  46.719  0.00  0.00    +0.000 C 
ATOM     24  C   UNL     1     -10.952  53.527  47.387  0.00  0.00    +0.000 C 
ENDBRANCH   7  22
BRANCH   5  25
ATOM     25  C   UNL     1      -8.008  54.336  44.803  0.00  0.00    +0.000 C 
BRANCH  25  26
ATOM     26  C   UNL     1      -8.413  52.907  44.465  0.00  0.00    +0.000 C 
BRANCH  26  27
ATOM     27  C   UNL     1      -9.712  52.838  43.645  0.00  0.00    +0.000 C 
ATOM     28  C   UNL     1      -9.437  52.697  42.145  0.00  0.00    +0.000 C 
ATOM     29  C   UNL     1     -10.560  51.664  44.131  0.00  0.00    +0.000 C 
ENDBRANCH  26  27
ENDBRANCH  25  26
ENDBRANCH   5  25
TORSDOF 5
ENDMDL
