MODEL 1
REMARK VINA RESULT:      -8.8      0.000      0.000
REMARK  Name = 
REMARK  7 active torsions:
REMARK  status: ('A' for Active; 'I' for Inactive)
REMARK    1  A    between atoms: C_6  and  C_10
REMARK    2  A    between atoms: N_17  and  C_20
REMARK    3  A    between atoms: C_19  and  C_21
REMARK    4  A    between atoms: C_20  and  C_22
REMARK    5  A    between atoms: C_21  and  C_23
REMARK    6  A    between atoms: C_21  and  C_24
REMARK    7  A    between atoms: C_23  and  C_27
REMARK                            x       y       z     vdW  Elec       q    Type
REMARK                         _______ _______ _______ _____ _____    ______ ____
ROOT
ATOM      1  C   UNL     1     -10.917  55.266  47.906  0.00  0.00    +0.000 C 
ATOM      2  C   UNL     1     -12.218  55.913  47.715  0.00  0.00    +0.000 C 
ATOM      3  C   UNL     1     -10.602  55.469  49.192  0.00  0.00    +0.000 C 
ATOM      4  O   UNL     1     -12.724  56.083  46.615  0.00  0.00    +0.000 OA
ATOM      5  N   UNL     1     -12.701  56.297  48.951  0.00  0.00    +0.000 N 
ATOM      6  O   UNL     1      -9.414  55.108  49.779  0.00  0.00    +0.000 OA
ATOM      7  C   UNL     1     -11.680  56.189  49.998  0.00  0.00    +0.000 C 
ENDROOT
BRANCH   1  13
ATOM      8  S   UNL     1      -7.988  54.308  45.513  0.00  0.00    +0.000 S 
ATOM      9  O   UNL     1      -7.061  53.472  46.251  0.00  0.00    +0.000 OA
ATOM     10  O   UNL     1      -7.495  55.312  44.591  0.00  0.00    +0.000 OA
ATOM     11  N   UNL     1      -8.954  55.056  46.584  0.00  0.00    +0.000 N 
ATOM     12  C   UNL     1      -8.976  53.210  44.558  0.00  0.00    +0.000 A 
ATOM     13  C   UNL     1     -10.148  54.597  46.816  0.00  0.00    +0.000 C 
ATOM     14  C   UNL     1     -10.260  52.947  45.008  0.00  0.00    +0.000 A 
ATOM     15  C   UNL     1      -8.464  52.631  43.393  0.00  0.00    +0.000 A 
ATOM     16  N   UNL     1     -10.758  53.553  46.156  0.00  0.00    +0.000 N 
ATOM     17  C   UNL     1     -11.057  52.073  44.261  0.00  0.00    +0.000 A 
ATOM     18  C   UNL     1      -9.269  51.767  42.657  0.00  0.00    +0.000 A 
ATOM     19  C   UNL     1     -10.565  51.486  43.089  0.00  0.00    +0.000 A 
ATOM     20  H   UNL     1      -8.637  55.858  47.058  0.00  0.00    +0.000 HD
ATOM     21  H   UNL     1     -11.604  53.210  46.525  0.00  0.00    +0.000 HD
ENDBRANCH   1  13
BRANCH   7  22
ATOM     22  C   UNL     1     -12.118  55.432  51.296  0.00  0.00    +0.000 C 
ATOM     23  C   UNL     1     -12.490  53.962  51.012  0.00  0.00    +0.000 C 
BRANCH  22  24
ATOM     24  C   UNL     1     -11.091  55.434  52.456  0.00  0.00    +0.000 C 
ATOM     25  C   UNL     1     -10.603  54.061  52.904  0.00  0.00    +0.000 C 
ENDBRANCH  22  24
ENDBRANCH   7  22
BRANCH   5  26
ATOM     26  C   UNL     1     -13.865  57.166  49.016  0.00  0.00    +0.000 C 
BRANCH  26  27
ATOM     27  C   UNL     1     -14.376  57.439  50.419  0.00  0.00    +0.000 A 
ATOM     28  C   UNL     1     -15.211  56.562  51.129  0.00  0.00    +0.000 A 
ATOM     29  C   UNL     1     -13.983  58.633  51.049  0.00  0.00    +0.000 A 
ATOM     30  C   UNL     1     -15.617  56.853  52.434  0.00  0.00    +0.000 A 
ATOM     31  C   UNL     1     -14.386  58.921  52.356  0.00  0.00    +0.000 A 
ATOM     32  C   UNL     1     -15.196  58.028  53.051  0.00  0.00    +0.000 A 
ENDBRANCH  26  27
ENDBRANCH   5  26
TORSDOF 5
ENDMDL
MODEL 2
REMARK VINA RESULT:      -8.7      2.711      8.175
REMARK  Name = 
REMARK  7 active torsions:
REMARK  status: ('A' for Active; 'I' for Inactive)
REMARK    1  A    between atoms: C_6  and  C_10
REMARK    2  A    between atoms: N_17  and  C_20
REMARK    3  A    between atoms: C_19  and  C_21
REMARK    4  A    between atoms: C_20  and  C_22
REMARK    5  A    between atoms: C_21  and  C_23
REMARK    6  A    between atoms: C_21  and  C_24
REMARK    7  A    between atoms: C_23  and  C_27
REMARK                            x       y       z     vdW  Elec       q    Type
REMARK                         _______ _______ _______ _____ _____    ______ ____
ROOT
ATOM      1  C   UNL     1     -11.092  55.801  49.260  0.00  0.00    +0.000 C 
ATOM      2  C   UNL     1     -11.406  54.485  48.694  0.00  0.00    +0.000 C 
ATOM      3  C   UNL     1      -9.755  55.860  49.308  0.00  0.00    +0.000 C 
ATOM      4  O   UNL     1     -12.535  54.018  48.676  0.00  0.00    +0.000 OA
ATOM      5  N   UNL     1     -10.231  53.909  48.251  0.00  0.00    +0.000 N 
ATOM      6  O   UNL     1      -9.032  56.888  49.860  0.00  0.00    +0.000 OA
ATOM      7  C   UNL     1      -9.049  54.645  48.714  0.00  0.00    +0.000 C 
ENDROOT
BRANCH   1  13
ATOM      8  S   UNL     1     -13.371  58.966  49.384  0.00  0.00    +0.000 S 
ATOM      9  O   UNL     1     -14.419  58.803  48.396  0.00  0.00    +0.000 OA
ATOM     10  O   UNL     1     -12.745  60.258  49.583  0.00  0.00    +0.000 OA
ATOM     11  N   UNL     1     -12.194  57.895  49.052  0.00  0.00    +0.000 N 
ATOM     12  C   UNL     1     -14.089  58.528  50.929  0.00  0.00    +0.000 A 
ATOM     13  C   UNL     1     -12.121  56.780  49.717  0.00  0.00    +0.000 C 
ATOM     14  C   UNL     1     -13.778  57.282  51.451  0.00  0.00    +0.000 A 
ATOM     15  C   UNL     1     -14.943  59.417  51.588  0.00  0.00    +0.000 A 
ATOM     16  N   UNL     1     -12.907  56.423  50.790  0.00  0.00    +0.000 N 
ATOM     17  C   UNL     1     -14.345  56.918  52.676  0.00  0.00    +0.000 A 
ATOM     18  C   UNL     1     -15.496  59.044  52.809  0.00  0.00    +0.000 A 
ATOM     19  C   UNL     1     -15.199  57.795  53.354  0.00  0.00    +0.000 A 
ATOM     20  H   UNL     1     -11.535  58.091  48.348  0.00  0.00    +0.000 HD
ATOM     21  H   UNL     1     -12.850  55.494  51.110  0.00  0.00    +0.000 HD
ENDBRANCH   1  13
BRANCH   7  22
ATOM     22  C   UNL     1      -7.995  54.995  47.612  0.00  0.00    +0.000 C 
ATOM     23  C   UNL     1      -6.935  53.887  47.450  0.00  0.00    +0.000 C 
BRANCH  22  24
ATOM     24  C   UNL     1      -8.567  55.298  46.204  0.00  0.00    +0.000 C 
ATOM     25  C   UNL     1      -7.735  54.789  45.033  0.00  0.00    +0.000 C 
ENDBRANCH  22  24
ENDBRANCH   7  22
BRANCH   5  26
ATOM     26  C   UNL     1     -10.234  52.509  47.860  0.00  0.00    +0.000 C 
BRANCH  26  27
ATOM     27  C   UNL     1     -10.188  52.267  46.362  0.00  0.00    +0.000 A 
ATOM     28  C   UNL     1     -11.087  52.845  45.451  0.00  0.00    +0.000 A 
ATOM     29  C   UNL     1      -9.183  51.426  45.855  0.00  0.00    +0.000 A 
ATOM     30  C   UNL     1     -10.967  52.614  44.078  0.00  0.00    +0.000 A 
ATOM     31  C   UNL     1      -9.062  51.198  44.482  0.00  0.00    +0.000 A 
ATOM     32  C   UNL     1      -9.949  51.798  43.593  0.00  0.00    +0.000 A 
ENDBRANCH  26  27
ENDBRANCH   5  26
TORSDOF 5
ENDMDL
MODEL 3
REMARK VINA RESULT:      -8.5      3.421      5.872
REMARK  Name = 
REMARK  7 active torsions:
REMARK  status: ('A' for Active; 'I' for Inactive)
REMARK    1  A    between atoms: C_6  and  C_10
REMARK    2  A    between atoms: N_17  and  C_20
REMARK    3  A    between atoms: C_19  and  C_21
REMARK    4  A    between atoms: C_20  and  C_22
REMARK    5  A    between atoms: C_21  and  C_23
REMARK    6  A    between atoms: C_21  and  C_24
REMARK    7  A    between atoms: C_23  and  C_27
REMARK                            x       y       z     vdW  Elec       q    Type
REMARK                         _______ _______ _______ _____ _____    ______ ____
ROOT
ATOM      1  C   UNL     1      -9.461  54.934  50.093  0.00  0.00    +0.000 C 
ATOM      2  C   UNL     1     -10.606  54.695  50.977  0.00  0.00    +0.000 C 
ATOM      3  C   UNL     1      -9.989  55.238  48.900  0.00  0.00    +0.000 C 
ATOM      4  O   UNL     1     -10.497  54.217  52.096  0.00  0.00    +0.000 OA
ATOM      5  N   UNL     1     -11.758  55.064  50.310  0.00  0.00    +0.000 N 
ATOM      6  O   UNL     1      -9.267  55.445  47.750  0.00  0.00    +0.000 OA
ATOM      7  C   UNL     1     -11.512  55.312  48.885  0.00  0.00    +0.000 C 
ENDROOT
BRANCH   1  13
ATOM      8  S   UNL     1      -5.630  54.208  49.941  0.00  0.00    +0.000 S 
ATOM      9  O   UNL     1      -4.989  55.324  49.272  0.00  0.00    +0.000 OA
ATOM     10  O   UNL     1      -5.197  52.850  49.680  0.00  0.00    +0.000 OA
ATOM     11  N   UNL     1      -7.224  54.283  49.629  0.00  0.00    +0.000 N 
ATOM     12  C   UNL     1      -5.395  54.475  51.663  0.00  0.00    +0.000 A 
ATOM     13  C   UNL     1      -8.037  54.785  50.512  0.00  0.00    +0.000 C 
ATOM     14  C   UNL     1      -6.472  54.957  52.390  0.00  0.00    +0.000 A 
ATOM     15  C   UNL     1      -4.158  54.208  52.257  0.00  0.00    +0.000 A 
ATOM     16  N   UNL     1      -7.701  55.193  51.783  0.00  0.00    +0.000 N 
ATOM     17  C   UNL     1      -6.300  55.178  53.760  0.00  0.00    +0.000 A 
ATOM     18  C   UNL     1      -4.003  54.427  53.622  0.00  0.00    +0.000 A 
ATOM     19  C   UNL     1      -5.071  54.913  54.375  0.00  0.00    +0.000 A 
ATOM     20  H   UNL     1      -7.575  53.949  48.773  0.00  0.00    +0.000 HD
ATOM     21  H   UNL     1      -8.378  55.689  52.299  0.00  0.00    +0.000 HD
ENDBRANCH   1  13
BRANCH   7  22
ATOM     22  C   UNL     1     -12.080  56.658  48.324  0.00  0.00    +0.000 C 
ATOM     23  C   UNL     1     -13.509  56.497  47.766  0.00  0.00    +0.000 C 
BRANCH  22  24
ATOM     24  C   UNL     1     -12.101  57.846  49.317  0.00  0.00    +0.000 C 
ATOM     25  C   UNL     1     -13.349  58.720  49.270  0.00  0.00    +0.000 C 
ENDBRANCH  22  24
ENDBRANCH   7  22
BRANCH   5  26
ATOM     26  C   UNL     1     -13.048  54.710  50.878  0.00  0.00    +0.000 C 
BRANCH  26  27
ATOM     27  C   UNL     1     -13.798  55.863  51.520  0.00  0.00    +0.000 A 
ATOM     28  C   UNL     1     -13.242  56.707  52.495  0.00  0.00    +0.000 A 
ATOM     29  C   UNL     1     -15.120  56.108  51.110  0.00  0.00    +0.000 A 
ATOM     30  C   UNL     1     -13.972  57.777  53.020  0.00  0.00    +0.000 A 
ATOM     31  C   UNL     1     -15.847  57.180  51.632  0.00  0.00    +0.000 A 
ATOM     32  C   UNL     1     -15.272  58.019  52.582  0.00  0.00    +0.000 A 
ENDBRANCH  26  27
ENDBRANCH   5  26
TORSDOF 5
ENDMDL
MODEL 4
REMARK VINA RESULT:      -8.4      2.791      8.167
REMARK  Name = 
REMARK  7 active torsions:
REMARK  status: ('A' for Active; 'I' for Inactive)
REMARK    1  A    between atoms: C_6  and  C_10
REMARK    2  A    between atoms: N_17  and  C_20
REMARK    3  A    between atoms: C_19  and  C_21
REMARK    4  A    between atoms: C_20  and  C_22
REMARK    5  A    between atoms: C_21  and  C_23
REMARK    6  A    between atoms: C_21  and  C_24
REMARK    7  A    between atoms: C_23  and  C_27
REMARK                            x       y       z     vdW  Elec       q    Type
REMARK                         _______ _______ _______ _____ _____    ______ ____
ROOT
ATOM      1  C   UNL     1     -11.245  55.037  49.174  0.00  0.00    +0.000 C 
ATOM      2  C   UNL     1     -11.456  53.813  48.395  0.00  0.00    +0.000 C 
ATOM      3  C   UNL     1      -9.921  55.124  49.352  0.00  0.00    +0.000 C 
ATOM      4  O   UNL     1     -12.561  53.325  48.205  0.00  0.00    +0.000 OA
ATOM      5  N   UNL     1     -10.226  53.341  47.981  0.00  0.00    +0.000 N 
ATOM      6  O   UNL     1      -9.290  56.076  50.114  0.00  0.00    +0.000 OA
ATOM      7  C   UNL     1      -9.118  54.030  48.653  0.00  0.00    +0.000 C 
ENDROOT
BRANCH   1  13
ATOM      8  S   UNL     1     -14.559  56.169  50.896  0.00  0.00    +0.000 S 
ATOM      9  O   UNL     1     -14.349  56.148  52.330  0.00  0.00    +0.000 OA
ATOM     10  O   UNL     1     -15.817  55.717  50.333  0.00  0.00    +0.000 OA
ATOM     11  N   UNL     1     -13.371  55.304  50.200  0.00  0.00    +0.000 N 
ATOM     12  C   UNL     1     -14.377  57.847  50.402  0.00  0.00    +0.000 A 
ATOM     13  C   UNL     1     -12.348  55.910  49.673  0.00  0.00    +0.000 C 
ATOM     14  C   UNL     1     -13.189  58.209  49.788  0.00  0.00    +0.000 A 
ATOM     15  C   UNL     1     -15.403  58.767  50.635  0.00  0.00    +0.000 A 
ATOM     16  N   UNL     1     -12.190  57.271  49.545  0.00  0.00    +0.000 N 
ATOM     17  C   UNL     1     -13.027  59.541  49.393  0.00  0.00    +0.000 A 
ATOM     18  C   UNL     1     -15.231  60.087  50.232  0.00  0.00    +0.000 A 
ATOM     19  C   UNL     1     -14.044  60.477  49.612  0.00  0.00    +0.000 A 
ATOM     20  H   UNL     1     -13.426  54.322  50.176  0.00  0.00    +0.000 HD
ATOM     21  H   UNL     1     -11.308  57.605  49.262  0.00  0.00    +0.000 HD
ENDBRANCH   1  13
BRANCH   7  22
ATOM     22  C   UNL     1      -7.988  54.569  47.716  0.00  0.00    +0.000 C 
ATOM     23  C   UNL     1      -6.958  53.478  47.362  0.00  0.00    +0.000 C 
BRANCH  22  24
ATOM     24  C   UNL     1      -8.462  55.207  46.386  0.00  0.00    +0.000 C 
ATOM     25  C   UNL     1      -7.694  54.778  45.141  0.00  0.00    +0.000 C 
ENDBRANCH  22  24
ENDBRANCH   7  22
BRANCH   5  26
ATOM     26  C   UNL     1     -10.140  52.016  47.391  0.00  0.00    +0.000 C 
BRANCH  26  27
ATOM     27  C   UNL     1      -9.962  52.002  45.884  0.00  0.00    +0.000 A 
ATOM     28  C   UNL     1     -10.758  52.746  44.998  0.00  0.00    +0.000 A 
ATOM     29  C   UNL     1      -8.936  51.209  45.341  0.00  0.00    +0.000 A 
ATOM     30  C   UNL     1     -10.519  52.721  43.621  0.00  0.00    +0.000 A 
ATOM     31  C   UNL     1      -8.695  51.187  43.966  0.00  0.00    +0.000 A 
ATOM     32  C   UNL     1      -9.481  51.948  43.106  0.00  0.00    +0.000 A 
ENDBRANCH  26  27
ENDBRANCH   5  26
TORSDOF 5
ENDMDL
MODEL 5
REMARK VINA RESULT:      -8.3      3.736      6.085
REMARK  Name = 
REMARK  7 active torsions:
REMARK  status: ('A' for Active; 'I' for Inactive)
REMARK    1  A    between atoms: C_6  and  C_10
REMARK    2  A    between atoms: N_17  and  C_20
REMARK    3  A    between atoms: C_19  and  C_21
REMARK    4  A    between atoms: C_20  and  C_22
REMARK    5  A    between atoms: C_21  and  C_23
REMARK    6  A    between atoms: C_21  and  C_24
REMARK    7  A    between atoms: C_23  and  C_27
REMARK                            x       y       z     vdW  Elec       q    Type
REMARK                         _______ _______ _______ _____ _____    ______ ____
ROOT
ATOM      1  C   UNL     1     -10.244  54.291  50.693  0.00  0.00    +0.000 C 
ATOM      2  C   UNL     1     -11.407  55.055  51.154  0.00  0.00    +0.000 C 
ATOM      3  C   UNL     1     -10.627  53.714  49.547  0.00  0.00    +0.000 C 
ATOM      4  O   UNL     1     -11.476  55.562  52.264  0.00  0.00    +0.000 OA
ATOM      5  N   UNL     1     -12.359  55.049  50.153  0.00  0.00    +0.000 N 
ATOM      6  O   UNL     1      -9.871  52.827  48.821  0.00  0.00    +0.000 OA
ATOM      7  C   UNL     1     -12.034  54.090  49.091  0.00  0.00    +0.000 C 
ENDROOT
BRANCH   1  13
ATOM      8  S   UNL     1      -7.708  54.160  53.655  0.00  0.00    +0.000 S 
ATOM      9  O   UNL     1      -7.813  52.855  54.278  0.00  0.00    +0.000 OA
ATOM     10  O   UNL     1      -7.536  55.348  54.468  0.00  0.00    +0.000 OA
ATOM     11  N   UNL     1      -9.025  54.384  52.729  0.00  0.00    +0.000 N 
ATOM     12  C   UNL     1      -6.303  54.082  52.600  0.00  0.00    +0.000 A 
ATOM     13  C   UNL     1      -8.960  54.189  51.446  0.00  0.00    +0.000 C 
ATOM     14  C   UNL     1      -6.530  53.941  51.239  0.00  0.00    +0.000 A 
ATOM     15  C   UNL     1      -5.014  54.157  53.133  0.00  0.00    +0.000 A 
ATOM     16  N   UNL     1      -7.823  53.892  50.728  0.00  0.00    +0.000 N 
ATOM     17  C   UNL     1      -5.424  53.873  50.387  0.00  0.00    +0.000 A 
ATOM     18  C   UNL     1      -3.922  54.093  52.273  0.00  0.00    +0.000 A 
ATOM     19  C   UNL     1      -4.124  53.951  50.901  0.00  0.00    +0.000 A 
ATOM     20  H   UNL     1      -9.873  54.669  53.140  0.00  0.00    +0.000 HD
ATOM     21  H   UNL     1      -7.932  53.625  49.787  0.00  0.00    +0.000 HD
ENDBRANCH   1  13
BRANCH   7  22
ATOM     22  C   UNL     1     -12.102  54.648  47.630  0.00  0.00    +0.000 C 
ATOM     23  C   UNL     1     -11.028  55.723  47.369  0.00  0.00    +0.000 C 
BRANCH  22  24
ATOM     24  C   UNL     1     -11.987  53.594  46.501  0.00  0.00    +0.000 C 
ATOM     25  C   UNL     1     -10.850  53.815  45.509  0.00  0.00    +0.000 C 
ENDBRANCH  22  24
ENDBRANCH   7  22
BRANCH   5  26
ATOM     26  C   UNL     1     -13.696  55.538  50.445  0.00  0.00    +0.000 C 
BRANCH  26  27
ATOM     27  C   UNL     1     -13.847  57.047  50.392  0.00  0.00    +0.000 A 
ATOM     28  C   UNL     1     -13.351  57.844  49.347  0.00  0.00    +0.000 A 
ATOM     29  C   UNL     1     -14.533  57.685  51.440  0.00  0.00    +0.000 A 
ATOM     30  C   UNL     1     -13.557  59.226  49.335  0.00  0.00    +0.000 A 
ATOM     31  C   UNL     1     -14.742  59.066  51.426  0.00  0.00    +0.000 A 
ATOM     32  C   UNL     1     -14.260  59.836  50.371  0.00  0.00    +0.000 A 
ENDBRANCH  26  27
ENDBRANCH   5  26
TORSDOF 5
ENDMDL
MODEL 6
REMARK VINA RESULT:      -8.3      3.398      6.093
REMARK  Name = 
REMARK  7 active torsions:
REMARK  status: ('A' for Active; 'I' for Inactive)
REMARK    1  A    between atoms: C_6  and  C_10
REMARK    2  A    between atoms: N_17  and  C_20
REMARK    3  A    between atoms: C_19  and  C_21
REMARK    4  A    between atoms: C_20  and  C_22
REMARK    5  A    between atoms: C_21  and  C_23
REMARK    6  A    between atoms: C_21  and  C_24
REMARK    7  A    between atoms: C_23  and  C_27
REMARK                            x       y       z     vdW  Elec       q    Type
REMARK                         _______ _______ _______ _____ _____    ______ ____
ROOT
ATOM      1  C   UNL     1      -9.464  54.301  50.111  0.00  0.00    +0.000 C 
ATOM      2  C   UNL     1     -10.575  54.948  50.815  0.00  0.00    +0.000 C 
ATOM      3  C   UNL     1     -10.022  53.661  49.075  0.00  0.00    +0.000 C 
ATOM      4  O   UNL     1     -10.455  55.470  51.914  0.00  0.00    +0.000 OA
ATOM      5  N   UNL     1     -11.714  54.821  50.045  0.00  0.00    +0.000 N 
ATOM      6  O   UNL     1      -9.350  52.842  48.201  0.00  0.00    +0.000 OA
ATOM      7  C   UNL     1     -11.526  53.878  48.936  0.00  0.00    +0.000 C 
ENDROOT
BRANCH   1  13
ATOM      8  S   UNL     1      -5.566  54.122  50.057  0.00  0.00    +0.000 S 
ATOM      9  O   UNL     1      -5.071  55.321  49.408  0.00  0.00    +0.000 OA
ATOM     10  O   UNL     1      -4.939  52.840  49.804  0.00  0.00    +0.000 OA
ATOM     11  N   UNL     1      -7.146  53.974  49.704  0.00  0.00    +0.000 N 
ATOM     12  C   UNL     1      -5.415  54.408  51.785  0.00  0.00    +0.000 A 
ATOM     13  C   UNL     1      -8.044  54.350  50.566  0.00  0.00    +0.000 C 
ATOM     14  C   UNL     1      -6.567  54.729  52.485  0.00  0.00    +0.000 A 
ATOM     15  C   UNL     1      -4.168  54.314  52.410  0.00  0.00    +0.000 A 
ATOM     16  N   UNL     1      -7.802  54.794  51.847  0.00  0.00    +0.000 N 
ATOM     17  C   UNL     1      -6.463  54.964  53.860  0.00  0.00    +0.000 A 
ATOM     18  C   UNL     1      -4.080  54.544  53.780  0.00  0.00    +0.000 A 
ATOM     19  C   UNL     1      -5.225  54.870  54.506  0.00  0.00    +0.000 A 
ATOM     20  H   UNL     1      -7.425  53.599  48.838  0.00  0.00    +0.000 HD
ATOM     21  H   UNL     1      -8.554  55.186  52.346  0.00  0.00    +0.000 HD
ENDBRANCH   1  13
BRANCH   7  22
ATOM     22  C   UNL     1     -11.968  54.393  47.527  0.00  0.00    +0.000 C 
ATOM     23  C   UNL     1     -11.101  55.572  47.041  0.00  0.00    +0.000 C 
BRANCH  22  24
ATOM     24  C   UNL     1     -11.983  53.333  46.397  0.00  0.00    +0.000 C 
ATOM     25  C   UNL     1     -11.263  53.731  45.113  0.00  0.00    +0.000 C 
ENDBRANCH  22  24
ENDBRANCH   7  22
BRANCH   5  26
ATOM     26  C   UNL     1     -13.000  55.174  50.622  0.00  0.00    +0.000 C 
BRANCH  26  27
ATOM     27  C   UNL     1     -13.342  56.651  50.560  0.00  0.00    +0.000 A 
ATOM     28  C   UNL     1     -13.039  57.476  49.464  0.00  0.00    +0.000 A 
ATOM     29  C   UNL     1     -14.009  57.227  51.654  0.00  0.00    +0.000 A 
ATOM     30  C   UNL     1     -13.414  58.821  49.451  0.00  0.00    +0.000 A 
ATOM     31  C   UNL     1     -14.389  58.571  51.639  0.00  0.00    +0.000 A 
ATOM     32  C   UNL     1     -14.098  59.367  50.535  0.00  0.00    +0.000 A 
ENDBRANCH  26  27
ENDBRANCH   5  26
TORSDOF 5
ENDMDL
MODEL 7
REMARK VINA RESULT:      -8.2      4.276      7.973
REMARK  Name = 
REMARK  7 active torsions:
REMARK  status: ('A' for Active; 'I' for Inactive)
REMARK    1  A    between atoms: C_6  and  C_10
REMARK    2  A    between atoms: N_17  and  C_20
REMARK    3  A    between atoms: C_19  and  C_21
REMARK    4  A    between atoms: C_20  and  C_22
REMARK    5  A    between atoms: C_21  and  C_23
REMARK    6  A    between atoms: C_21  and  C_24
REMARK    7  A    between atoms: C_23  and  C_27
REMARK                            x       y       z     vdW  Elec       q    Type
REMARK                         _______ _______ _______ _____ _____    ______ ____
ROOT
ATOM      1  C   UNL     1     -10.957  54.804  50.782  0.00  0.00    +0.000 C 
ATOM      2  C   UNL     1      -9.533  55.150  50.721  0.00  0.00    +0.000 C 
ATOM      3  C   UNL     1     -10.997  53.467  50.848  0.00  0.00    +0.000 C 
ATOM      4  O   UNL     1      -9.130  56.276  50.470  0.00  0.00    +0.000 OA
ATOM      5  N   UNL     1      -8.796  54.006  50.954  0.00  0.00    +0.000 N 
ATOM      6  O   UNL     1     -12.144  52.712  50.826  0.00  0.00    +0.000 OA
ATOM      7  C   UNL     1      -9.628  52.798  50.919  0.00  0.00    +0.000 C 
ENDROOT
BRANCH   1  13
ATOM      8  S   UNL     1     -13.553  57.340  49.349  0.00  0.00    +0.000 S 
ATOM      9  O   UNL     1     -14.622  56.584  48.726  0.00  0.00    +0.000 OA
ATOM     10  O   UNL     1     -13.060  58.556  48.733  0.00  0.00    +0.000 OA
ATOM     11  N   UNL     1     -12.284  56.345  49.555  0.00  0.00    +0.000 N 
ATOM     12  C   UNL     1     -14.149  57.803  50.937  0.00  0.00    +0.000 A 
ATOM     13  C   UNL     1     -12.062  55.804  50.716  0.00  0.00    +0.000 C 
ATOM     14  C   UNL     1     -13.683  57.089  52.030  0.00  0.00    +0.000 A 
ATOM     15  C   UNL     1     -15.062  58.853  51.070  0.00  0.00    +0.000 A 
ATOM     16  N   UNL     1     -12.756  56.064  51.877  0.00  0.00    +0.000 N 
ATOM     17  C   UNL     1     -14.151  57.443  53.300  0.00  0.00    +0.000 A 
ATOM     18  C   UNL     1     -15.515  59.198  52.340  0.00  0.00    +0.000 A 
ATOM     19  C   UNL     1     -15.061  58.494  53.456  0.00  0.00    +0.000 A 
ATOM     20  H   UNL     1     -11.683  56.151  48.800  0.00  0.00    +0.000 HD
ATOM     21  H   UNL     1     -12.585  55.482  52.652  0.00  0.00    +0.000 HD
ENDBRANCH   1  13
BRANCH   7  22
ATOM     22  C   UNL     1      -9.457  51.822  52.130  0.00  0.00    +0.000 C 
ATOM     23  C   UNL     1      -8.293  50.833  51.919  0.00  0.00    +0.000 C 
BRANCH  22  24
ATOM     24  C   UNL     1      -9.251  52.492  53.511  0.00  0.00    +0.000 C 
ATOM     25  C   UNL     1      -8.136  51.903  54.368  0.00  0.00    +0.000 C 
ENDBRANCH  22  24
ENDBRANCH   7  22
BRANCH   5  26
ATOM     26  C   UNL     1      -7.361  54.029  50.719  0.00  0.00    +0.000 C 
BRANCH  26  27
ATOM     27  C   UNL     1      -6.516  54.220  51.965  0.00  0.00    +0.000 A 
ATOM     28  C   UNL     1      -6.752  55.219  52.922  0.00  0.00    +0.000 A 
ATOM     29  C   UNL     1      -5.441  53.340  52.181  0.00  0.00    +0.000 A 
ATOM     30  C   UNL     1      -5.961  55.319  54.069  0.00  0.00    +0.000 A 
ATOM     31  C   UNL     1      -4.652  53.438  53.329  0.00  0.00    +0.000 A 
ATOM     32  C   UNL     1      -4.916  54.422  54.277  0.00  0.00    +0.000 A 
ENDBRANCH  26  27
ENDBRANCH   5  26
TORSDOF 5
ENDMDL
MODEL 8
REMARK VINA RESULT:      -8.1      3.170      7.813
REMARK  Name = 
REMARK  7 active torsions:
REMARK  status: ('A' for Active; 'I' for Inactive)
REMARK    1  A    between atoms: C_6  and  C_10
REMARK    2  A    between atoms: N_17  and  C_20
REMARK    3  A    between atoms: C_19  and  C_21
REMARK    4  A    between atoms: C_20  and  C_22
REMARK    5  A    between atoms: C_21  and  C_23
REMARK    6  A    between atoms: C_21  and  C_24
REMARK    7  A    between atoms: C_23  and  C_27
REMARK                            x       y       z     vdW  Elec       q    Type
REMARK                         _______ _______ _______ _____ _____    ______ ____
ROOT
ATOM      1  C   UNL     1     -12.171  54.597  50.036  0.00  0.00    +0.000 C 
ATOM      2  C   UNL     1     -11.941  54.276  48.624  0.00  0.00    +0.000 C 
ATOM      3  C   UNL     1     -11.613  53.594  50.726  0.00  0.00    +0.000 C 
ATOM      4  O   UNL     1     -12.475  54.882  47.706  0.00  0.00    +0.000 OA
ATOM      5  N   UNL     1     -11.084  53.196  48.556  0.00  0.00    +0.000 N 
ATOM      6  O   UNL     1     -11.678  53.445  52.090  0.00  0.00    +0.000 OA
ATOM      7  C   UNL     1     -10.895  52.560  49.865  0.00  0.00    +0.000 C 
ENDROOT
BRANCH   1  13
ATOM      8  S   UNL     1     -14.375  56.916  52.270  0.00  0.00    +0.000 S 
ATOM      9  O   UNL     1     -13.550  57.406  53.358  0.00  0.00    +0.000 OA
ATOM     10  O   UNL     1     -15.753  56.536  52.509  0.00  0.00    +0.000 OA
ATOM     11  N   UNL     1     -13.621  55.640  51.602  0.00  0.00    +0.000 N 
ATOM     12  C   UNL     1     -14.424  58.209  51.080  0.00  0.00    +0.000 A 
ATOM     13  C   UNL     1     -12.935  55.789  50.508  0.00  0.00    +0.000 C 
ATOM     14  C   UNL     1     -13.629  58.073  49.952  0.00  0.00    +0.000 A 
ATOM     15  C   UNL     1     -15.237  59.327  51.284  0.00  0.00    +0.000 A 
ATOM     16  N   UNL     1     -12.845  56.940  49.757  0.00  0.00    +0.000 N 
ATOM     17  C   UNL     1     -13.654  59.095  48.997  0.00  0.00    +0.000 A 
ATOM     18  C   UNL     1     -15.256  60.334  50.323  0.00  0.00    +0.000 A 
ATOM     19  C   UNL     1     -14.465  60.220  49.180  0.00  0.00    +0.000 A 
ATOM     20  H   UNL     1     -13.684  54.754  52.025  0.00  0.00    +0.000 HD
ATOM     21  H   UNL     1     -12.179  56.964  49.034  0.00  0.00    +0.000 HD
ENDBRANCH   1  13
BRANCH   7  22
ATOM     22  C   UNL     1      -9.409  52.302  50.284  0.00  0.00    +0.000 C 
ATOM     23  C   UNL     1      -8.774  51.145  49.486  0.00  0.00    +0.000 C 
BRANCH  22  24
ATOM     24  C   UNL     1      -8.457  53.518  50.174  0.00  0.00    +0.000 C 
ATOM     25  C   UNL     1      -8.055  54.160  51.497  0.00  0.00    +0.000 C 
ENDBRANCH  22  24
ENDBRANCH   7  22
BRANCH   5  26
ATOM     26  C   UNL     1     -10.880  52.534  47.278  0.00  0.00    +0.000 C 
BRANCH  26  27
ATOM     27  C   UNL     1      -9.836  53.181  46.386  0.00  0.00    +0.000 A 
ATOM     28  C   UNL     1      -9.573  52.771  45.069  0.00  0.00    +0.000 A 
ATOM     29  C   UNL     1      -9.096  54.259  46.902  0.00  0.00    +0.000 A 
ATOM     30  C   UNL     1      -8.625  53.432  44.285  0.00  0.00    +0.000 A 
ATOM     31  C   UNL     1      -8.151  54.923  46.116  0.00  0.00    +0.000 A 
ATOM     32  C   UNL     1      -7.920  54.515  44.806  0.00  0.00    +0.000 A 
ENDBRANCH  26  27
ENDBRANCH   5  26
TORSDOF 5
ENDMDL
MODEL 9
REMARK VINA RESULT:      -8.0      2.792      8.005
REMARK  Name = 
REMARK  7 active torsions:
REMARK  status: ('A' for Active; 'I' for Inactive)
REMARK    1  A    between atoms: C_6  and  C_10
REMARK    2  A    between atoms: N_17  and  C_20
REMARK    3  A    between atoms: C_19  and  C_21
REMARK    4  A    between atoms: C_20  and  C_22
REMARK    5  A    between atoms: C_21  and  C_23
REMARK    6  A    between atoms: C_21  and  C_24
REMARK    7  A    between atoms: C_23  and  C_27
REMARK                            x       y       z     vdW  Elec       q    Type
REMARK                         _______ _______ _______ _____ _____    ______ ____
ROOT
ATOM      1  C   UNL     1     -10.850  55.096  50.220  0.00  0.00    +0.000 C 
ATOM      2  C   UNL     1     -10.534  54.302  49.029  0.00  0.00    +0.000 C 
ATOM      3  C   UNL     1      -9.928  54.759  51.130  0.00  0.00    +0.000 C 
ATOM      4  O   UNL     1     -11.279  54.221  48.064  0.00  0.00    +0.000 OA
ATOM      5  N   UNL     1      -9.318  53.680  49.230  0.00  0.00    +0.000 N 
ATOM      6  O   UNL     1      -9.906  55.200  52.431  0.00  0.00    +0.000 OA
ATOM      7  C   UNL     1      -8.870  53.783  50.623  0.00  0.00    +0.000 C 
ENDROOT
BRANCH   1  13
ATOM      8  S   UNL     1     -13.735  57.520  49.204  0.00  0.00    +0.000 S 
ATOM      9  O   UNL     1     -14.810  56.727  48.642  0.00  0.00    +0.000 OA
ATOM     10  O   UNL     1     -13.385  58.800  48.620  0.00  0.00    +0.000 OA
ATOM     11  N   UNL     1     -12.391  56.606  49.224  0.00  0.00    +0.000 N 
ATOM     12  C   UNL     1     -14.196  57.852  50.868  0.00  0.00    +0.000 A 
ATOM     13  C   UNL     1     -12.019  56.019  50.323  0.00  0.00    +0.000 C 
ATOM     14  C   UNL     1     -13.578  57.113  51.865  0.00  0.00    +0.000 A 
ATOM     15  C   UNL     1     -15.157  58.827  51.154  0.00  0.00    +0.000 A 
ATOM     16  N   UNL     1     -12.607  56.165  51.559  0.00  0.00    +0.000 N 
ATOM     17  C   UNL     1     -13.938  57.362  53.193  0.00  0.00    +0.000 A 
ATOM     18  C   UNL     1     -15.501  59.068  52.480  0.00  0.00    +0.000 A 
ATOM     19  C   UNL     1     -14.893  58.337  53.501  0.00  0.00    +0.000 A 
ATOM     20  H   UNL     1     -11.857  56.497  48.405  0.00  0.00    +0.000 HD
ATOM     21  H   UNL     1     -12.322  55.555  52.277  0.00  0.00    +0.000 HD
ENDBRANCH   1  13
BRANCH   7  22
ATOM     22  C   UNL     1      -7.399  54.275  50.827  0.00  0.00    +0.000 C 
ATOM     23  C   UNL     1      -6.386  53.114  50.767  0.00  0.00    +0.000 C 
BRANCH  22  24
ATOM     24  C   UNL     1      -6.911  55.367  49.843  0.00  0.00    +0.000 C 
ATOM     25  C   UNL     1      -5.457  55.251  49.401  0.00  0.00    +0.000 C 
ENDBRANCH  22  24
ENDBRANCH   7  22
BRANCH   5  26
ATOM     26  C   UNL     1      -8.887  52.652  48.296  0.00  0.00    +0.000 C 
BRANCH  26  27
ATOM     27  C   UNL     1      -8.657  53.137  46.877  0.00  0.00    +0.000 A 
ATOM     28  C   UNL     1      -7.958  54.313  46.560  0.00  0.00    +0.000 A 
ATOM     29  C   UNL     1      -9.161  52.363  45.818  0.00  0.00    +0.000 A 
ATOM     30  C   UNL     1      -7.745  54.687  45.230  0.00  0.00    +0.000 A 
ATOM     31  C   UNL     1      -8.945  52.735  44.489  0.00  0.00    +0.000 A 
ATOM     32  C   UNL     1      -8.231  53.892  44.195  0.00  0.00    +0.000 A 
ENDBRANCH  26  27
ENDBRANCH   5  26
TORSDOF 5
ENDMDL
