MODEL 1
REMARK VINA RESULT:      -7.9      0.000      0.000
REMARK  Name = 
REMARK  8 active torsions:
REMARK  status: ('A' for Active; 'I' for Inactive)
REMARK    1  A    between atoms: C_6  and  C_10
REMARK    2  A    between atoms: N_17  and  C_20
REMARK    3  A    between atoms: C_19  and  C_21
REMARK    4  A    between atoms: C_20  and  C_22
REMARK    5  A    between atoms: C_21  and  C_23
REMARK    6  A    between atoms: C_21  and  C_24
REMARK    7  A    between atoms: C_21  and  C_25
REMARK    8  A    between atoms: C_22  and  C_26
REMARK                            x       y       z     vdW  Elec       q    Type
REMARK                         _______ _______ _______ _____ _____    ______ ____
ROOT
ATOM      1  C   UNL     1     -10.708  55.240  47.854  0.00  0.00    +0.000 C 
ATOM      2  C   UNL     1     -12.086  55.722  47.716  0.00  0.00    +0.000 C 
ATOM      3  C   UNL     1     -10.325  55.575  49.093  0.00  0.00    +0.000 C 
ATOM      4  O   UNL     1     -12.725  55.627  46.679  0.00  0.00    +0.000 OA
ATOM      5  N   UNL     1     -12.474  56.286  48.913  0.00  0.00    +0.000 N 
ATOM      6  O   UNL     1      -9.069  55.373  49.612  0.00  0.00    +0.000 OA
ATOM      7  C   UNL     1     -11.420  56.219  49.938  0.00  0.00    +0.000 C 
ENDROOT
BRANCH   1  13
ATOM      8  S   UNL     1      -7.824  54.254  45.425  0.00  0.00    +0.000 S 
ATOM      9  O   UNL     1      -6.862  53.427  46.130  0.00  0.00    +0.000 OA
ATOM     10  O   UNL     1      -7.369  55.262  44.486  0.00  0.00    +0.000 OA
ATOM     11  N   UNL     1      -8.763  54.993  46.526  0.00  0.00    +0.000 N 
ATOM     12  C   UNL     1      -8.830  53.145  44.502  0.00  0.00    +0.000 A 
ATOM     13  C   UNL     1      -9.954  54.548  46.774  0.00  0.00    +0.000 C 
ATOM     14  C   UNL     1     -10.107  52.887  44.983  0.00  0.00    +0.000 A 
ATOM     15  C   UNL     1      -8.345  52.558  43.328  0.00  0.00    +0.000 A 
ATOM     16  N   UNL     1     -10.580  53.501  46.135  0.00  0.00    +0.000 N 
ATOM     17  C   UNL     1     -10.916  51.999  44.264  0.00  0.00    +0.000 A 
ATOM     18  C   UNL     1      -9.166  51.685  42.622  0.00  0.00    +0.000 A 
ATOM     19  C   UNL     1     -10.450  51.407  43.087  0.00  0.00    +0.000 A 
ATOM     20  H   UNL     1      -8.425  55.782  47.007  0.00  0.00    +0.000 HD
ATOM     21  H   UNL     1     -11.420  53.165  46.522  0.00  0.00    +0.000 HD
ENDBRANCH   1  13
BRANCH   7  22
ATOM     22  C   UNL     1     -11.774  55.422  51.255  0.00  0.00    +0.000 C 
ATOM     23  C   UNL     1     -10.540  55.279  52.182  0.00  0.00    +0.000 C 
ATOM     24  C   UNL     1     -12.818  56.163  52.117  0.00  0.00    +0.000 C 
ATOM     25  C   UNL     1     -12.294  54.008  50.936  0.00  0.00    +0.000 C 
ENDBRANCH   7  22
BRANCH   5  26
ATOM     26  C   UNL     1     -13.807  56.852  49.056  0.00  0.00    +0.000 C 
BRANCH  26  27
ATOM     27  C   UNL     1     -14.010  58.225  48.420  0.00  0.00    +0.000 C 
BRANCH  27  28
ATOM     28  C   UNL     1     -13.731  59.313  49.423  0.00  0.00    +0.000 C 
ATOM     29  C   UNL     1     -14.666  59.536  50.582  0.00  0.00    +0.000 C 
ATOM     30  C   UNL     1     -14.591  60.549  49.474  0.00  0.00    +0.000 C 
ENDBRANCH  27  28
ENDBRANCH  26  27
ENDBRANCH   5  26
TORSDOF 5
ENDMDL
MODEL 2
REMARK VINA RESULT:      -7.7      3.648      6.081
REMARK  Name = 
REMARK  8 active torsions:
REMARK  status: ('A' for Active; 'I' for Inactive)
REMARK    1  A    between atoms: C_6  and  C_10
REMARK    2  A    between atoms: N_17  and  C_20
REMARK    3  A    between atoms: C_19  and  C_21
REMARK    4  A    between atoms: C_20  and  C_22
REMARK    5  A    between atoms: C_21  and  C_23
REMARK    6  A    between atoms: C_21  and  C_24
REMARK    7  A    between atoms: C_21  and  C_25
REMARK    8  A    between atoms: C_22  and  C_26
REMARK                            x       y       z     vdW  Elec       q    Type
REMARK                         _______ _______ _______ _____ _____    ______ ____
ROOT
ATOM      1  C   UNL     1     -10.344  55.087  50.625  0.00  0.00    +0.000 C 
ATOM      2  C   UNL     1     -11.395  55.380  51.604  0.00  0.00    +0.000 C 
ATOM      3  C   UNL     1     -10.963  54.983  49.441  0.00  0.00    +0.000 C 
ATOM      4  O   UNL     1     -11.181  55.485  52.802  0.00  0.00    +0.000 OA
ATOM      5  N   UNL     1     -12.598  55.483  50.936  0.00  0.00    +0.000 N 
ATOM      6  O   UNL     1     -10.352  54.641  48.259  0.00  0.00    +0.000 OA
ATOM      7  C   UNL     1     -12.457  55.287  49.483  0.00  0.00    +0.000 C 
ENDROOT
BRANCH   1  13
ATOM      8  S   UNL     1      -6.529  54.373  50.269  0.00  0.00    +0.000 S 
ATOM      9  O   UNL     1      -5.882  55.512  49.642  0.00  0.00    +0.000 OA
ATOM     10  O   UNL     1      -6.133  53.023  49.914  0.00  0.00    +0.000 OA
ATOM     11  N   UNL     1      -8.129  54.499  50.023  0.00  0.00    +0.000 N 
ATOM     12  C   UNL     1      -6.224  54.533  51.994  0.00  0.00    +0.000 A 
ATOM     13  C   UNL     1      -8.904  54.929  50.968  0.00  0.00    +0.000 C 
ATOM     14  C   UNL     1      -7.272  54.974  52.791  0.00  0.00    +0.000 A 
ATOM     15  C   UNL     1      -4.967  54.220  52.524  0.00  0.00    +0.000 A 
ATOM     16  N   UNL     1      -8.520  55.253  52.250  0.00  0.00    +0.000 N 
ATOM     17  C   UNL     1      -7.042  55.115  54.165  0.00  0.00    +0.000 A 
ATOM     18  C   UNL     1      -4.759  54.358  53.892  0.00  0.00    +0.000 A 
ATOM     19  C   UNL     1      -5.794  54.803  54.713  0.00  0.00    +0.000 A 
ATOM     20  H   UNL     1      -8.513  54.247  49.152  0.00  0.00    +0.000 HD
ATOM     21  H   UNL     1      -9.175  55.713  52.821  0.00  0.00    +0.000 HD
ENDBRANCH   1  13
BRANCH   7  22
ATOM     22  C   UNL     1     -12.897  56.497  48.569  0.00  0.00    +0.000 C 
ATOM     23  C   UNL     1     -14.432  56.710  48.608  0.00  0.00    +0.000 C 
ATOM     24  C   UNL     1     -12.310  57.838  49.061  0.00  0.00    +0.000 C 
ATOM     25  C   UNL     1     -12.486  56.274  47.101  0.00  0.00    +0.000 C 
ENDBRANCH   7  22
BRANCH   5  26
ATOM     26  C   UNL     1     -13.820  55.768  51.672  0.00  0.00    +0.000 C 
BRANCH  26  27
ATOM     27  C   UNL     1     -13.824  57.078  52.457  0.00  0.00    +0.000 C 
BRANCH  27  28
ATOM     28  C   UNL     1     -15.060  57.876  52.139  0.00  0.00    +0.000 C 
ATOM     29  C   UNL     1     -14.952  59.175  51.385  0.00  0.00    +0.000 C 
ATOM     30  C   UNL     1     -15.332  59.182  52.839  0.00  0.00    +0.000 C 
ENDBRANCH  27  28
ENDBRANCH  26  27
ENDBRANCH   5  26
TORSDOF 5
ENDMDL
MODEL 3
REMARK VINA RESULT:      -7.4      2.882      7.800
REMARK  Name = 
REMARK  8 active torsions:
REMARK  status: ('A' for Active; 'I' for Inactive)
REMARK    1  A    between atoms: C_6  and  C_10
REMARK    2  A    between atoms: N_17  and  C_20
REMARK    3  A    between atoms: C_19  and  C_21
REMARK    4  A    between atoms: C_20  and  C_22
REMARK    5  A    between atoms: C_21  and  C_23
REMARK    6  A    between atoms: C_21  and  C_24
REMARK    7  A    between atoms: C_21  and  C_25
REMARK    8  A    between atoms: C_22  and  C_26
REMARK                            x       y       z     vdW  Elec       q    Type
REMARK                         _______ _______ _______ _____ _____    ______ ____
ROOT
ATOM      1  C   UNL     1     -12.103  54.718  48.576  0.00  0.00    +0.000 C 
ATOM      2  C   UNL     1     -11.578  54.916  47.221  0.00  0.00    +0.000 C 
ATOM      3  C   UNL     1     -11.669  53.513  48.966  0.00  0.00    +0.000 C 
ATOM      4  O   UNL     1     -11.833  55.901  46.545  0.00  0.00    +0.000 OA
ATOM      5  N   UNL     1     -10.808  53.823  46.887  0.00  0.00    +0.000 N 
ATOM      6  O   UNL     1     -11.996  52.902  50.152  0.00  0.00    +0.000 OA
ATOM      7  C   UNL     1     -10.739  52.827  47.970  0.00  0.00    +0.000 C 
ENDROOT
BRANCH   1  13
ATOM      8  S   UNL     1     -14.910  56.200  50.838  0.00  0.00    +0.000 S 
ATOM      9  O   UNL     1     -14.526  56.068  52.232  0.00  0.00    +0.000 OA
ATOM     10  O   UNL     1     -16.285  55.965  50.436  0.00  0.00    +0.000 OA
ATOM     11  N   UNL     1     -13.963  55.220  49.955  0.00  0.00    +0.000 N 
ATOM     12  C   UNL     1     -14.548  57.862  50.392  0.00  0.00    +0.000 A 
ATOM     13  C   UNL     1     -12.961  55.703  49.291  0.00  0.00    +0.000 C 
ATOM     14  C   UNL     1     -13.418  58.085  49.616  0.00  0.00    +0.000 A 
ATOM     15  C   UNL     1     -15.381  58.906  50.809  0.00  0.00    +0.000 A 
ATOM     16  N   UNL     1     -12.619  57.032  49.188  0.00  0.00    +0.000 N 
ATOM     17  C   UNL     1     -13.111  59.404  49.261  0.00  0.00    +0.000 A 
ATOM     18  C   UNL     1     -15.065  60.209  50.440  0.00  0.00    +0.000 A 
ATOM     19  C   UNL     1     -13.934  60.459  49.665  0.00  0.00    +0.000 A 
ATOM     20  H   UNL     1     -14.151  54.254  49.923  0.00  0.00    +0.000 HD
ATOM     21  H   UNL     1     -11.750  57.251  48.784  0.00  0.00    +0.000 HD
ENDBRANCH   1  13
BRANCH   7  22
ATOM     22  C   UNL     1      -9.300  52.510  48.539  0.00  0.00    +0.000 C 
ATOM     23  C   UNL     1      -9.360  51.473  49.689  0.00  0.00    +0.000 C 
ATOM     24  C   UNL     1      -8.389  51.856  47.479  0.00  0.00    +0.000 C 
ATOM     25  C   UNL     1      -8.616  53.780  49.080  0.00  0.00    +0.000 C 
ENDBRANCH   7  22
BRANCH   5  26
ATOM     26  C   UNL     1     -10.161  53.755  45.586  0.00  0.00    +0.000 C 
BRANCH  26  27
ATOM     27  C   UNL     1     -10.980  53.094  44.478  0.00  0.00    +0.000 C 
BRANCH  27  28
ATOM     28  C   UNL     1     -10.121  52.144  43.688  0.00  0.00    +0.000 C 
ATOM     29  C   UNL     1      -8.626  52.323  43.651  0.00  0.00    +0.000 C 
ATOM     30  C   UNL     1      -9.444  52.595  42.420  0.00  0.00    +0.000 C 
ENDBRANCH  27  28
ENDBRANCH  26  27
ENDBRANCH   5  26
TORSDOF 5
ENDMDL
MODEL 4
REMARK VINA RESULT:      -7.3      3.692      6.697
REMARK  Name = 
REMARK  8 active torsions:
REMARK  status: ('A' for Active; 'I' for Inactive)
REMARK    1  A    between atoms: C_6  and  C_10
REMARK    2  A    between atoms: N_17  and  C_20
REMARK    3  A    between atoms: C_19  and  C_21
REMARK    4  A    between atoms: C_20  and  C_22
REMARK    5  A    between atoms: C_21  and  C_23
REMARK    6  A    between atoms: C_21  and  C_24
REMARK    7  A    between atoms: C_21  and  C_25
REMARK    8  A    between atoms: C_22  and  C_26
REMARK                            x       y       z     vdW  Elec       q    Type
REMARK                         _______ _______ _______ _____ _____    ______ ____
ROOT
ATOM      1  C   UNL     1     -10.668  53.955  50.544  0.00  0.00    +0.000 C 
ATOM      2  C   UNL     1     -11.557  55.080  50.854  0.00  0.00    +0.000 C 
ATOM      3  C   UNL     1     -11.026  53.530  49.325  0.00  0.00    +0.000 C 
ATOM      4  O   UNL     1     -11.536  55.672  51.923  0.00  0.00    +0.000 OA
ATOM      5  N   UNL     1     -12.378  55.300  49.769  0.00  0.00    +0.000 N 
ATOM      6  O   UNL     1     -10.493  52.439  48.682  0.00  0.00    +0.000 OA
ATOM      7  C   UNL     1     -12.108  54.373  48.657  0.00  0.00    +0.000 C 
ENDROOT
BRANCH   1  13
ATOM      8  S   UNL     1      -8.508  51.492  52.654  0.00  0.00    +0.000 S 
ATOM      9  O   UNL     1      -7.563  50.814  51.786  0.00  0.00    +0.000 OA
ATOM     10  O   UNL     1      -9.175  50.762  53.717  0.00  0.00    +0.000 OA
ATOM     11  N   UNL     1      -9.656  52.170  51.726  0.00  0.00    +0.000 N 
ATOM     12  C   UNL     1      -7.605  52.780  53.440  0.00  0.00    +0.000 A 
ATOM     13  C   UNL     1      -9.622  53.439  51.468  0.00  0.00    +0.000 C 
ATOM     14  C   UNL     1      -7.810  54.076  52.985  0.00  0.00    +0.000 A 
ATOM     15  C   UNL     1      -6.721  52.490  54.486  0.00  0.00    +0.000 A 
ATOM     16  N   UNL     1      -8.713  54.346  51.965  0.00  0.00    +0.000 N 
ATOM     17  C   UNL     1      -7.091  55.111  53.595  0.00  0.00    +0.000 A 
ATOM     18  C   UNL     1      -6.021  53.533  55.085  0.00  0.00    +0.000 A 
ATOM     19  C   UNL     1      -6.207  54.841  54.643  0.00  0.00    +0.000 A 
ATOM     20  H   UNL     1     -10.380  51.615  51.358  0.00  0.00    +0.000 HD
ATOM     21  H   UNL     1      -8.703  55.247  51.570  0.00  0.00    +0.000 HD
ENDBRANCH   1  13
BRANCH   7  22
ATOM     22  C   UNL     1     -11.666  55.029  47.291  0.00  0.00    +0.000 C 
ATOM     23  C   UNL     1     -11.781  54.026  46.115  0.00  0.00    +0.000 C 
ATOM     24  C   UNL     1     -12.585  56.202  46.887  0.00  0.00    +0.000 C 
ATOM     25  C   UNL     1     -10.209  55.527  47.349  0.00  0.00    +0.000 C 
ENDBRANCH   7  22
BRANCH   5  26
ATOM     26  C   UNL     1     -13.369  56.366  49.806  0.00  0.00    +0.000 C 
BRANCH  26  27
ATOM     27  C   UNL     1     -14.649  56.046  50.575  0.00  0.00    +0.000 C 
BRANCH  27  28
ATOM     28  C   UNL     1     -15.082  57.238  51.387  0.00  0.00    +0.000 C 
ATOM     29  C   UNL     1     -14.277  57.675  52.583  0.00  0.00    +0.000 C 
ATOM     30  C   UNL     1     -15.634  57.059  52.778  0.00  0.00    +0.000 C 
ENDBRANCH  27  28
ENDBRANCH  26  27
ENDBRANCH   5  26
TORSDOF 5
ENDMDL
MODEL 5
REMARK VINA RESULT:      -7.2      2.811      7.809
REMARK  Name = 
REMARK  8 active torsions:
REMARK  status: ('A' for Active; 'I' for Inactive)
REMARK    1  A    between atoms: C_6  and  C_10
REMARK    2  A    between atoms: N_17  and  C_20
REMARK    3  A    between atoms: C_19  and  C_21
REMARK    4  A    between atoms: C_20  and  C_22
REMARK    5  A    between atoms: C_21  and  C_23
REMARK    6  A    between atoms: C_21  and  C_24
REMARK    7  A    between atoms: C_21  and  C_25
REMARK    8  A    between atoms: C_22  and  C_26
REMARK                            x       y       z     vdW  Elec       q    Type
REMARK                         _______ _______ _______ _____ _____    ______ ____
ROOT
ATOM      1  C   UNL     1     -12.399  54.916  48.820  0.00  0.00    +0.000 C 
ATOM      2  C   UNL     1     -12.073  54.752  47.399  0.00  0.00    +0.000 C 
ATOM      3  C   UNL     1     -12.044  53.768  49.413  0.00  0.00    +0.000 C 
ATOM      4  O   UNL     1     -12.320  55.600  46.556  0.00  0.00    +0.000 OA
ATOM      5  N   UNL     1     -11.488  53.515  47.225  0.00  0.00    +0.000 N 
ATOM      6  O   UNL     1     -12.247  53.470  50.738  0.00  0.00    +0.000 OA
ATOM      7  C   UNL     1     -11.361  52.766  48.486  0.00  0.00    +0.000 C 
ENDROOT
BRANCH   1  13
ATOM      8  S   UNL     1     -13.436  58.640  49.313  0.00  0.00    +0.000 S 
ATOM      9  O   UNL     1     -14.509  58.968  48.391  0.00  0.00    +0.000 OA
ATOM     10  O   UNL     1     -12.377  59.599  49.570  0.00  0.00    +0.000 OA
ATOM     11  N   UNL     1     -12.741  57.260  48.814  0.00  0.00    +0.000 N 
ATOM     12  C   UNL     1     -14.207  58.337  50.864  0.00  0.00    +0.000 A 
ATOM     13  C   UNL     1     -13.022  56.138  49.397  0.00  0.00    +0.000 C 
ATOM     14  C   UNL     1     -14.330  57.014  51.271  0.00  0.00    +0.000 A 
ATOM     15  C   UNL     1     -14.669  59.402  51.646  0.00  0.00    +0.000 A 
ATOM     16  N   UNL     1     -13.839  55.974  50.493  0.00  0.00    +0.000 N 
ATOM     17  C   UNL     1     -14.950  56.757  52.499  0.00  0.00    +0.000 A 
ATOM     18  C   UNL     1     -15.276  59.127  52.867  0.00  0.00    +0.000 A 
ATOM     19  C   UNL     1     -15.414  57.808  53.295  0.00  0.00    +0.000 A 
ATOM     20  H   UNL     1     -12.103  57.275  48.064  0.00  0.00    +0.000 HD
ATOM     21  H   UNL     1     -14.093  55.057  50.742  0.00  0.00    +0.000 HD
ENDBRANCH   1  13
BRANCH   7  22
ATOM     22  C   UNL     1      -9.895  52.375  48.924  0.00  0.00    +0.000 C 
ATOM     23  C   UNL     1      -9.877  51.718  50.327  0.00  0.00    +0.000 C 
ATOM     24  C   UNL     1      -9.278  51.310  47.993  0.00  0.00    +0.000 C 
ATOM     25  C   UNL     1      -8.971  53.607  48.964  0.00  0.00    +0.000 C 
ENDBRANCH   7  22
BRANCH   5  26
ATOM     26  C   UNL     1     -11.064  53.087  45.901  0.00  0.00    +0.000 C 
BRANCH  26  27
ATOM     27  C   UNL     1      -9.782  53.736  45.380  0.00  0.00    +0.000 C 
BRANCH  27  28
ATOM     28  C   UNL     1      -9.264  52.983  44.184  0.00  0.00    +0.000 C 
ATOM     29  C   UNL     1      -9.653  51.544  43.966  0.00  0.00    +0.000 C 
ATOM     30  C   UNL     1      -8.241  51.888  44.350  0.00  0.00    +0.000 C 
ENDBRANCH  27  28
ENDBRANCH  26  27
ENDBRANCH   5  26
TORSDOF 5
ENDMDL
MODEL 6
REMARK VINA RESULT:      -7.2      4.604      8.236
REMARK  Name = 
REMARK  8 active torsions:
REMARK  status: ('A' for Active; 'I' for Inactive)
REMARK    1  A    between atoms: C_6  and  C_10
REMARK    2  A    between atoms: N_17  and  C_20
REMARK    3  A    between atoms: C_19  and  C_21
REMARK    4  A    between atoms: C_20  and  C_22
REMARK    5  A    between atoms: C_21  and  C_23
REMARK    6  A    between atoms: C_21  and  C_24
REMARK    7  A    between atoms: C_21  and  C_25
REMARK    8  A    between atoms: C_22  and  C_26
REMARK                            x       y       z     vdW  Elec       q    Type
REMARK                         _______ _______ _______ _____ _____    ______ ____
ROOT
ATOM      1  C   UNL     1      -9.501  54.829  51.967  0.00  0.00    +0.000 C 
ATOM      2  C   UNL     1      -9.390  53.880  53.079  0.00  0.00    +0.000 C 
ATOM      3  C   UNL     1      -8.247  55.195  51.670  0.00  0.00    +0.000 C 
ATOM      4  O   UNL     1     -10.360  53.387  53.634  0.00  0.00    +0.000 OA
ATOM      5  N   UNL     1      -8.053  53.690  53.360  0.00  0.00    +0.000 N 
ATOM      6  O   UNL     1      -7.901  56.134  50.729  0.00  0.00    +0.000 OA
ATOM      7  C   UNL     1      -7.172  54.467  52.472  0.00  0.00    +0.000 C 
ENDROOT
BRANCH   1  13
ATOM      8  S   UNL     1     -12.290  55.518  49.333  0.00  0.00    +0.000 S 
ATOM      9  O   UNL     1     -12.978  54.278  49.024  0.00  0.00    +0.000 OA
ATOM     10  O   UNL     1     -11.991  56.468  48.278  0.00  0.00    +0.000 OA
ATOM     11  N   UNL     1     -10.894  55.153  50.078  0.00  0.00    +0.000 N 
ATOM     12  C   UNL     1     -13.317  56.369  50.478  0.00  0.00    +0.000 A 
ATOM     13  C   UNL     1     -10.791  55.262  51.365  0.00  0.00    +0.000 C 
ATOM     14  C   UNL     1     -12.929  56.367  51.812  0.00  0.00    +0.000 A 
ATOM     15  C   UNL     1     -14.476  57.021  50.043  0.00  0.00    +0.000 A 
ATOM     16  N   UNL     1     -11.760  55.738  52.220  0.00  0.00    +0.000 N 
ATOM     17  C   UNL     1     -13.742  57.033  52.737  0.00  0.00    +0.000 A 
ATOM     18  C   UNL     1     -15.268  57.684  50.976  0.00  0.00    +0.000 A 
ATOM     19  C   UNL     1     -14.901  57.693  52.320  0.00  0.00    +0.000 A 
ATOM     20  H   UNL     1     -10.121  54.847  49.550  0.00  0.00    +0.000 HD
ATOM     21  H   UNL     1     -11.613  55.624  53.186  0.00  0.00    +0.000 HD
ENDBRANCH   1  13
BRANCH   7  22
ATOM     22  C   UNL     1      -6.159  53.636  51.591  0.00  0.00    +0.000 C 
ATOM     23  C   UNL     1      -5.082  52.943  52.465  0.00  0.00    +0.000 C 
ATOM     24  C   UNL     1      -6.854  52.476  50.847  0.00  0.00    +0.000 C 
ATOM     25  C   UNL     1      -5.435  54.532  50.567  0.00  0.00    +0.000 C 
ENDBRANCH   7  22
BRANCH   5  26
ATOM     26  C   UNL     1      -7.652  52.791  54.431  0.00  0.00    +0.000 C 
BRANCH  26  27
ATOM     27  C   UNL     1      -8.070  51.332  54.256  0.00  0.00    +0.000 C 
BRANCH  27  28
ATOM     28  C   UNL     1      -8.803  50.847  55.478  0.00  0.00    +0.000 C 
ATOM     29  C   UNL     1      -8.083  50.033  56.522  0.00  0.00    +0.000 C 
ATOM     30  C   UNL     1      -9.122  49.384  55.651  0.00  0.00    +0.000 C 
ENDBRANCH  27  28
ENDBRANCH  26  27
ENDBRANCH   5  26
TORSDOF 5
ENDMDL
MODEL 7
REMARK VINA RESULT:      -7.1      1.789      2.000
REMARK  Name = 
REMARK  8 active torsions:
REMARK  status: ('A' for Active; 'I' for Inactive)
REMARK    1  A    between atoms: C_6  and  C_10
REMARK    2  A    between atoms: N_17  and  C_20
REMARK    3  A    between atoms: C_19  and  C_21
REMARK    4  A    between atoms: C_20  and  C_22
REMARK    5  A    between atoms: C_21  and  C_23
REMARK    6  A    between atoms: C_21  and  C_24
REMARK    7  A    between atoms: C_21  and  C_25
REMARK    8  A    between atoms: C_22  and  C_26
REMARK                            x       y       z     vdW  Elec       q    Type
REMARK                         _______ _______ _______ _____ _____    ______ ____
ROOT
ATOM      1  C   UNL     1     -10.620  54.734  48.024  0.00  0.00    +0.000 C 
ATOM      2  C   UNL     1     -11.948  55.298  47.761  0.00  0.00    +0.000 C 
ATOM      3  C   UNL     1     -10.274  55.162  49.245  0.00  0.00    +0.000 C 
ATOM      4  O   UNL     1     -12.539  55.147  46.703  0.00  0.00    +0.000 OA
ATOM      5  N   UNL     1     -12.351  56.004  48.875  0.00  0.00    +0.000 N 
ATOM      6  O   UNL     1      -9.065  54.923  49.852  0.00  0.00    +0.000 OA
ATOM      7  C   UNL     1     -11.357  55.964  49.961  0.00  0.00    +0.000 C 
ENDROOT
BRANCH   1  13
ATOM      8  S   UNL     1      -9.203  53.339  44.672  0.00  0.00    +0.000 S 
ATOM      9  O   UNL     1      -8.116  54.187  44.217  0.00  0.00    +0.000 OA
ATOM     10  O   UNL     1     -10.154  52.800  43.718  0.00  0.00    +0.000 OA
ATOM     11  N   UNL     1     -10.042  54.148  45.802  0.00  0.00    +0.000 N 
ATOM     12  C   UNL     1      -8.443  51.951  45.440  0.00  0.00    +0.000 A 
ATOM     13  C   UNL     1      -9.867  53.887  47.059  0.00  0.00    +0.000 C 
ATOM     14  C   UNL     1      -8.449  51.905  46.829  0.00  0.00    +0.000 A 
ATOM     15  C   UNL     1      -7.864  50.940  44.666  0.00  0.00    +0.000 A 
ATOM     16  N   UNL     1      -9.055  52.905  47.579  0.00  0.00    +0.000 N 
ATOM     17  C   UNL     1      -7.840  50.811  47.455  0.00  0.00    +0.000 A 
ATOM     18  C   UNL     1      -7.270  49.857  45.305  0.00  0.00    +0.000 A 
ATOM     19  C   UNL     1      -7.260  49.790  46.697  0.00  0.00    +0.000 A 
ATOM     20  H   UNL     1     -10.686  54.842  45.532  0.00  0.00    +0.000 HD
ATOM     21  H   UNL     1      -8.892  52.912  48.549  0.00  0.00    +0.000 HD
ENDBRANCH   1  13
BRANCH   7  22
ATOM     22  C   UNL     1     -11.837  55.329  51.325  0.00  0.00    +0.000 C 
ATOM     23  C   UNL     1     -10.681  55.253  52.354  0.00  0.00    +0.000 C 
ATOM     24  C   UNL     1     -12.913  56.192  52.018  0.00  0.00    +0.000 C 
ATOM     25  C   UNL     1     -12.386  53.903  51.121  0.00  0.00    +0.000 C 
ENDBRANCH   7  22
BRANCH   5  26
ATOM     26  C   UNL     1     -13.642  56.675  48.887  0.00  0.00    +0.000 C 
BRANCH  26  27
ATOM     27  C   UNL     1     -13.617  58.155  48.510  0.00  0.00    +0.000 C 
BRANCH  27  28
ATOM     28  C   UNL     1     -13.765  59.011  49.739  0.00  0.00    +0.000 C 
ATOM     29  C   UNL     1     -14.699  60.193  49.734  0.00  0.00    +0.000 C 
ATOM     30  C   UNL     1     -13.213  60.413  49.769  0.00  0.00    +0.000 C 
ENDBRANCH  27  28
ENDBRANCH  26  27
ENDBRANCH   5  26
TORSDOF 5
ENDMDL
MODEL 8
REMARK VINA RESULT:      -7.0      3.638      6.577
REMARK  Name = 
REMARK  8 active torsions:
REMARK  status: ('A' for Active; 'I' for Inactive)
REMARK    1  A    between atoms: C_6  and  C_10
REMARK    2  A    between atoms: N_17  and  C_20
REMARK    3  A    between atoms: C_19  and  C_21
REMARK    4  A    between atoms: C_20  and  C_22
REMARK    5  A    between atoms: C_21  and  C_23
REMARK    6  A    between atoms: C_21  and  C_24
REMARK    7  A    between atoms: C_21  and  C_25
REMARK    8  A    between atoms: C_22  and  C_26
REMARK                            x       y       z     vdW  Elec       q    Type
REMARK                         _______ _______ _______ _____ _____    ______ ____
ROOT
ATOM      1  C   UNL     1     -10.709  53.983  50.682  0.00  0.00    +0.000 C 
ATOM      2  C   UNL     1     -11.642  55.084  50.939  0.00  0.00    +0.000 C 
ATOM      3  C   UNL     1     -10.991  53.543  49.449  0.00  0.00    +0.000 C 
ATOM      4  O   UNL     1     -11.693  55.681  52.004  0.00  0.00    +0.000 OA
ATOM      5  N   UNL     1     -12.412  55.277  49.812  0.00  0.00    +0.000 N 
ATOM      6  O   UNL     1     -10.396  52.465  48.841  0.00  0.00    +0.000 OA
ATOM      7  C   UNL     1     -12.060  54.353  48.721  0.00  0.00    +0.000 C 
ENDROOT
BRANCH   1  13
ATOM      8  S   UNL     1      -7.274  53.238  52.366  0.00  0.00    +0.000 S 
ATOM      9  O   UNL     1      -6.770  54.448  52.991  0.00  0.00    +0.000 OA
ATOM     10  O   UNL     1      -6.366  52.348  51.665  0.00  0.00    +0.000 OA
ATOM     11  N   UNL     1      -8.454  53.653  51.331  0.00  0.00    +0.000 N 
ATOM     12  C   UNL     1      -7.988  52.286  53.661  0.00  0.00    +0.000 A 
ATOM     13  C   UNL     1      -9.697  53.500  51.662  0.00  0.00    +0.000 C 
ATOM     14  C   UNL     1      -9.374  52.259  53.746  0.00  0.00    +0.000 A 
ATOM     15  C   UNL     1      -7.174  51.587  54.558  0.00  0.00    +0.000 A 
ATOM     16  N   UNL     1     -10.165  52.938  52.828  0.00  0.00    +0.000 N 
ATOM     17  C   UNL     1      -9.957  51.513  54.778  0.00  0.00    +0.000 A 
ATOM     18  C   UNL     1      -7.771  50.844  55.572  0.00  0.00    +0.000 A 
ATOM     19  C   UNL     1      -9.160  50.805  55.681  0.00  0.00    +0.000 A 
ATOM     20  H   UNL     1      -8.225  54.023  50.448  0.00  0.00    +0.000 HD
ATOM     21  H   UNL     1     -11.125  53.023  53.024  0.00  0.00    +0.000 HD
ENDBRANCH   1  13
BRANCH   7  22
ATOM     22  C   UNL     1     -11.566  55.014  47.375  0.00  0.00    +0.000 C 
ATOM     23  C   UNL     1     -11.603  54.006  46.199  0.00  0.00    +0.000 C 
ATOM     24  C   UNL     1     -12.489  56.166  46.924  0.00  0.00    +0.000 C 
ATOM     25  C   UNL     1     -10.124  55.543  47.502  0.00  0.00    +0.000 C 
ENDBRANCH   7  22
BRANCH   5  26
ATOM     26  C   UNL     1     -13.432  56.315  49.791  0.00  0.00    +0.000 C 
BRANCH  26  27
ATOM     27  C   UNL     1     -14.734  55.971  50.513  0.00  0.00    +0.000 C 
BRANCH  27  28
ATOM     28  C   UNL     1     -15.253  57.173  51.256  0.00  0.00    +0.000 C 
ATOM     29  C   UNL     1     -14.383  57.875  52.266  0.00  0.00    +0.000 C 
ATOM     30  C   UNL     1     -15.578  57.086  52.725  0.00  0.00    +0.000 C 
ENDBRANCH  27  28
ENDBRANCH  26  27
ENDBRANCH   5  26
TORSDOF 5
ENDMDL
MODEL 9
REMARK VINA RESULT:      -6.8      2.309      3.225
REMARK  Name = 
REMARK  8 active torsions:
REMARK  status: ('A' for Active; 'I' for Inactive)
REMARK    1  A    between atoms: C_6  and  C_10
REMARK    2  A    between atoms: N_17  and  C_20
REMARK    3  A    between atoms: C_19  and  C_21
REMARK    4  A    between atoms: C_20  and  C_22
REMARK    5  A    between atoms: C_21  and  C_23
REMARK    6  A    between atoms: C_21  and  C_24
REMARK    7  A    between atoms: C_21  and  C_25
REMARK    8  A    between atoms: C_22  and  C_26
REMARK                            x       y       z     vdW  Elec       q    Type
REMARK                         _______ _______ _______ _____ _____    ______ ____
ROOT
ATOM      1  C   UNL     1     -10.398  54.134  48.854  0.00  0.00    +0.000 C 
ATOM      2  C   UNL     1     -11.546  54.379  49.732  0.00  0.00    +0.000 C 
ATOM      3  C   UNL     1      -9.365  54.783  49.409  0.00  0.00    +0.000 C 
ATOM      4  O   UNL     1     -12.671  53.971  49.489  0.00  0.00    +0.000 OA
ATOM      5  N   UNL     1     -11.122  55.134  50.806  0.00  0.00    +0.000 N 
ATOM      6  O   UNL     1      -8.107  54.875  48.865  0.00  0.00    +0.000 OA
ATOM      7  C   UNL     1      -9.682  55.439  50.749  0.00  0.00    +0.000 C 
ENDROOT
BRANCH   1  13
ATOM      8  S   UNL     1     -11.325  51.314  46.328  0.00  0.00    +0.000 S 
ATOM      9  O   UNL     1     -12.666  51.542  45.822  0.00  0.00    +0.000 OA
ATOM     10  O   UNL     1     -10.883  49.967  46.640  0.00  0.00    +0.000 OA
ATOM     11  N   UNL     1     -11.123  52.220  47.661  0.00  0.00    +0.000 N 
ATOM     12  C   UNL     1     -10.232  51.911  45.087  0.00  0.00    +0.000 A 
ATOM     13  C   UNL     1     -10.461  53.332  47.601  0.00  0.00    +0.000 C 
ATOM     14  C   UNL     1      -9.607  53.131  45.317  0.00  0.00    +0.000 A 
ATOM     15  C   UNL     1     -10.010  51.171  43.921  0.00  0.00    +0.000 A 
ATOM     16  N   UNL     1      -9.818  53.837  46.494  0.00  0.00    +0.000 N 
ATOM     17  C   UNL     1      -8.741  53.624  44.334  0.00  0.00    +0.000 A 
ATOM     18  C   UNL     1      -9.140  51.673  42.958  0.00  0.00    +0.000 A 
ATOM     19  C   UNL     1      -8.504  52.895  43.164  0.00  0.00    +0.000 A 
ATOM     20  H   UNL     1     -11.505  51.924  48.518  0.00  0.00    +0.000 HD
ATOM     21  H   UNL     1      -9.486  54.762  46.539  0.00  0.00    +0.000 HD
ENDBRANCH   1  13
BRANCH   7  22
ATOM     22  C   UNL     1      -8.807  54.910  51.952  0.00  0.00    +0.000 C 
ATOM     23  C   UNL     1      -7.534  55.773  52.151  0.00  0.00    +0.000 C 
ATOM     24  C   UNL     1      -9.553  55.010  53.299  0.00  0.00    +0.000 C 
ATOM     25  C   UNL     1      -8.362  53.452  51.728  0.00  0.00    +0.000 C 
ENDBRANCH   7  22
BRANCH   5  26
ATOM     26  C   UNL     1     -12.065  55.527  51.841  0.00  0.00    +0.000 C 
BRANCH  26  27
ATOM     27  C   UNL     1     -13.091  56.581  51.429  0.00  0.00    +0.000 C 
BRANCH  27  28
ATOM     28  C   UNL     1     -13.805  57.119  52.640  0.00  0.00    +0.000 C 
ATOM     29  C   UNL     1     -15.307  57.229  52.650  0.00  0.00    +0.000 C 
ATOM     30  C   UNL     1     -14.465  58.473  52.604  0.00  0.00    +0.000 C 
ENDBRANCH  27  28
ENDBRANCH  26  27
ENDBRANCH   5  26
TORSDOF 5
ENDMDL
