MODEL 1
REMARK VINA RESULT:      -8.9      0.000      0.000
REMARK  Name = 
REMARK  7 active torsions:
REMARK  status: ('A' for Active; 'I' for Inactive)
REMARK    1  A    between atoms: C_6  and  C_10
REMARK    2  A    between atoms: N_17  and  C_20
REMARK    3  A    between atoms: C_19  and  C_21
REMARK    4  A    between atoms: C_20  and  C_22
REMARK    5  A    between atoms: C_21  and  C_23
REMARK    6  A    between atoms: C_21  and  C_24
REMARK    7  A    between atoms: C_23  and  C_27
REMARK                            x       y       z     vdW  Elec       q    Type
REMARK                         _______ _______ _______ _____ _____    ______ ____
ROOT
ATOM      1  C   UNL     1     -10.899  55.333  47.957  0.00  0.00    +0.000 C 
ATOM      2  C   UNL     1     -12.208  55.958  47.759  0.00  0.00    +0.000 C 
ATOM      3  C   UNL     1     -10.597  55.531  49.246  0.00  0.00    +0.000 C 
ATOM      4  O   UNL     1     -12.724  56.087  46.659  0.00  0.00    +0.000 OA
ATOM      5  N   UNL     1     -12.693  56.371  48.982  0.00  0.00    +0.000 N 
ATOM      6  O   UNL     1      -9.410  55.164  49.836  0.00  0.00    +0.000 OA
ATOM      7  C   UNL     1     -11.693  56.234  50.056  0.00  0.00    +0.000 C 
ENDROOT
BRANCH   1  13
ATOM      8  S   UNL     1      -7.996  54.404  45.521  0.00  0.00    +0.000 S 
ATOM      9  O   UNL     1      -7.058  53.552  46.233  0.00  0.00    +0.000 OA
ATOM     10  O   UNL     1      -7.508  55.414  44.604  0.00  0.00    +0.000 OA
ATOM     11  N   UNL     1      -8.943  55.145  46.613  0.00  0.00    +0.000 N 
ATOM     12  C   UNL     1      -8.999  53.321  44.562  0.00  0.00    +0.000 A 
ATOM     13  C   UNL     1     -10.131  54.682  46.860  0.00  0.00    +0.000 C 
ATOM     14  C   UNL     1     -10.272  53.047  45.036  0.00  0.00    +0.000 A 
ATOM     15  C   UNL     1      -8.518  52.766  43.372  0.00  0.00    +0.000 A 
ATOM     16  N   UNL     1     -10.740  53.632  46.206  0.00  0.00    +0.000 N 
ATOM     17  C   UNL     1     -11.085  52.183  44.296  0.00  0.00    +0.000 A 
ATOM     18  C   UNL     1      -9.341  51.911  42.642  0.00  0.00    +0.000 A 
ATOM     19  C   UNL     1     -10.625  51.621  43.102  0.00  0.00    +0.000 A 
ATOM     20  H   UNL     1      -8.617  55.943  47.088  0.00  0.00    +0.000 HD
ATOM     21  H   UNL     1     -11.567  53.270  46.597  0.00  0.00    +0.000 HD
ENDBRANCH   1  13
BRANCH   7  22
ATOM     22  C   UNL     1     -12.137  55.414  51.320  0.00  0.00    +0.000 C 
ATOM     23  C   UNL     1     -12.493  53.949  50.986  0.00  0.00    +0.000 C 
BRANCH  22  24
ATOM     24  C   UNL     1     -11.122  55.364  52.489  0.00  0.00    +0.000 C 
ATOM     25  C   UNL     1     -10.628  53.974  52.863  0.00  0.00    +0.000 C 
ENDBRANCH  22  24
ENDBRANCH   7  22
BRANCH   5  26
ATOM     26  C   UNL     1     -13.938  57.119  49.016  0.00  0.00    +0.000 C 
BRANCH  26  27
ATOM     27  C   UNL     1     -14.455  57.496  50.381  0.00  0.00    +0.000 A 
ATOM     28  C   UNL     1     -15.250  56.618  51.132  0.00  0.00    +0.000 A 
ATOM     29  C   UNL     1     -14.011  58.683  50.983  0.00  0.00    +0.000 A 
ATOM     30  C   UNL     1     -15.593  56.921  52.452  0.00  0.00    +0.000 A 
ATOM     31  C   UNL     1     -14.351  58.983  52.303  0.00  0.00    +0.000 A 
ATOM     32  C   UNL     1     -15.140  58.101  53.037  0.00  0.00    +0.000 A 
ENDBRANCH  26  27
ENDBRANCH   5  26
TORSDOF 5
ENDMDL
MODEL 2
REMARK VINA RESULT:      -8.7      2.693      8.096
REMARK  Name = 
REMARK  7 active torsions:
REMARK  status: ('A' for Active; 'I' for Inactive)
REMARK    1  A    between atoms: C_6  and  C_10
REMARK    2  A    between atoms: N_17  and  C_20
REMARK    3  A    between atoms: C_19  and  C_21
REMARK    4  A    between atoms: C_20  and  C_22
REMARK    5  A    between atoms: C_21  and  C_23
REMARK    6  A    between atoms: C_21  and  C_24
REMARK    7  A    between atoms: C_23  and  C_27
REMARK                            x       y       z     vdW  Elec       q    Type
REMARK                         _______ _______ _______ _____ _____    ______ ____
ROOT
ATOM      1  C   UNL     1     -11.080  55.774  49.294  0.00  0.00    +0.000 C 
ATOM      2  C   UNL     1     -11.407  54.455  48.750  0.00  0.00    +0.000 C 
ATOM      3  C   UNL     1      -9.743  55.823  49.341  0.00  0.00    +0.000 C 
ATOM      4  O   UNL     1     -12.547  54.019  48.702  0.00  0.00    +0.000 OA
ATOM      5  N   UNL     1     -10.240  53.835  48.356  0.00  0.00    +0.000 N 
ATOM      6  O   UNL     1      -9.017  56.868  49.862  0.00  0.00    +0.000 OA
ATOM      7  C   UNL     1      -9.040  54.587  48.767  0.00  0.00    +0.000 C 
ENDROOT
BRANCH   1  13
ATOM      8  S   UNL     1     -13.357  58.941  49.386  0.00  0.00    +0.000 S 
ATOM      9  O   UNL     1     -14.404  58.779  48.390  0.00  0.00    +0.000 OA
ATOM     10  O   UNL     1     -12.739  60.236  49.586  0.00  0.00    +0.000 OA
ATOM     11  N   UNL     1     -12.176  57.874  49.062  0.00  0.00    +0.000 N 
ATOM     12  C   UNL     1     -14.087  58.506  50.928  0.00  0.00    +0.000 A 
ATOM     13  C   UNL     1     -12.112  56.758  49.722  0.00  0.00    +0.000 C 
ATOM     14  C   UNL     1     -13.789  57.256  51.443  0.00  0.00    +0.000 A 
ATOM     15  C   UNL     1     -14.932  59.398  51.596  0.00  0.00    +0.000 A 
ATOM     16  N   UNL     1     -12.923  56.397  50.778  0.00  0.00    +0.000 N 
ATOM     17  C   UNL     1     -14.362  56.885  52.663  0.00  0.00    +0.000 A 
ATOM     18  C   UNL     1     -15.493  59.018  52.813  0.00  0.00    +0.000 A 
ATOM     19  C   UNL     1     -15.207  57.763  53.348  0.00  0.00    +0.000 A 
ATOM     20  H   UNL     1     -11.510  58.073  48.365  0.00  0.00    +0.000 HD
ATOM     21  H   UNL     1     -12.886  55.462  51.081  0.00  0.00    +0.000 HD
ENDBRANCH   1  13
BRANCH   7  22
ATOM     22  C   UNL     1      -8.017  54.940  47.629  0.00  0.00    +0.000 C 
ATOM     23  C   UNL     1      -6.977  53.823  47.393  0.00  0.00    +0.000 C 
BRANCH  22  24
ATOM     24  C   UNL     1      -8.628  55.269  46.244  0.00  0.00    +0.000 C 
ATOM     25  C   UNL     1      -7.783  54.862  45.045  0.00  0.00    +0.000 C 
ENDBRANCH  22  24
ENDBRANCH   7  22
BRANCH   5  26
ATOM     26  C   UNL     1     -10.310  52.464  47.881  0.00  0.00    +0.000 C 
BRANCH  26  27
ATOM     27  C   UNL     1     -10.310  52.272  46.386  0.00  0.00    +0.000 A 
ATOM     28  C   UNL     1     -11.213  52.957  45.560  0.00  0.00    +0.000 A 
ATOM     29  C   UNL     1      -9.292  51.515  45.787  0.00  0.00    +0.000 A 
ATOM     30  C   UNL     1     -11.101  52.884  44.169  0.00  0.00    +0.000 A 
ATOM     31  C   UNL     1      -9.178  51.446  44.398  0.00  0.00    +0.000 A 
ATOM     32  C   UNL     1     -10.081  52.132  43.590  0.00  0.00    +0.000 A 
ENDBRANCH  26  27
ENDBRANCH   5  26
TORSDOF 5
ENDMDL
MODEL 3
REMARK VINA RESULT:      -8.5      3.410      5.799
REMARK  Name = 
REMARK  7 active torsions:
REMARK  status: ('A' for Active; 'I' for Inactive)
REMARK    1  A    between atoms: C_6  and  C_10
REMARK    2  A    between atoms: N_17  and  C_20
REMARK    3  A    between atoms: C_19  and  C_21
REMARK    4  A    between atoms: C_20  and  C_22
REMARK    5  A    between atoms: C_21  and  C_23
REMARK    6  A    between atoms: C_21  and  C_24
REMARK    7  A    between atoms: C_23  and  C_27
REMARK                            x       y       z     vdW  Elec       q    Type
REMARK                         _______ _______ _______ _____ _____    ______ ____
ROOT
ATOM      1  C   UNL     1      -9.862  55.066  50.043  0.00  0.00    +0.000 C 
ATOM      2  C   UNL     1     -11.021  54.806  50.899  0.00  0.00    +0.000 C 
ATOM      3  C   UNL     1     -10.366  55.402  48.849  0.00  0.00    +0.000 C 
ATOM      4  O   UNL     1     -10.925  54.339  52.024  0.00  0.00    +0.000 OA
ATOM      5  N   UNL     1     -12.166  55.145  50.212  0.00  0.00    +0.000 N 
ATOM      6  O   UNL     1      -9.612  55.655  47.726  0.00  0.00    +0.000 OA
ATOM      7  C   UNL     1     -11.897  55.476  48.800  0.00  0.00    +0.000 C 
ENDROOT
BRANCH   1  13
ATOM      8  S   UNL     1      -6.027  54.347  50.034  0.00  0.00    +0.000 S 
ATOM      9  O   UNL     1      -5.352  55.484  49.430  0.00  0.00    +0.000 OA
ATOM     10  O   UNL     1      -5.574  53.000  49.754  0.00  0.00    +0.000 OA
ATOM     11  N   UNL     1      -7.604  54.428  49.649  0.00  0.00    +0.000 N 
ATOM     12  C   UNL     1      -5.871  54.562  51.775  0.00  0.00    +0.000 A 
ATOM     13  C   UNL     1      -8.455  54.908  50.503  0.00  0.00    +0.000 C 
ATOM     14  C   UNL     1      -6.979  55.036  52.459  0.00  0.00    +0.000 A 
ATOM     15  C   UNL     1      -4.672  54.262  52.428  0.00  0.00    +0.000 A 
ATOM     16  N   UNL     1      -8.170  55.299  51.794  0.00  0.00    +0.000 N 
ATOM     17  C   UNL     1      -6.878  55.222  53.841  0.00  0.00    +0.000 A 
ATOM     18  C   UNL     1      -4.586  54.447  53.806  0.00  0.00    +0.000 A 
ATOM     19  C   UNL     1      -5.689  54.924  54.513  0.00  0.00    +0.000 A 
ATOM     20  H   UNL     1      -7.913  54.113  48.769  0.00  0.00    +0.000 HD
ATOM     21  H   UNL     1      -8.861  55.802  52.280  0.00  0.00    +0.000 HD
ENDBRANCH   1  13
BRANCH   7  22
ATOM     22  C   UNL     1     -12.425  56.866  48.298  0.00  0.00    +0.000 C 
ATOM     23  C   UNL     1     -13.881  56.803  47.787  0.00  0.00    +0.000 C 
BRANCH  22  24
ATOM     24  C   UNL     1     -12.371  58.025  49.325  0.00  0.00    +0.000 C 
ATOM     25  C   UNL     1     -13.551  58.986  49.286  0.00  0.00    +0.000 C 
ENDBRANCH  22  24
ENDBRANCH   7  22
BRANCH   5  26
ATOM     26  C   UNL     1     -13.452  54.869  50.830  0.00  0.00    +0.000 C 
BRANCH  26  27
ATOM     27  C   UNL     1     -14.112  56.019  51.546  0.00  0.00    +0.000 A 
ATOM     28  C   UNL     1     -13.422  56.779  52.502  0.00  0.00    +0.000 A 
ATOM     29  C   UNL     1     -15.388  56.441  51.145  0.00  0.00    +0.000 A 
ATOM     30  C   UNL     1     -13.997  57.931  53.045  0.00  0.00    +0.000 A 
ATOM     31  C   UNL     1     -15.960  57.595  51.685  0.00  0.00    +0.000 A 
ATOM     32  C   UNL     1     -15.263  58.340  52.632  0.00  0.00    +0.000 A 
ENDBRANCH  26  27
ENDBRANCH   5  26
TORSDOF 5
ENDMDL
MODEL 4
REMARK VINA RESULT:      -8.3      2.852      8.038
REMARK  Name = 
REMARK  7 active torsions:
REMARK  status: ('A' for Active; 'I' for Inactive)
REMARK    1  A    between atoms: C_6  and  C_10
REMARK    2  A    between atoms: N_17  and  C_20
REMARK    3  A    between atoms: C_19  and  C_21
REMARK    4  A    between atoms: C_20  and  C_22
REMARK    5  A    between atoms: C_21  and  C_23
REMARK    6  A    between atoms: C_21  and  C_24
REMARK    7  A    between atoms: C_23  and  C_27
REMARK                            x       y       z     vdW  Elec       q    Type
REMARK                         _______ _______ _______ _____ _____    ______ ____
ROOT
ATOM      1  C   UNL     1     -11.084  55.325  49.677  0.00  0.00    +0.000 C 
ATOM      2  C   UNL     1     -11.381  54.061  49.002  0.00  0.00    +0.000 C 
ATOM      3  C   UNL     1      -9.749  55.414  49.704  0.00  0.00    +0.000 C 
ATOM      4  O   UNL     1     -12.508  53.594  48.929  0.00  0.00    +0.000 OA
ATOM      5  N   UNL     1     -10.204  53.526  48.523  0.00  0.00    +0.000 N 
ATOM      6  O   UNL     1      -9.044  56.422  50.320  0.00  0.00    +0.000 OA
ATOM      7  C   UNL     1      -9.020  54.270  48.988  0.00  0.00    +0.000 C 
ENDROOT
BRANCH   1  13
ATOM      8  S   UNL     1     -13.952  56.719  51.926  0.00  0.00    +0.000 S 
ATOM      9  O   UNL     1     -13.367  57.191  53.170  0.00  0.00    +0.000 OA
ATOM     10  O   UNL     1     -15.225  56.027  51.938  0.00  0.00    +0.000 OA
ATOM     11  N   UNL     1     -12.872  55.755  51.188  0.00  0.00    +0.000 N 
ATOM     12  C   UNL     1     -14.186  58.152  50.930  0.00  0.00    +0.000 A 
ATOM     13  C   UNL     1     -12.136  56.224  50.228  0.00  0.00    +0.000 C 
ATOM     14  C   UNL     1     -13.272  58.376  49.914  0.00  0.00    +0.000 A 
ATOM     15  C   UNL     1     -15.258  59.019  51.165  0.00  0.00    +0.000 A 
ATOM     16  N   UNL     1     -12.232  57.486  49.679  0.00  0.00    +0.000 N 
ATOM     17  C   UNL     1     -13.432  59.511  49.114  0.00  0.00    +0.000 A 
ATOM     18  C   UNL     1     -15.409  60.144  50.356  0.00  0.00    +0.000 A 
ATOM     19  C   UNL     1     -14.498  60.389  49.330  0.00  0.00    +0.000 A 
ATOM     20  H   UNL     1     -12.776  54.816  51.471  0.00  0.00    +0.000 HD
ATOM     21  H   UNL     1     -11.510  57.776  49.078  0.00  0.00    +0.000 HD
ENDBRANCH   1  13
BRANCH   7  22
ATOM     22  C   UNL     1      -8.034  54.776  47.876  0.00  0.00    +0.000 C 
ATOM     23  C   UNL     1      -6.995  53.709  47.469  0.00  0.00    +0.000 C 
BRANCH  22  24
ATOM     24  C   UNL     1      -8.689  55.272  46.563  0.00  0.00    +0.000 C 
ATOM     25  C   UNL     1      -7.947  54.907  45.285  0.00  0.00    +0.000 C 
ENDBRANCH  22  24
ENDBRANCH   7  22
BRANCH   5  26
ATOM     26  C   UNL     1     -10.242  52.211  47.906  0.00  0.00    +0.000 C 
BRANCH  26  27
ATOM     27  C   UNL     1     -10.303  52.179  46.400  0.00  0.00    +0.000 A 
ATOM     28  C   UNL     1     -11.216  52.970  45.687  0.00  0.00    +0.000 A 
ATOM     29  C   UNL     1      -9.329  51.465  45.685  0.00  0.00    +0.000 A 
ATOM     30  C   UNL     1     -11.157  53.042  44.293  0.00  0.00    +0.000 A 
ATOM     31  C   UNL     1      -9.269  51.541  44.293  0.00  0.00    +0.000 A 
ATOM     32  C   UNL     1     -10.181  52.331  43.598  0.00  0.00    +0.000 A 
ENDBRANCH  26  27
ENDBRANCH   5  26
TORSDOF 5
ENDMDL
MODEL 5
REMARK VINA RESULT:      -8.1      3.197      7.789
REMARK  Name = 
REMARK  7 active torsions:
REMARK  status: ('A' for Active; 'I' for Inactive)
REMARK    1  A    between atoms: C_6  and  C_10
REMARK    2  A    between atoms: N_17  and  C_20
REMARK    3  A    between atoms: C_19  and  C_21
REMARK    4  A    between atoms: C_20  and  C_22
REMARK    5  A    between atoms: C_21  and  C_23
REMARK    6  A    between atoms: C_21  and  C_24
REMARK    7  A    between atoms: C_23  and  C_27
REMARK                            x       y       z     vdW  Elec       q    Type
REMARK                         _______ _______ _______ _____ _____    ______ ____
ROOT
ATOM      1  C   UNL     1     -12.430  54.468  49.878  0.00  0.00    +0.000 C 
ATOM      2  C   UNL     1     -12.153  54.262  48.455  0.00  0.00    +0.000 C 
ATOM      3  C   UNL     1     -11.996  53.362  50.493  0.00  0.00    +0.000 C 
ATOM      4  O   UNL     1     -12.550  55.020  47.583  0.00  0.00    +0.000 OA
ATOM      5  N   UNL     1     -11.427  53.099  48.308  0.00  0.00    +0.000 N 
ATOM      6  O   UNL     1     -12.134  53.110  51.838  0.00  0.00    +0.000 OA
ATOM      7  C   UNL     1     -11.319  52.342  49.569  0.00  0.00    +0.000 C 
ENDROOT
BRANCH   1  13
ATOM      8  S   UNL     1     -14.419  56.861  52.233  0.00  0.00    +0.000 S 
ATOM      9  O   UNL     1     -13.527  57.302  53.292  0.00  0.00    +0.000 OA
ATOM     10  O   UNL     1     -15.803  56.552  52.529  0.00  0.00    +0.000 OA
ATOM     11  N   UNL     1     -13.762  55.555  51.524  0.00  0.00    +0.000 N 
ATOM     12  C   UNL     1     -14.453  58.170  51.055  0.00  0.00    +0.000 A 
ATOM     13  C   UNL     1     -13.110  55.682  50.409  0.00  0.00    +0.000 C 
ATOM     14  C   UNL     1     -13.702  58.009  49.903  0.00  0.00    +0.000 A 
ATOM     15  C   UNL     1     -15.213  59.320  51.287  0.00  0.00    +0.000 A 
ATOM     16  N   UNL     1     -12.977  56.844  49.680  0.00  0.00    +0.000 N 
ATOM     17  C   UNL     1     -13.707  59.037  48.956  0.00  0.00    +0.000 A 
ATOM     18  C   UNL     1     -15.214  60.336  50.333  0.00  0.00    +0.000 A 
ATOM     19  C   UNL     1     -14.463  60.194  49.167  0.00  0.00    +0.000 A 
ATOM     20  H   UNL     1     -13.858  54.668  51.941  0.00  0.00    +0.000 HD
ATOM     21  H   UNL     1     -12.321  56.850  48.947  0.00  0.00    +0.000 HD
ENDBRANCH   1  13
BRANCH   7  22
ATOM     22  C   UNL     1      -9.867  51.968  50.033  0.00  0.00    +0.000 C 
ATOM     23  C   UNL     1      -9.212  50.894  49.137  0.00  0.00    +0.000 C 
BRANCH  22  24
ATOM     24  C   UNL     1      -8.858  53.139  50.122  0.00  0.00    +0.000 C 
ATOM     25  C   UNL     1      -7.455  52.831  49.619  0.00  0.00    +0.000 C 
ENDBRANCH  22  24
ENDBRANCH   7  22
BRANCH   5  26
ATOM     26  C   UNL     1     -11.127  52.635  46.964  0.00  0.00    +0.000 C 
BRANCH  26  27
ATOM     27  C   UNL     1      -9.929  53.254  46.293  0.00  0.00    +0.000 A 
ATOM     28  C   UNL     1      -9.508  52.843  45.020  0.00  0.00    +0.000 A 
ATOM     29  C   UNL     1      -9.309  54.369  46.879  0.00  0.00    +0.000 A 
ATOM     30  C   UNL     1      -8.492  53.529  44.350  0.00  0.00    +0.000 A 
ATOM     31  C   UNL     1      -8.296  55.056  46.207  0.00  0.00    +0.000 A 
ATOM     32  C   UNL     1      -7.890  54.637  44.943  0.00  0.00    +0.000 A 
ENDBRANCH  26  27
ENDBRANCH   5  26
TORSDOF 5
ENDMDL
MODEL 6
REMARK VINA RESULT:      -8.0      3.389      6.090
REMARK  Name = 
REMARK  7 active torsions:
REMARK  status: ('A' for Active; 'I' for Inactive)
REMARK    1  A    between atoms: C_6  and  C_10
REMARK    2  A    between atoms: N_17  and  C_20
REMARK    3  A    between atoms: C_19  and  C_21
REMARK    4  A    between atoms: C_20  and  C_22
REMARK    5  A    between atoms: C_21  and  C_23
REMARK    6  A    between atoms: C_21  and  C_24
REMARK    7  A    between atoms: C_23  and  C_27
REMARK                            x       y       z     vdW  Elec       q    Type
REMARK                         _______ _______ _______ _____ _____    ______ ____
ROOT
ATOM      1  C   UNL     1      -9.490  54.245  50.083  0.00  0.00    +0.000 C 
ATOM      2  C   UNL     1     -10.604  54.865  50.802  0.00  0.00    +0.000 C 
ATOM      3  C   UNL     1     -10.041  53.621  49.035  0.00  0.00    +0.000 C 
ATOM      4  O   UNL     1     -10.476  55.401  51.893  0.00  0.00    +0.000 OA
ATOM      5  N   UNL     1     -11.755  54.705  50.060  0.00  0.00    +0.000 N 
ATOM      6  O   UNL     1      -9.348  52.845  48.135  0.00  0.00    +0.000 OA
ATOM      7  C   UNL     1     -11.555  53.820  48.899  0.00  0.00    +0.000 C 
ENDROOT
BRANCH   1  13
ATOM      8  S   UNL     1      -5.589  54.131  50.094  0.00  0.00    +0.000 S 
ATOM      9  O   UNL     1      -5.096  55.346  49.465  0.00  0.00    +0.000 OA
ATOM     10  O   UNL     1      -4.931  52.865  49.845  0.00  0.00    +0.000 OA
ATOM     11  N   UNL     1      -7.158  53.957  49.706  0.00  0.00    +0.000 N 
ATOM     12  C   UNL     1      -5.476  54.406  51.829  0.00  0.00    +0.000 A 
ATOM     13  C   UNL     1      -8.077  54.318  50.548  0.00  0.00    +0.000 C 
ATOM     14  C   UNL     1      -6.647  54.717  52.502  0.00  0.00    +0.000 A 
ATOM     15  C   UNL     1      -4.248  54.311  52.490  0.00  0.00    +0.000 A 
ATOM     16  N   UNL     1      -7.862  54.777  51.830  0.00  0.00    +0.000 N 
ATOM     17  C   UNL     1      -6.582  54.946  53.879  0.00  0.00    +0.000 A 
ATOM     18  C   UNL     1      -4.198  54.538  53.864  0.00  0.00    +0.000 A 
ATOM     19  C   UNL     1      -5.364  54.853  54.559  0.00  0.00    +0.000 A 
ATOM     20  H   UNL     1      -7.410  53.578  48.832  0.00  0.00    +0.000 HD
ATOM     21  H   UNL     1      -8.625  55.177  52.304  0.00  0.00    +0.000 HD
ENDBRANCH   1  13
BRANCH   7  22
ATOM     22  C   UNL     1     -11.971  54.401  47.501  0.00  0.00    +0.000 C 
ATOM     23  C   UNL     1     -11.060  55.561  47.042  0.00  0.00    +0.000 C 
BRANCH  22  24
ATOM     24  C   UNL     1     -12.015  53.389  46.330  0.00  0.00    +0.000 C 
ATOM     25  C   UNL     1     -11.113  53.718  45.149  0.00  0.00    +0.000 C 
ENDBRANCH  22  24
ENDBRANCH   7  22
BRANCH   5  26
ATOM     26  C   UNL     1     -13.015  55.150  50.632  0.00  0.00    +0.000 C 
BRANCH  26  27
ATOM     27  C   UNL     1     -13.280  56.633  50.594  0.00  0.00    +0.000 A 
ATOM     28  C   UNL     1     -13.018  57.396  49.447  0.00  0.00    +0.000 A 
ATOM     29  C   UNL     1     -13.943  57.243  51.670  0.00  0.00    +0.000 A 
ATOM     30  C   UNL     1     -13.409  58.735  49.378  0.00  0.00    +0.000 A 
ATOM     31  C   UNL     1     -14.338  58.580  51.599  0.00  0.00    +0.000 A 
ATOM     32  C   UNL     1     -14.072  59.325  50.452  0.00  0.00    +0.000 A 
ENDBRANCH  26  27
ENDBRANCH   5  26
TORSDOF 5
ENDMDL
MODEL 7
REMARK VINA RESULT:      -8.0      4.105      7.781
REMARK  Name = 
REMARK  7 active torsions:
REMARK  status: ('A' for Active; 'I' for Inactive)
REMARK    1  A    between atoms: C_6  and  C_10
REMARK    2  A    between atoms: N_17  and  C_20
REMARK    3  A    between atoms: C_19  and  C_21
REMARK    4  A    between atoms: C_20  and  C_22
REMARK    5  A    between atoms: C_21  and  C_23
REMARK    6  A    between atoms: C_21  and  C_24
REMARK    7  A    between atoms: C_23  and  C_27
REMARK                            x       y       z     vdW  Elec       q    Type
REMARK                         _______ _______ _______ _____ _____    ______ ____
ROOT
ATOM      1  C   UNL     1     -10.995  54.788  50.516  0.00  0.00    +0.000 C 
ATOM      2  C   UNL     1      -9.589  55.170  50.655  0.00  0.00    +0.000 C 
ATOM      3  C   UNL     1     -10.996  53.454  50.401  0.00  0.00    +0.000 C 
ATOM      4  O   UNL     1      -9.211  56.332  50.641  0.00  0.00    +0.000 OA
ATOM      5  N   UNL     1      -8.827  54.027  50.767  0.00  0.00    +0.000 N 
ATOM      6  O   UNL     1     -12.117  52.689  50.176  0.00  0.00    +0.000 OA
ATOM      7  C   UNL     1      -9.613  52.803  50.528  0.00  0.00    +0.000 C 
ENDROOT
BRANCH   1  13
ATOM      8  S   UNL     1     -13.685  57.272  49.168  0.00  0.00    +0.000 S 
ATOM      9  O   UNL     1     -14.793  56.497  48.633  0.00  0.00    +0.000 OA
ATOM     10  O   UNL     1     -13.244  58.473  48.489  0.00  0.00    +0.000 OA
ATOM     11  N   UNL     1     -12.401  56.288  49.317  0.00  0.00    +0.000 N 
ATOM     12  C   UNL     1     -14.184  57.778  50.779  0.00  0.00    +0.000 A 
ATOM     13  C   UNL     1     -12.109  55.775  50.473  0.00  0.00    +0.000 C 
ATOM     14  C   UNL     1     -13.657  57.084  51.855  0.00  0.00    +0.000 A 
ATOM     15  C   UNL     1     -15.077  58.841  50.950  0.00  0.00    +0.000 A 
ATOM     16  N   UNL     1     -12.748  56.051  51.663  0.00  0.00    +0.000 N 
ATOM     17  C   UNL     1     -14.043  57.463  53.144  0.00  0.00    +0.000 A 
ATOM     18  C   UNL     1     -15.450  59.211  52.240  0.00  0.00    +0.000 A 
ATOM     19  C   UNL     1     -14.932  58.525  53.337  0.00  0.00    +0.000 A 
ATOM     20  H   UNL     1     -11.845  56.081  48.531  0.00  0.00    +0.000 HD
ATOM     21  H   UNL     1     -12.546  55.474  52.433  0.00  0.00    +0.000 HD
ENDBRANCH   1  13
BRANCH   7  22
ATOM     22  C   UNL     1      -9.555  51.708  51.652  0.00  0.00    +0.000 C 
ATOM     23  C   UNL     1      -8.420  50.684  51.430  0.00  0.00    +0.000 C 
BRANCH  22  24
ATOM     24  C   UNL     1      -9.397  52.229  53.101  0.00  0.00    +0.000 C 
ATOM     25  C   UNL     1     -10.693  52.619  53.799  0.00  0.00    +0.000 C 
ENDBRANCH  22  24
ENDBRANCH   7  22
BRANCH   5  26
ATOM     26  C   UNL     1      -7.381  54.160  50.808  0.00  0.00    +0.000 C 
BRANCH  26  27
ATOM     27  C   UNL     1      -6.749  54.186  52.176  0.00  0.00    +0.000 A 
ATOM     28  C   UNL     1      -7.147  55.114  53.149  0.00  0.00    +0.000 A 
ATOM     29  C   UNL     1      -5.855  53.169  52.543  0.00  0.00    +0.000 A 
ATOM     30  C   UNL     1      -6.661  55.027  54.457  0.00  0.00    +0.000 A 
ATOM     31  C   UNL     1      -5.372  53.080  53.850  0.00  0.00    +0.000 A 
ATOM     32  C   UNL     1      -5.777  54.008  54.806  0.00  0.00    +0.000 A 
ENDBRANCH  26  27
ENDBRANCH   5  26
TORSDOF 5
ENDMDL
MODEL 8
REMARK VINA RESULT:      -8.0      3.138      6.339
REMARK  Name = 
REMARK  7 active torsions:
REMARK  status: ('A' for Active; 'I' for Inactive)
REMARK    1  A    between atoms: C_6  and  C_10
REMARK    2  A    between atoms: N_17  and  C_20
REMARK    3  A    between atoms: C_19  and  C_21
REMARK    4  A    between atoms: C_20  and  C_22
REMARK    5  A    between atoms: C_21  and  C_23
REMARK    6  A    between atoms: C_21  and  C_24
REMARK    7  A    between atoms: C_23  and  C_27
REMARK                            x       y       z     vdW  Elec       q    Type
REMARK                         _______ _______ _______ _____ _____    ______ ____
ROOT
ATOM      1  C   UNL     1     -10.699  54.247  50.807  0.00  0.00    +0.000 C 
ATOM      2  C   UNL     1     -11.913  54.987  51.152  0.00  0.00    +0.000 C 
ATOM      3  C   UNL     1     -10.911  53.759  49.579  0.00  0.00    +0.000 C 
ATOM      4  O   UNL     1     -12.119  55.447  52.265  0.00  0.00    +0.000 OA
ATOM      5  N   UNL     1     -12.736  55.030  50.047  0.00  0.00    +0.000 N 
ATOM      6  O   UNL     1     -10.041  52.934  48.904  0.00  0.00    +0.000 OA
ATOM      7  C   UNL     1     -12.243  54.181  48.947  0.00  0.00    +0.000 C 
ENDROOT
BRANCH   1  13
ATOM      8  S   UNL     1      -7.277  54.844  52.586  0.00  0.00    +0.000 S 
ATOM      9  O   UNL     1      -7.423  55.977  53.486  0.00  0.00    +0.000 OA
ATOM     10  O   UNL     1      -6.058  54.676  51.822  0.00  0.00    +0.000 OA
ATOM     11  N   UNL     1      -8.519  54.863  51.538  0.00  0.00    +0.000 N 
ATOM     12  C   UNL     1      -7.424  53.407  53.592  0.00  0.00    +0.000 A 
ATOM     13  C   UNL     1      -9.545  54.093  51.736  0.00  0.00    +0.000 C 
ATOM     14  C   UNL     1      -8.631  52.728  53.559  0.00  0.00    +0.000 A 
ATOM     15  C   UNL     1      -6.357  52.978  54.387  0.00  0.00    +0.000 A 
ATOM     16  N   UNL     1      -9.668  53.155  52.738  0.00  0.00    +0.000 N 
ATOM     17  C   UNL     1      -8.775  51.588  54.354  0.00  0.00    +0.000 A 
ATOM     18  C   UNL     1      -6.512  51.837  55.172  0.00  0.00    +0.000 A 
ATOM     19  C   UNL     1      -7.719  51.141  55.154  0.00  0.00    +0.000 A 
ATOM     20  H   UNL     1      -8.493  55.458  50.754  0.00  0.00    +0.000 HD
ATOM     21  H   UNL     1     -10.557  52.758  52.884  0.00  0.00    +0.000 HD
ENDBRANCH   1  13
BRANCH   7  22
ATOM     22  C   UNL     1     -12.063  54.881  47.554  0.00  0.00    +0.000 C 
ATOM     23  C   UNL     1     -10.846  55.831  47.515  0.00  0.00    +0.000 C 
BRANCH  22  24
ATOM     24  C   UNL     1     -11.923  53.939  46.332  0.00  0.00    +0.000 C 
ATOM     25  C   UNL     1     -10.601  54.036  45.583  0.00  0.00    +0.000 C 
ENDBRANCH  22  24
ENDBRANCH   7  22
BRANCH   5  26
ATOM     26  C   UNL     1     -14.054  55.626  50.187  0.00  0.00    +0.000 C 
BRANCH  26  27
ATOM     27  C   UNL     1     -14.107  57.131  50.233  0.00  0.00    +0.000 A 
ATOM     28  C   UNL     1     -14.672  57.811  51.322  0.00  0.00    +0.000 A 
ATOM     29  C   UNL     1     -13.445  57.876  49.246  0.00  0.00    +0.000 A 
ATOM     30  C   UNL     1     -14.578  59.201  51.420  0.00  0.00    +0.000 A 
ATOM     31  C   UNL     1     -13.347  59.265  49.346  0.00  0.00    +0.000 A 
ATOM     32  C   UNL     1     -13.912  59.926  50.434  0.00  0.00    +0.000 A 
ENDBRANCH  26  27
ENDBRANCH   5  26
TORSDOF 5
ENDMDL
MODEL 9
REMARK VINA RESULT:      -7.9      2.777      7.863
REMARK  Name = 
REMARK  7 active torsions:
REMARK  status: ('A' for Active; 'I' for Inactive)
REMARK    1  A    between atoms: C_6  and  C_10
REMARK    2  A    between atoms: N_17  and  C_20
REMARK    3  A    between atoms: C_19  and  C_21
REMARK    4  A    between atoms: C_20  and  C_22
REMARK    5  A    between atoms: C_21  and  C_23
REMARK    6  A    between atoms: C_21  and  C_24
REMARK    7  A    between atoms: C_23  and  C_27
REMARK                            x       y       z     vdW  Elec       q    Type
REMARK                         _______ _______ _______ _____ _____    ______ ____
ROOT
ATOM      1  C   UNL     1     -10.925  54.961  50.329  0.00  0.00    +0.000 C 
ATOM      2  C   UNL     1     -10.631  54.092  49.189  0.00  0.00    +0.000 C 
ATOM      3  C   UNL     1     -10.009  54.659  51.258  0.00  0.00    +0.000 C 
ATOM      4  O   UNL     1     -11.362  54.004  48.214  0.00  0.00    +0.000 OA
ATOM      5  N   UNL     1      -9.456  53.415  49.437  0.00  0.00    +0.000 N 
ATOM      6  O   UNL     1      -9.971  55.199  52.522  0.00  0.00    +0.000 OA
ATOM      7  C   UNL     1      -8.969  53.623  50.813  0.00  0.00    +0.000 C 
ENDROOT
BRANCH   1  13
ATOM      8  S   UNL     1     -13.724  57.414  49.157  0.00  0.00    +0.000 S 
ATOM      9  O   UNL     1     -14.822  56.628  48.617  0.00  0.00    +0.000 OA
ATOM     10  O   UNL     1     -13.338  58.656  48.519  0.00  0.00    +0.000 OA
ATOM     11  N   UNL     1     -12.407  56.465  49.231  0.00  0.00    +0.000 N 
ATOM     12  C   UNL     1     -14.196  57.836  50.800  0.00  0.00    +0.000 A 
ATOM     13  C   UNL     1     -12.070  55.913  50.356  0.00  0.00    +0.000 C 
ATOM     14  C   UNL     1     -13.620  57.114  51.832  0.00  0.00    +0.000 A 
ATOM     15  C   UNL     1     -15.116  58.861  51.039  0.00  0.00    +0.000 A 
ATOM     16  N   UNL     1     -12.685  56.119  51.573  0.00  0.00    +0.000 N 
ATOM     17  C   UNL     1     -13.983  57.425  53.146  0.00  0.00    +0.000 A 
ATOM     18  C   UNL     1     -15.466  59.164  52.353  0.00  0.00    +0.000 A 
ATOM     19  C   UNL     1     -14.899  58.449  53.406  0.00  0.00    +0.000 A 
ATOM     20  H   UNL     1     -11.866  56.310  48.423  0.00  0.00    +0.000 HD
ATOM     21  H   UNL     1     -12.445  55.516  52.312  0.00  0.00    +0.000 HD
ENDBRANCH   1  13
BRANCH   7  22
ATOM     22  C   UNL     1      -7.493  54.139  50.959  0.00  0.00    +0.000 C 
ATOM     23  C   UNL     1      -6.446  53.046  50.651  0.00  0.00    +0.000 C 
BRANCH  22  24
ATOM     24  C   UNL     1      -7.114  55.366  50.094  0.00  0.00    +0.000 C 
ATOM     25  C   UNL     1      -5.707  55.345  49.514  0.00  0.00    +0.000 C 
ENDBRANCH  22  24
ENDBRANCH   7  22
BRANCH   5  26
ATOM     26  C   UNL     1      -9.021  52.409  48.483  0.00  0.00    +0.000 C 
BRANCH  26  27
ATOM     27  C   UNL     1      -8.690  52.899  47.097  0.00  0.00    +0.000 A 
ATOM     28  C   UNL     1      -9.275  52.326  45.959  0.00  0.00    +0.000 A 
ATOM     29  C   UNL     1      -7.902  54.049  46.942  0.00  0.00    +0.000 A 
ATOM     30  C   UNL     1      -9.075  52.889  44.696  0.00  0.00    +0.000 A 
ATOM     31  C   UNL     1      -7.705  54.614  45.680  0.00  0.00    +0.000 A 
ATOM     32  C   UNL     1      -8.293  54.035  44.558  0.00  0.00    +0.000 A 
ENDBRANCH  26  27
ENDBRANCH   5  26
TORSDOF 5
ENDMDL
