MODEL 1
REMARK VINA RESULT:      -8.8      0.000      0.000
REMARK  Name = 
REMARK  7 active torsions:
REMARK  status: ('A' for Active; 'I' for Inactive)
REMARK    1  A    between atoms: C_6  and  C_10
REMARK    2  A    between atoms: N_17  and  C_20
REMARK    3  A    between atoms: C_19  and  C_21
REMARK    4  A    between atoms: C_20  and  C_22
REMARK    5  A    between atoms: C_21  and  C_23
REMARK    6  A    between atoms: C_21  and  C_24
REMARK    7  A    between atoms: C_23  and  C_27
REMARK                            x       y       z     vdW  Elec       q    Type
REMARK                         _______ _______ _______ _____ _____    ______ ____
ROOT
ATOM      1  C   UNL     1     -10.916  55.274  47.907  0.00  0.00    +0.000 C 
ATOM      2  C   UNL     1     -12.219  55.919  47.712  0.00  0.00    +0.000 C 
ATOM      3  C   UNL     1     -10.608  55.474  49.195  0.00  0.00    +0.000 C 
ATOM      4  O   UNL     1     -12.717  56.095  46.611  0.00  0.00    +0.000 OA
ATOM      5  N   UNL     1     -12.711  56.291  48.948  0.00  0.00    +0.000 N 
ATOM      6  O   UNL     1      -9.421  55.113  49.786  0.00  0.00    +0.000 OA
ATOM      7  C   UNL     1     -11.694  56.183  50.000  0.00  0.00    +0.000 C 
ENDROOT
BRANCH   1  13
ATOM      8  S   UNL     1      -7.983  54.329  45.518  0.00  0.00    +0.000 S 
ATOM      9  O   UNL     1      -7.052  53.493  46.254  0.00  0.00    +0.000 OA
ATOM     10  O   UNL     1      -7.491  55.337  44.599  0.00  0.00    +0.000 OA
ATOM     11  N   UNL     1      -8.953  55.072  46.590  0.00  0.00    +0.000 N 
ATOM     12  C   UNL     1      -8.966  53.231  44.558  0.00  0.00    +0.000 A 
ATOM     13  C   UNL     1     -10.145  54.607  46.819  0.00  0.00    +0.000 C 
ATOM     14  C   UNL     1     -10.249  52.962  45.008  0.00  0.00    +0.000 A 
ATOM     15  C   UNL     1      -8.452  52.660  43.390  0.00  0.00    +0.000 A 
ATOM     16  N   UNL     1     -10.748  53.559  46.160  0.00  0.00    +0.000 N 
ATOM     17  C   UNL     1     -11.043  52.088  44.257  0.00  0.00    +0.000 A 
ATOM     18  C   UNL     1      -9.256  51.795  42.650  0.00  0.00    +0.000 A 
ATOM     19  C   UNL     1     -10.551  51.510  43.081  0.00  0.00    +0.000 A 
ATOM     20  H   UNL     1      -8.638  55.873  47.067  0.00  0.00    +0.000 HD
ATOM     21  H   UNL     1     -11.589  53.208  46.530  0.00  0.00    +0.000 HD
ENDBRANCH   1  13
BRANCH   7  22
ATOM     22  C   UNL     1     -12.131  55.417  51.293  0.00  0.00    +0.000 C 
ATOM     23  C   UNL     1     -12.490  53.947  51.002  0.00  0.00    +0.000 C 
BRANCH  22  24
ATOM     24  C   UNL     1     -11.110  55.423  52.456  0.00  0.00    +0.000 C 
ATOM     25  C   UNL     1     -10.609  54.053  52.899  0.00  0.00    +0.000 C 
ENDBRANCH  22  24
ENDBRANCH   7  22
BRANCH   5  26
ATOM     26  C   UNL     1     -13.883  57.148  49.014  0.00  0.00    +0.000 C 
BRANCH  26  27
ATOM     27  C   UNL     1     -14.386  57.433  50.418  0.00  0.00    +0.000 A 
ATOM     28  C   UNL     1     -15.217  56.561  51.140  0.00  0.00    +0.000 A 
ATOM     29  C   UNL     1     -13.988  58.631  51.036  0.00  0.00    +0.000 A 
ATOM     30  C   UNL     1     -15.612  56.863  52.446  0.00  0.00    +0.000 A 
ATOM     31  C   UNL     1     -14.379  58.930  52.344  0.00  0.00    +0.000 A 
ATOM     32  C   UNL     1     -15.185  58.042  53.051  0.00  0.00    +0.000 A 
ENDBRANCH  26  27
ENDBRANCH   5  26
TORSDOF 5
ENDMDL
MODEL 2
REMARK VINA RESULT:      -8.7      2.707      8.168
REMARK  Name = 
REMARK  7 active torsions:
REMARK  status: ('A' for Active; 'I' for Inactive)
REMARK    1  A    between atoms: C_6  and  C_10
REMARK    2  A    between atoms: N_17  and  C_20
REMARK    3  A    between atoms: C_19  and  C_21
REMARK    4  A    between atoms: C_20  and  C_22
REMARK    5  A    between atoms: C_21  and  C_23
REMARK    6  A    between atoms: C_21  and  C_24
REMARK    7  A    between atoms: C_23  and  C_27
REMARK                            x       y       z     vdW  Elec       q    Type
REMARK                         _______ _______ _______ _____ _____    ______ ____
ROOT
ATOM      1  C   UNL     1     -11.096  55.773  49.279  0.00  0.00    +0.000 C 
ATOM      2  C   UNL     1     -11.410  54.457  48.714  0.00  0.00    +0.000 C 
ATOM      3  C   UNL     1      -9.759  55.830  49.329  0.00  0.00    +0.000 C 
ATOM      4  O   UNL     1     -12.539  53.991  48.698  0.00  0.00    +0.000 OA
ATOM      5  N   UNL     1     -10.236  53.883  48.266  0.00  0.00    +0.000 N 
ATOM      6  O   UNL     1      -9.035  56.859  49.883  0.00  0.00    +0.000 OA
ATOM      7  C   UNL     1      -9.054  54.617  48.731  0.00  0.00    +0.000 C 
ENDROOT
BRANCH   1  13
ATOM      8  S   UNL     1     -13.368  58.942  49.386  0.00  0.00    +0.000 S 
ATOM      9  O   UNL     1     -14.417  58.780  48.395  0.00  0.00    +0.000 OA
ATOM     10  O   UNL     1     -12.739  60.233  49.580  0.00  0.00    +0.000 OA
ATOM     11  N   UNL     1     -12.193  57.867  49.060  0.00  0.00    +0.000 N 
ATOM     12  C   UNL     1     -14.090  58.513  50.931  0.00  0.00    +0.000 A 
ATOM     13  C   UNL     1     -12.125  56.754  49.730  0.00  0.00    +0.000 C 
ATOM     14  C   UNL     1     -13.785  57.267  51.457  0.00  0.00    +0.000 A 
ATOM     15  C   UNL     1     -14.939  59.409  51.586  0.00  0.00    +0.000 A 
ATOM     16  N   UNL     1     -12.919  56.401  50.798  0.00  0.00    +0.000 N 
ATOM     17  C   UNL     1     -14.354  56.910  52.684  0.00  0.00    +0.000 A 
ATOM     18  C   UNL     1     -15.495  59.042  52.810  0.00  0.00    +0.000 A 
ATOM     19  C   UNL     1     -15.201  57.794  53.361  0.00  0.00    +0.000 A 
ATOM     20  H   UNL     1     -11.533  58.057  48.355  0.00  0.00    +0.000 HD
ATOM     21  H   UNL     1     -12.870  55.473  51.118  0.00  0.00    +0.000 HD
ENDBRANCH   1  13
BRANCH   7  22
ATOM     22  C   UNL     1      -7.998  54.972  47.631  0.00  0.00    +0.000 C 
ATOM     23  C   UNL     1      -6.952  53.855  47.449  0.00  0.00    +0.000 C 
BRANCH  22  24
ATOM     24  C   UNL     1      -8.571  55.303  46.231  0.00  0.00    +0.000 C 
ATOM     25  C   UNL     1      -7.766  54.775  45.050  0.00  0.00    +0.000 C 
ENDBRANCH  22  24
ENDBRANCH   7  22
BRANCH   5  26
ATOM     26  C   UNL     1     -10.241  52.487  47.865  0.00  0.00    +0.000 C 
BRANCH  26  27
ATOM     27  C   UNL     1     -10.201  52.254  46.365  0.00  0.00    +0.000 A 
ATOM     28  C   UNL     1     -11.098  52.845  45.461  0.00  0.00    +0.000 A 
ATOM     29  C   UNL     1      -9.202  51.410  45.849  0.00  0.00    +0.000 A 
ATOM     30  C   UNL     1     -10.982  52.624  44.086  0.00  0.00    +0.000 A 
ATOM     31  C   UNL     1      -9.084  51.193  44.474  0.00  0.00    +0.000 A 
ATOM     32  C   UNL     1      -9.969  51.805  43.592  0.00  0.00    +0.000 A 
ENDBRANCH  26  27
ENDBRANCH   5  26
TORSDOF 5
ENDMDL
MODEL 3
REMARK VINA RESULT:      -8.6      3.422      5.872
REMARK  Name = 
REMARK  7 active torsions:
REMARK  status: ('A' for Active; 'I' for Inactive)
REMARK    1  A    between atoms: C_6  and  C_10
REMARK    2  A    between atoms: N_17  and  C_20
REMARK    3  A    between atoms: C_19  and  C_21
REMARK    4  A    between atoms: C_20  and  C_22
REMARK    5  A    between atoms: C_21  and  C_23
REMARK    6  A    between atoms: C_21  and  C_24
REMARK    7  A    between atoms: C_23  and  C_27
REMARK                            x       y       z     vdW  Elec       q    Type
REMARK                         _______ _______ _______ _____ _____    ______ ____
ROOT
ATOM      1  C   UNL     1      -9.488  54.929  50.085  0.00  0.00    +0.000 C 
ATOM      2  C   UNL     1     -10.642  54.669  50.951  0.00  0.00    +0.000 C 
ATOM      3  C   UNL     1     -10.003  55.257  48.893  0.00  0.00    +0.000 C 
ATOM      4  O   UNL     1     -10.544  54.164  52.059  0.00  0.00    +0.000 OA
ATOM      5  N   UNL     1     -11.786  55.057  50.281  0.00  0.00    +0.000 N 
ATOM      6  O   UNL     1      -9.268  55.490  47.755  0.00  0.00    +0.000 OA
ATOM      7  C   UNL     1     -11.526  55.334  48.865  0.00  0.00    +0.000 C 
ENDROOT
BRANCH   1  13
ATOM      8  S   UNL     1      -5.664  54.168  49.978  0.00  0.00    +0.000 S 
ATOM      9  O   UNL     1      -5.003  55.266  49.295  0.00  0.00    +0.000 OA
ATOM     10  O   UNL     1      -5.241  52.801  49.745  0.00  0.00    +0.000 OA
ATOM     11  N   UNL     1      -7.254  54.252  49.652  0.00  0.00    +0.000 N 
ATOM     12  C   UNL     1      -5.441  54.461  51.697  0.00  0.00    +0.000 A 
ATOM     13  C   UNL     1      -8.069  54.778  50.519  0.00  0.00    +0.000 C 
ATOM     14  C   UNL     1      -6.519  54.969  52.406  0.00  0.00    +0.000 A 
ATOM     15  C   UNL     1      -4.213  54.189  52.307  0.00  0.00    +0.000 A 
ATOM     16  N   UNL     1      -7.739  55.211  51.783  0.00  0.00    +0.000 N 
ATOM     17  C   UNL     1      -6.356  55.211  53.774  0.00  0.00    +0.000 A 
ATOM     18  C   UNL     1      -4.066  54.430  53.671  0.00  0.00    +0.000 A 
ATOM     19  C   UNL     1      -5.138  54.939  54.406  0.00  0.00    +0.000 A 
ATOM     20  H   UNL     1      -7.601  53.908  48.798  0.00  0.00    +0.000 HD
ATOM     21  H   UNL     1      -8.411  55.727  52.281  0.00  0.00    +0.000 HD
ENDBRANCH   1  13
BRANCH   7  22
ATOM     22  C   UNL     1     -12.085  56.693  48.324  0.00  0.00    +0.000 C 
ATOM     23  C   UNL     1     -13.498  56.543  47.729  0.00  0.00    +0.000 C 
BRANCH  22  24
ATOM     24  C   UNL     1     -12.134  57.854  49.347  0.00  0.00    +0.000 C 
ATOM     25  C   UNL     1     -13.377  58.733  49.284  0.00  0.00    +0.000 C 
ENDBRANCH  22  24
ENDBRANCH   7  22
BRANCH   5  26
ATOM     26  C   UNL     1     -13.083  54.699  50.832  0.00  0.00    +0.000 C 
BRANCH  26  27
ATOM     27  C   UNL     1     -13.832  55.842  51.492  0.00  0.00    +0.000 A 
ATOM     28  C   UNL     1     -13.276  56.670  52.481  0.00  0.00    +0.000 A 
ATOM     29  C   UNL     1     -15.153  56.095  51.084  0.00  0.00    +0.000 A 
ATOM     30  C   UNL     1     -14.005  57.734  53.020  0.00  0.00    +0.000 A 
ATOM     31  C   UNL     1     -15.880  57.161  51.620  0.00  0.00    +0.000 A 
ATOM     32  C   UNL     1     -15.303  57.984  52.583  0.00  0.00    +0.000 A 
ENDBRANCH  26  27
ENDBRANCH   5  26
TORSDOF 5
ENDMDL
MODEL 4
REMARK VINA RESULT:      -8.4      2.787      8.175
REMARK  Name = 
REMARK  7 active torsions:
REMARK  status: ('A' for Active; 'I' for Inactive)
REMARK    1  A    between atoms: C_6  and  C_10
REMARK    2  A    between atoms: N_17  and  C_20
REMARK    3  A    between atoms: C_19  and  C_21
REMARK    4  A    between atoms: C_20  and  C_22
REMARK    5  A    between atoms: C_21  and  C_23
REMARK    6  A    between atoms: C_21  and  C_24
REMARK    7  A    between atoms: C_23  and  C_27
REMARK                            x       y       z     vdW  Elec       q    Type
REMARK                         _______ _______ _______ _____ _____    ______ ____
ROOT
ATOM      1  C   UNL     1     -11.204  55.093  49.157  0.00  0.00    +0.000 C 
ATOM      2  C   UNL     1     -11.406  53.848  48.408  0.00  0.00    +0.000 C 
ATOM      3  C   UNL     1      -9.877  55.211  49.301  0.00  0.00    +0.000 C 
ATOM      4  O   UNL     1     -12.501  53.330  48.260  0.00  0.00    +0.000 OA
ATOM      5  N   UNL     1     -10.175  53.399  47.968  0.00  0.00    +0.000 N 
ATOM      6  O   UNL     1      -9.249  56.194  50.027  0.00  0.00    +0.000 OA
ATOM      7  C   UNL     1      -9.068  54.125  48.599  0.00  0.00    +0.000 C 
ENDROOT
BRANCH   1  13
ATOM      8  S   UNL     1     -14.544  56.175  50.855  0.00  0.00    +0.000 S 
ATOM      9  O   UNL     1     -14.356  56.125  52.294  0.00  0.00    +0.000 OA
ATOM     10  O   UNL     1     -15.791  55.732  50.264  0.00  0.00    +0.000 OA
ATOM     11  N   UNL     1     -13.342  55.330  50.158  0.00  0.00    +0.000 N 
ATOM     12  C   UNL     1     -14.361  57.864  50.400  0.00  0.00    +0.000 A 
ATOM     13  C   UNL     1     -12.314  55.951  49.661  0.00  0.00    +0.000 C 
ATOM     14  C   UNL     1     -13.164  58.243  49.814  0.00  0.00    +0.000 A 
ATOM     15  C   UNL     1     -15.396  58.774  50.634  0.00  0.00    +0.000 A 
ATOM     16  N   UNL     1     -12.157  57.316  49.570  0.00  0.00    +0.000 N 
ATOM     17  C   UNL     1     -13.002  59.584  49.449  0.00  0.00    +0.000 A 
ATOM     18  C   UNL     1     -15.222  60.106  50.261  0.00  0.00    +0.000 A 
ATOM     19  C   UNL     1     -14.027  60.511  49.667  0.00  0.00    +0.000 A 
ATOM     20  H   UNL     1     -13.392  54.348  50.113  0.00  0.00    +0.000 HD
ATOM     21  H   UNL     1     -11.271  57.659  49.316  0.00  0.00    +0.000 HD
ENDBRANCH   1  13
BRANCH   7  22
ATOM     22  C   UNL     1      -7.973  54.676  47.625  0.00  0.00    +0.000 C 
ATOM     23  C   UNL     1      -6.893  53.623  47.311  0.00  0.00    +0.000 C 
BRANCH  22  24
ATOM     24  C   UNL     1      -8.491  55.225  46.273  0.00  0.00    +0.000 C 
ATOM     25  C   UNL     1      -7.677  54.828  45.047  0.00  0.00    +0.000 C 
ENDBRANCH  22  24
ENDBRANCH   7  22
BRANCH   5  26
ATOM     26  C   UNL     1     -10.073  52.069  47.393  0.00  0.00    +0.000 C 
BRANCH  26  27
ATOM     27  C   UNL     1      -9.921  52.038  45.883  0.00  0.00    +0.000 A 
ATOM     28  C   UNL     1     -10.768  52.728  45.000  0.00  0.00    +0.000 A 
ATOM     29  C   UNL     1      -8.866  51.288  45.335  0.00  0.00    +0.000 A 
ATOM     30  C   UNL     1     -10.548  52.693  43.619  0.00  0.00    +0.000 A 
ATOM     31  C   UNL     1      -8.644  51.257  43.956  0.00  0.00    +0.000 A 
ATOM     32  C   UNL     1      -9.481  51.966  43.099  0.00  0.00    +0.000 A 
ENDBRANCH  26  27
ENDBRANCH   5  26
TORSDOF 5
ENDMDL
MODEL 5
REMARK VINA RESULT:      -8.3      3.755      6.095
REMARK  Name = 
REMARK  7 active torsions:
REMARK  status: ('A' for Active; 'I' for Inactive)
REMARK    1  A    between atoms: C_6  and  C_10
REMARK    2  A    between atoms: N_17  and  C_20
REMARK    3  A    between atoms: C_19  and  C_21
REMARK    4  A    between atoms: C_20  and  C_22
REMARK    5  A    between atoms: C_21  and  C_23
REMARK    6  A    between atoms: C_21  and  C_24
REMARK    7  A    between atoms: C_23  and  C_27
REMARK                            x       y       z     vdW  Elec       q    Type
REMARK                         _______ _______ _______ _____ _____    ______ ____
ROOT
ATOM      1  C   UNL     1     -10.241  54.257  50.742  0.00  0.00    +0.000 C 
ATOM      2  C   UNL     1     -11.397  55.029  51.209  0.00  0.00    +0.000 C 
ATOM      3  C   UNL     1     -10.638  53.672  49.605  0.00  0.00    +0.000 C 
ATOM      4  O   UNL     1     -11.454  55.540  52.317  0.00  0.00    +0.000 OA
ATOM      5  N   UNL     1     -12.355  55.025  50.214  0.00  0.00    +0.000 N 
ATOM      6  O   UNL     1      -9.891  52.777  48.878  0.00  0.00    +0.000 OA
ATOM      7  C   UNL     1     -12.045  54.056  49.157  0.00  0.00    +0.000 C 
ENDROOT
BRANCH   1  13
ATOM      8  S   UNL     1      -7.678  54.148  53.680  0.00  0.00    +0.000 S 
ATOM      9  O   UNL     1      -7.770  52.845  54.312  0.00  0.00    +0.000 OA
ATOM     10  O   UNL     1      -7.502  55.341  54.485  0.00  0.00    +0.000 OA
ATOM     11  N   UNL     1      -9.004  54.363  52.765  0.00  0.00    +0.000 N 
ATOM     12  C   UNL     1      -6.283  54.071  52.611  0.00  0.00    +0.000 A 
ATOM     13  C   UNL     1      -8.950  54.161  51.482  0.00  0.00    +0.000 C 
ATOM     14  C   UNL     1      -6.523  53.919  51.255  0.00  0.00    +0.000 A 
ATOM     15  C   UNL     1      -4.989  54.158  53.133  0.00  0.00    +0.000 A 
ATOM     16  N   UNL     1      -7.820  53.858  50.756  0.00  0.00    +0.000 N 
ATOM     17  C   UNL     1      -5.423  53.853  50.392  0.00  0.00    +0.000 A 
ATOM     18  C   UNL     1      -3.903  54.095  52.261  0.00  0.00    +0.000 A 
ATOM     19  C   UNL     1      -4.120  53.945  50.891  0.00  0.00    +0.000 A 
ATOM     20  H   UNL     1      -9.850  54.644  53.182  0.00  0.00    +0.000 HD
ATOM     21  H   UNL     1      -7.937  53.579  49.820  0.00  0.00    +0.000 HD
ENDBRANCH   1  13
BRANCH   7  22
ATOM     22  C   UNL     1     -12.120  54.602  47.691  0.00  0.00    +0.000 C 
ATOM     23  C   UNL     1     -11.046  55.671  47.415  0.00  0.00    +0.000 C 
BRANCH  22  24
ATOM     24  C   UNL     1     -12.013  53.538  46.572  0.00  0.00    +0.000 C 
ATOM     25  C   UNL     1     -11.118  53.910  45.395  0.00  0.00    +0.000 C 
ENDBRANCH  22  24
ENDBRANCH   7  22
BRANCH   5  26
ATOM     26  C   UNL     1     -13.685  55.530  50.511  0.00  0.00    +0.000 C 
BRANCH  26  27
ATOM     27  C   UNL     1     -13.825  57.040  50.428  0.00  0.00    +0.000 A 
ATOM     28  C   UNL     1     -13.406  57.802  49.326  0.00  0.00    +0.000 A 
ATOM     29  C   UNL     1     -14.419  57.713  51.510  0.00  0.00    +0.000 A 
ATOM     30  C   UNL     1     -13.601  59.186  49.294  0.00  0.00    +0.000 A 
ATOM     31  C   UNL     1     -14.619  59.095  51.475  0.00  0.00    +0.000 A 
ATOM     32  C   UNL     1     -14.216  59.830  50.364  0.00  0.00    +0.000 A 
ENDBRANCH  26  27
ENDBRANCH   5  26
TORSDOF 5
ENDMDL
MODEL 6
REMARK VINA RESULT:      -8.3      3.272      6.084
REMARK  Name = 
REMARK  7 active torsions:
REMARK  status: ('A' for Active; 'I' for Inactive)
REMARK    1  A    between atoms: C_6  and  C_10
REMARK    2  A    between atoms: N_17  and  C_20
REMARK    3  A    between atoms: C_19  and  C_21
REMARK    4  A    between atoms: C_20  and  C_22
REMARK    5  A    between atoms: C_21  and  C_23
REMARK    6  A    between atoms: C_21  and  C_24
REMARK    7  A    between atoms: C_23  and  C_27
REMARK                            x       y       z     vdW  Elec       q    Type
REMARK                         _______ _______ _______ _____ _____    ______ ____
ROOT
ATOM      1  C   UNL     1      -9.737  54.391  50.161  0.00  0.00    +0.000 C 
ATOM      2  C   UNL     1     -10.861  55.064  50.819  0.00  0.00    +0.000 C 
ATOM      3  C   UNL     1     -10.266  53.764  49.103  0.00  0.00    +0.000 C 
ATOM      4  O   UNL     1     -10.776  55.578  51.924  0.00  0.00    +0.000 OA
ATOM      5  N   UNL     1     -11.968  54.969  49.998  0.00  0.00    +0.000 N 
ATOM      6  O   UNL     1      -9.576  52.930  48.256  0.00  0.00    +0.000 OA
ATOM      7  C   UNL     1     -11.756  54.022  48.898  0.00  0.00    +0.000 C 
ENDROOT
BRANCH   1  13
ATOM      8  S   UNL     1      -5.846  54.141  50.261  0.00  0.00    +0.000 S 
ATOM      9  O   UNL     1      -5.300  55.337  49.646  0.00  0.00    +0.000 OA
ATOM     10  O   UNL     1      -5.233  52.850  50.020  0.00  0.00    +0.000 OA
ATOM     11  N   UNL     1      -7.413  54.027  49.844  0.00  0.00    +0.000 N 
ATOM     12  C   UNL     1      -5.759  54.406  51.998  0.00  0.00    +0.000 A 
ATOM     13  C   UNL     1      -8.337  54.413  50.674  0.00  0.00    +0.000 C 
ATOM     14  C   UNL     1      -6.932  54.745  52.653  0.00  0.00    +0.000 A 
ATOM     15  C   UNL     1      -4.541  54.278  52.672  0.00  0.00    +0.000 A 
ATOM     16  N   UNL     1      -8.137  54.845  51.966  0.00  0.00    +0.000 N 
ATOM     17  C   UNL     1      -6.879  54.962  54.035  0.00  0.00    +0.000 A 
ATOM     18  C   UNL     1      -4.504  54.493  54.048  0.00  0.00    +0.000 A 
ATOM     19  C   UNL     1      -5.673  54.833  54.730  0.00  0.00    +0.000 A 
ATOM     20  H   UNL     1      -7.663  53.667  48.963  0.00  0.00    +0.000 HD
ATOM     21  H   UNL     1      -8.899  55.253  52.436  0.00  0.00    +0.000 HD
ENDBRANCH   1  13
BRANCH   7  22
ATOM     22  C   UNL     1     -12.121  54.546  47.469  0.00  0.00    +0.000 C 
ATOM     23  C   UNL     1     -11.198  55.694  47.020  0.00  0.00    +0.000 C 
BRANCH  22  24
ATOM     24  C   UNL     1     -12.122  53.484  46.343  0.00  0.00    +0.000 C 
ATOM     25  C   UNL     1     -11.204  53.778  45.162  0.00  0.00    +0.000 C 
ENDBRANCH  22  24
ENDBRANCH   7  22
BRANCH   5  26
ATOM     26  C   UNL     1     -13.268  55.360  50.516  0.00  0.00    +0.000 C 
BRANCH  26  27
ATOM     27  C   UNL     1     -13.540  56.853  50.489  0.00  0.00    +0.000 A 
ATOM     28  C   UNL     1     -13.242  57.681  49.395  0.00  0.00    +0.000 A 
ATOM     29  C   UNL     1     -14.136  57.441  51.619  0.00  0.00    +0.000 A 
ATOM     30  C   UNL     1     -13.556  59.043  49.417  0.00  0.00    +0.000 A 
ATOM     31  C   UNL     1     -14.454  58.801  51.639  0.00  0.00    +0.000 A 
ATOM     32  C   UNL     1     -14.171  59.601  50.536  0.00  0.00    +0.000 A 
ENDBRANCH  26  27
ENDBRANCH   5  26
TORSDOF 5
ENDMDL
MODEL 7
REMARK VINA RESULT:      -8.1      3.174      6.420
REMARK  Name = 
REMARK  7 active torsions:
REMARK  status: ('A' for Active; 'I' for Inactive)
REMARK    1  A    between atoms: C_6  and  C_10
REMARK    2  A    between atoms: N_17  and  C_20
REMARK    3  A    between atoms: C_19  and  C_21
REMARK    4  A    between atoms: C_20  and  C_22
REMARK    5  A    between atoms: C_21  and  C_23
REMARK    6  A    between atoms: C_21  and  C_24
REMARK    7  A    between atoms: C_23  and  C_27
REMARK                            x       y       z     vdW  Elec       q    Type
REMARK                         _______ _______ _______ _____ _____    ______ ____
ROOT
ATOM      1  C   UNL     1     -10.627  54.282  50.822  0.00  0.00    +0.000 C 
ATOM      2  C   UNL     1     -11.833  55.062  51.115  0.00  0.00    +0.000 C 
ATOM      3  C   UNL     1     -10.801  53.808  49.581  0.00  0.00    +0.000 C 
ATOM      4  O   UNL     1     -12.100  55.484  52.229  0.00  0.00    +0.000 OA
ATOM      5  N   UNL     1     -12.570  55.180  49.952  0.00  0.00    +0.000 N 
ATOM      6  O   UNL     1      -9.946  52.943  48.941  0.00  0.00    +0.000 OA
ATOM      7  C   UNL     1     -12.078  54.288  48.897  0.00  0.00    +0.000 C 
ENDROOT
BRANCH   1  13
ATOM      8  S   UNL     1      -7.267  54.775  52.740  0.00  0.00    +0.000 S 
ATOM      9  O   UNL     1      -7.430  55.887  53.658  0.00  0.00    +0.000 OA
ATOM     10  O   UNL     1      -6.027  54.604  52.011  0.00  0.00    +0.000 OA
ATOM     11  N   UNL     1      -8.473  54.835  51.652  0.00  0.00    +0.000 N 
ATOM     12  C   UNL     1      -7.471  53.318  53.704  0.00  0.00    +0.000 A 
ATOM     13  C   UNL     1      -9.515  54.069  51.793  0.00  0.00    +0.000 C 
ATOM     14  C   UNL     1      -8.681  52.648  53.605  0.00  0.00    +0.000 A 
ATOM     15  C   UNL     1      -6.440  52.870  54.534  0.00  0.00    +0.000 A 
ATOM     16  N   UNL     1      -9.685  53.099  52.754  0.00  0.00    +0.000 N 
ATOM     17  C   UNL     1      -8.860  51.489  54.368  0.00  0.00    +0.000 A 
ATOM     18  C   UNL     1      -6.630  51.711  55.285  0.00  0.00    +0.000 A 
ATOM     19  C   UNL     1      -7.839  51.019  55.200  0.00  0.00    +0.000 A 
ATOM     20  H   UNL     1      -8.417  55.451  50.887  0.00  0.00    +0.000 HD
ATOM     21  H   UNL     1     -10.577  52.697  52.847  0.00  0.00    +0.000 HD
ENDBRANCH   1  13
BRANCH   7  22
ATOM     22  C   UNL     1     -11.839  54.954  47.500  0.00  0.00    +0.000 C 
ATOM     23  C   UNL     1     -10.533  55.769  47.461  0.00  0.00    +0.000 C 
BRANCH  22  24
ATOM     24  C   UNL     1     -11.819  53.988  46.290  0.00  0.00    +0.000 C 
ATOM     25  C   UNL     1     -10.501  53.916  45.528  0.00  0.00    +0.000 C 
ENDBRANCH  22  24
ENDBRANCH   7  22
BRANCH   5  26
ATOM     26  C   UNL     1     -13.918  55.717  50.021  0.00  0.00    +0.000 C 
BRANCH  26  27
ATOM     27  C   UNL     1     -13.998  57.232  50.082  0.00  0.00    +0.000 A 
ATOM     28  C   UNL     1     -13.256  58.086  49.249  0.00  0.00    +0.000 A 
ATOM     29  C   UNL     1     -14.871  57.815  51.016  0.00  0.00    +0.000 A 
ATOM     30  C   UNL     1     -13.407  59.474  49.326  0.00  0.00    +0.000 A 
ATOM     31  C   UNL     1     -15.024  59.202  51.091  0.00  0.00    +0.000 A 
ATOM     32  C   UNL     1     -14.297  60.031  50.241  0.00  0.00    +0.000 A 
ENDBRANCH  26  27
ENDBRANCH   5  26
TORSDOF 5
ENDMDL
MODEL 8
REMARK VINA RESULT:      -8.1      3.187      7.857
REMARK  Name = 
REMARK  7 active torsions:
REMARK  status: ('A' for Active; 'I' for Inactive)
REMARK    1  A    between atoms: C_6  and  C_10
REMARK    2  A    between atoms: N_17  and  C_20
REMARK    3  A    between atoms: C_19  and  C_21
REMARK    4  A    between atoms: C_20  and  C_22
REMARK    5  A    between atoms: C_21  and  C_23
REMARK    6  A    between atoms: C_21  and  C_24
REMARK    7  A    between atoms: C_23  and  C_27
REMARK                            x       y       z     vdW  Elec       q    Type
REMARK                         _______ _______ _______ _____ _____    ______ ____
ROOT
ATOM      1  C   UNL     1     -12.304  54.544  49.999  0.00  0.00    +0.000 C 
ATOM      2  C   UNL     1     -12.028  54.266  48.586  0.00  0.00    +0.000 C 
ATOM      3  C   UNL     1     -11.816  53.493  50.671  0.00  0.00    +0.000 C 
ATOM      4  O   UNL     1     -12.502  54.924  47.672  0.00  0.00    +0.000 OA
ATOM      5  N   UNL     1     -11.206  53.159  48.511  0.00  0.00    +0.000 N 
ATOM      6  O   UNL     1     -11.945  53.296  52.025  0.00  0.00    +0.000 OA
ATOM      7  C   UNL     1     -11.098  52.467  49.800  0.00  0.00    +0.000 C 
ENDROOT
BRANCH   1  13
ATOM      8  S   UNL     1     -14.442  56.893  52.263  0.00  0.00    +0.000 S 
ATOM      9  O   UNL     1     -13.603  57.357  53.352  0.00  0.00    +0.000 OA
ATOM     10  O   UNL     1     -15.827  56.541  52.506  0.00  0.00    +0.000 OA
ATOM     11  N   UNL     1     -13.720  55.606  51.580  0.00  0.00    +0.000 N 
ATOM     12  C   UNL     1     -14.469  58.196  51.082  0.00  0.00    +0.000 A 
ATOM     13  C   UNL     1     -13.036  55.749  50.484  0.00  0.00    +0.000 C 
ATOM     14  C   UNL     1     -13.681  58.051  49.951  0.00  0.00    +0.000 A 
ATOM     15  C   UNL     1     -15.261  59.328  51.298  0.00  0.00    +0.000 A 
ATOM     16  N   UNL     1     -12.920  56.906  49.746  0.00  0.00    +0.000 N 
ATOM     17  C   UNL     1     -13.690  59.081  49.003  0.00  0.00    +0.000 A 
ATOM     18  C   UNL     1     -15.262  60.343  50.343  0.00  0.00    +0.000 A 
ATOM     19  C   UNL     1     -14.479  60.220  49.195  0.00  0.00    +0.000 A 
ATOM     20  H   UNL     1     -13.800  54.718  51.997  0.00  0.00    +0.000 HD
ATOM     21  H   UNL     1     -12.252  56.924  49.024  0.00  0.00    +0.000 HD
ENDBRANCH   1  13
BRANCH   7  22
ATOM     22  C   UNL     1      -9.644  52.135  50.275  0.00  0.00    +0.000 C 
ATOM     23  C   UNL     1      -9.092  50.860  49.608  0.00  0.00    +0.000 C 
BRANCH  22  24
ATOM     24  C   UNL     1      -8.597  53.257  50.067  0.00  0.00    +0.000 C 
ATOM     25  C   UNL     1      -8.268  54.085  51.304  0.00  0.00    +0.000 C 
ENDBRANCH  22  24
ENDBRANCH   7  22
BRANCH   5  26
ATOM     26  C   UNL     1     -10.965  52.543  47.217  0.00  0.00    +0.000 C 
BRANCH  26  27
ATOM     27  C   UNL     1      -9.922  53.242  46.364  0.00  0.00    +0.000 A 
ATOM     28  C   UNL     1      -9.158  54.335  46.806  0.00  0.00    +0.000 A 
ATOM     29  C   UNL     1      -9.697  52.762  45.062  0.00  0.00    +0.000 A 
ATOM     30  C   UNL     1      -8.182  54.908  45.985  0.00  0.00    +0.000 A 
ATOM     31  C   UNL     1      -8.718  53.333  44.244  0.00  0.00    +0.000 A 
ATOM     32  C   UNL     1      -7.957  54.401  44.708  0.00  0.00    +0.000 A 
ENDBRANCH  26  27
ENDBRANCH   5  26
TORSDOF 5
ENDMDL
MODEL 9
REMARK VINA RESULT:      -8.1      4.225      7.903
REMARK  Name = 
REMARK  7 active torsions:
REMARK  status: ('A' for Active; 'I' for Inactive)
REMARK    1  A    between atoms: C_6  and  C_10
REMARK    2  A    between atoms: N_17  and  C_20
REMARK    3  A    between atoms: C_19  and  C_21
REMARK    4  A    between atoms: C_20  and  C_22
REMARK    5  A    between atoms: C_21  and  C_23
REMARK    6  A    between atoms: C_21  and  C_24
REMARK    7  A    between atoms: C_23  and  C_27
REMARK                            x       y       z     vdW  Elec       q    Type
REMARK                         _______ _______ _______ _____ _____    ______ ____
ROOT
ATOM      1  C   UNL     1     -10.941  54.830  50.683  0.00  0.00    +0.000 C 
ATOM      2  C   UNL     1      -9.524  55.203  50.642  0.00  0.00    +0.000 C 
ATOM      3  C   UNL     1     -10.957  53.492  50.731  0.00  0.00    +0.000 C 
ATOM      4  O   UNL     1      -9.139  56.338  50.407  0.00  0.00    +0.000 OA
ATOM      5  N   UNL     1      -8.768  54.070  50.876  0.00  0.00    +0.000 N 
ATOM      6  O   UNL     1     -12.091  52.716  50.686  0.00  0.00    +0.000 OA
ATOM      7  C   UNL     1      -9.577  52.848  50.815  0.00  0.00    +0.000 C 
ENDROOT
BRANCH   1  13
ATOM      8  S   UNL     1     -13.607  57.292  49.254  0.00  0.00    +0.000 S 
ATOM      9  O   UNL     1     -14.685  56.507  48.679  0.00  0.00    +0.000 OA
ATOM     10  O   UNL     1     -13.147  58.497  48.593  0.00  0.00    +0.000 OA
ATOM     11  N   UNL     1     -12.321  56.318  49.452  0.00  0.00    +0.000 N 
ATOM     12  C   UNL     1     -14.166  57.791  50.845  0.00  0.00    +0.000 A 
ATOM     13  C   UNL     1     -12.063  55.811  50.621  0.00  0.00    +0.000 C 
ATOM     14  C   UNL     1     -13.664  57.111  51.943  0.00  0.00    +0.000 A 
ATOM     15  C   UNL     1     -15.086  58.836  50.974  0.00  0.00    +0.000 A 
ATOM     16  N   UNL     1     -12.732  56.089  51.791  0.00  0.00    +0.000 N 
ATOM     17  C   UNL     1     -14.102  57.494  53.215  0.00  0.00    +0.000 A 
ATOM     18  C   UNL     1     -15.509  59.210  52.248  0.00  0.00    +0.000 A 
ATOM     19  C   UNL     1     -15.016  58.541  53.369  0.00  0.00    +0.000 A 
ATOM     20  H   UNL     1     -11.738  56.110  48.687  0.00  0.00    +0.000 HD
ATOM     21  H   UNL     1     -12.539  55.527  52.575  0.00  0.00    +0.000 HD
ENDBRANCH   1  13
BRANCH   7  22
ATOM     22  C   UNL     1      -9.408  51.860  52.017  0.00  0.00    +0.000 C 
ATOM     23  C   UNL     1      -8.212  50.908  51.822  0.00  0.00    +0.000 C 
BRANCH  22  24
ATOM     24  C   UNL     1      -9.254  52.516  53.411  0.00  0.00    +0.000 C 
ATOM     25  C   UNL     1      -8.171  51.920  54.303  0.00  0.00    +0.000 C 
ENDBRANCH  22  24
ENDBRANCH   7  22
BRANCH   5  26
ATOM     26  C   UNL     1      -7.331  54.124  50.669  0.00  0.00    +0.000 C 
BRANCH  26  27
ATOM     27  C   UNL     1      -6.507  54.228  51.940  0.00  0.00    +0.000 A 
ATOM     28  C   UNL     1      -5.413  53.398  52.230  0.00  0.00    +0.000 A 
ATOM     29  C   UNL     1      -6.851  55.219  52.876  0.00  0.00    +0.000 A 
ATOM     30  C   UNL     1      -4.669  53.572  53.401  0.00  0.00    +0.000 A 
ATOM     31  C   UNL     1      -6.105  55.396  54.044  0.00  0.00    +0.000 A 
ATOM     32  C   UNL     1      -5.010  54.577  54.303  0.00  0.00    +0.000 A 
ENDBRANCH  26  27
ENDBRANCH   5  26
TORSDOF 5
ENDMDL
