MODEL 1
REMARK VINA RESULT:      -7.8      0.000      0.000
REMARK  Name = 
REMARK  8 active torsions:
REMARK  status: ('A' for Active; 'I' for Inactive)
REMARK    1  A    between atoms: C_6  and  C_10
REMARK    2  A    between atoms: N_17  and  C_20
REMARK    3  A    between atoms: C_19  and  C_21
REMARK    4  A    between atoms: C_20  and  C_22
REMARK    5  A    between atoms: C_21  and  C_23
REMARK    6  A    between atoms: C_21  and  C_24
REMARK    7  A    between atoms: C_21  and  C_25
REMARK    8  A    between atoms: C_22  and  C_26
REMARK                            x       y       z     vdW  Elec       q    Type
REMARK                         _______ _______ _______ _____ _____    ______ ____
ROOT
ATOM      1  C   UNL     1     -10.735  55.245  47.803  0.00  0.00    +0.000 C 
ATOM      2  C   UNL     1     -12.123  55.689  47.661  0.00  0.00    +0.000 C 
ATOM      3  C   UNL     1     -10.358  55.602  49.037  0.00  0.00    +0.000 C 
ATOM      4  O   UNL     1     -12.764  55.565  46.628  0.00  0.00    +0.000 OA
ATOM      5  N   UNL     1     -12.522  56.263  48.851  0.00  0.00    +0.000 N 
ATOM      6  O   UNL     1      -9.097  55.435  49.557  0.00  0.00    +0.000 OA
ATOM      7  C   UNL     1     -11.466  56.229  49.877  0.00  0.00    +0.000 C 
ENDROOT
BRANCH   1  13
ATOM      8  S   UNL     1      -7.818  54.289  45.399  0.00  0.00    +0.000 S 
ATOM      9  O   UNL     1      -6.857  53.477  46.114  0.00  0.00    +0.000 OA
ATOM     10  O   UNL     1      -7.373  55.302  44.462  0.00  0.00    +0.000 OA
ATOM     11  N   UNL     1      -8.774  55.022  46.489  0.00  0.00    +0.000 N 
ATOM     12  C   UNL     1      -8.807  53.169  44.470  0.00  0.00    +0.000 A 
ATOM     13  C   UNL     1      -9.966  54.562  46.728  0.00  0.00    +0.000 C 
ATOM     14  C   UNL     1     -10.083  52.895  44.937  0.00  0.00    +0.000 A 
ATOM     15  C   UNL     1      -8.303  52.587  43.303  0.00  0.00    +0.000 A 
ATOM     16  N   UNL     1     -10.572  53.508  46.085  0.00  0.00    +0.000 N 
ATOM     17  C   UNL     1     -10.874  51.999  44.214  0.00  0.00    +0.000 A 
ATOM     18  C   UNL     1      -9.106  51.703  42.588  0.00  0.00    +0.000 A 
ATOM     19  C   UNL     1     -10.391  51.408  43.043  0.00  0.00    +0.000 A 
ATOM     20  H   UNL     1      -8.448  55.816  46.972  0.00  0.00    +0.000 HD
ATOM     21  H   UNL     1     -11.412  53.162  46.464  0.00  0.00    +0.000 HD
ENDBRANCH   1  13
BRANCH   7  22
ATOM     22  C   UNL     1     -11.805  55.437  51.200  0.00  0.00    +0.000 C 
ATOM     23  C   UNL     1     -10.560  55.301  52.114  0.00  0.00    +0.000 C 
ATOM     24  C   UNL     1     -12.842  56.177  52.071  0.00  0.00    +0.000 C 
ATOM     25  C   UNL     1     -12.323  54.019  50.892  0.00  0.00    +0.000 C 
ENDBRANCH   7  22
BRANCH   5  26
ATOM     26  C   UNL     1     -13.867  56.805  48.987  0.00  0.00    +0.000 C 
BRANCH  26  27
ATOM     27  C   UNL     1     -14.073  58.206  48.415  0.00  0.00    +0.000 C 
BRANCH  27  28
ATOM     28  C   UNL     1     -13.767  59.248  49.459  0.00  0.00    +0.000 C 
ATOM     29  C   UNL     1     -14.774  59.565  50.533  0.00  0.00    +0.000 C 
ATOM     30  C   UNL     1     -14.488  60.572  49.454  0.00  0.00    +0.000 C 
ENDBRANCH  27  28
ENDBRANCH  26  27
ENDBRANCH   5  26
TORSDOF 5
ENDMDL
MODEL 2
REMARK VINA RESULT:      -7.7      3.668      6.094
REMARK  Name = 
REMARK  8 active torsions:
REMARK  status: ('A' for Active; 'I' for Inactive)
REMARK    1  A    between atoms: C_6  and  C_10
REMARK    2  A    between atoms: N_17  and  C_20
REMARK    3  A    between atoms: C_19  and  C_21
REMARK    4  A    between atoms: C_20  and  C_22
REMARK    5  A    between atoms: C_21  and  C_23
REMARK    6  A    between atoms: C_21  and  C_24
REMARK    7  A    between atoms: C_21  and  C_25
REMARK    8  A    between atoms: C_22  and  C_26
REMARK                            x       y       z     vdW  Elec       q    Type
REMARK                         _______ _______ _______ _____ _____    ______ ____
ROOT
ATOM      1  C   UNL     1     -10.347  55.089  50.626  0.00  0.00    +0.000 C 
ATOM      2  C   UNL     1     -11.398  55.390  51.601  0.00  0.00    +0.000 C 
ATOM      3  C   UNL     1     -10.963  54.982  49.442  0.00  0.00    +0.000 C 
ATOM      4  O   UNL     1     -11.188  55.503  52.800  0.00  0.00    +0.000 OA
ATOM      5  N   UNL     1     -12.601  55.487  50.931  0.00  0.00    +0.000 N 
ATOM      6  O   UNL     1     -10.351  54.635  48.262  0.00  0.00    +0.000 OA
ATOM      7  C   UNL     1     -12.457  55.289  49.480  0.00  0.00    +0.000 C 
ENDROOT
BRANCH   1  13
ATOM      8  S   UNL     1      -6.530  54.378  50.277  0.00  0.00    +0.000 S 
ATOM      9  O   UNL     1      -5.886  55.517  49.659  0.00  0.00    +0.000 OA
ATOM     10  O   UNL     1      -6.138  53.028  49.920  0.00  0.00    +0.000 OA
ATOM     11  N   UNL     1      -8.130  54.501  50.026  0.00  0.00    +0.000 N 
ATOM     12  C   UNL     1      -6.234  54.529  52.005  0.00  0.00    +0.000 A 
ATOM     13  C   UNL     1      -8.910  54.927  50.975  0.00  0.00    +0.000 C 
ATOM     14  C   UNL     1      -7.280  54.964  52.803  0.00  0.00    +0.000 A 
ATOM     15  C   UNL     1      -4.978  54.215  52.533  0.00  0.00    +0.000 A 
ATOM     16  N   UNL     1      -8.528  55.244  52.257  0.00  0.00    +0.000 N 
ATOM     17  C   UNL     1      -7.054  55.099  54.175  0.00  0.00    +0.000 A 
ATOM     18  C   UNL     1      -4.771  54.345  53.904  0.00  0.00    +0.000 A 
ATOM     19  C   UNL     1      -5.808  54.787  54.725  0.00  0.00    +0.000 A 
ATOM     20  H   UNL     1      -8.510  54.253  49.152  0.00  0.00    +0.000 HD
ATOM     21  H   UNL     1      -9.185  55.701  52.831  0.00  0.00    +0.000 HD
ENDBRANCH   1  13
BRANCH   7  22
ATOM     22  C   UNL     1     -12.893  56.499  48.564  0.00  0.00    +0.000 C 
ATOM     23  C   UNL     1     -14.429  56.715  48.602  0.00  0.00    +0.000 C 
ATOM     24  C   UNL     1     -12.305  57.840  49.054  0.00  0.00    +0.000 C 
ATOM     25  C   UNL     1     -12.483  56.274  47.097  0.00  0.00    +0.000 C 
ENDBRANCH   7  22
BRANCH   5  26
ATOM     26  C   UNL     1     -13.825  55.771  51.666  0.00  0.00    +0.000 C 
BRANCH  26  27
ATOM     27  C   UNL     1     -13.833  57.080  52.453  0.00  0.00    +0.000 C 
BRANCH  27  28
ATOM     28  C   UNL     1     -15.066  57.880  52.125  0.00  0.00    +0.000 C 
ATOM     29  C   UNL     1     -14.951  59.178  51.370  0.00  0.00    +0.000 C 
ATOM     30  C   UNL     1     -15.337  59.189  52.822  0.00  0.00    +0.000 C 
ENDBRANCH  27  28
ENDBRANCH  26  27
ENDBRANCH   5  26
TORSDOF 5
ENDMDL
MODEL 3
REMARK VINA RESULT:      -7.3      3.263      7.555
REMARK  Name = 
REMARK  8 active torsions:
REMARK  status: ('A' for Active; 'I' for Inactive)
REMARK    1  A    between atoms: C_6  and  C_10
REMARK    2  A    between atoms: N_17  and  C_20
REMARK    3  A    between atoms: C_19  and  C_21
REMARK    4  A    between atoms: C_20  and  C_22
REMARK    5  A    between atoms: C_21  and  C_23
REMARK    6  A    between atoms: C_21  and  C_24
REMARK    7  A    between atoms: C_21  and  C_25
REMARK    8  A    between atoms: C_22  and  C_26
REMARK                            x       y       z     vdW  Elec       q    Type
REMARK                         _______ _______ _______ _____ _____    ______ ____
ROOT
ATOM      1  C   UNL     1     -12.418  54.468  49.834  0.00  0.00    +0.000 C 
ATOM      2  C   UNL     1     -12.145  54.234  48.415  0.00  0.00    +0.000 C 
ATOM      3  C   UNL     1     -11.969  53.384  50.480  0.00  0.00    +0.000 C 
ATOM      4  O   UNL     1     -12.475  55.012  47.532  0.00  0.00    +0.000 OA
ATOM      5  N   UNL     1     -11.502  53.019  48.287  0.00  0.00    +0.000 N 
ATOM      6  O   UNL     1     -12.094  53.161  51.829  0.00  0.00    +0.000 OA
ATOM      7  C   UNL     1     -11.273  52.363  49.585  0.00  0.00    +0.000 C 
ENDROOT
BRANCH   1  13
ATOM      8  S   UNL     1     -14.400  56.849  52.201  0.00  0.00    +0.000 S 
ATOM      9  O   UNL     1     -13.531  57.293  53.270  0.00  0.00    +0.000 OA
ATOM     10  O   UNL     1     -15.785  56.512  52.471  0.00  0.00    +0.000 OA
ATOM     11  N   UNL     1     -13.715  55.557  51.493  0.00  0.00    +0.000 N 
ATOM     12  C   UNL     1     -14.439  58.160  51.028  0.00  0.00    +0.000 A 
ATOM     13  C   UNL     1     -13.086  55.688  50.363  0.00  0.00    +0.000 C 
ATOM     14  C   UNL     1     -13.701  58.005  49.865  0.00  0.00    +0.000 A 
ATOM     15  C   UNL     1     -15.194  59.308  51.281  0.00  0.00    +0.000 A 
ATOM     16  N   UNL     1     -12.980  56.842  49.623  0.00  0.00    +0.000 N 
ATOM     17  C   UNL     1     -13.715  59.044  48.930  0.00  0.00    +0.000 A 
ATOM     18  C   UNL     1     -15.206  60.331  50.337  0.00  0.00    +0.000 A 
ATOM     19  C   UNL     1     -14.466  60.199  49.161  0.00  0.00    +0.000 A 
ATOM     20  H   UNL     1     -13.776  54.673  51.922  0.00  0.00    +0.000 HD
ATOM     21  H   UNL     1     -12.348  56.845  48.868  0.00  0.00    +0.000 HD
ENDBRANCH   1  13
BRANCH   7  22
ATOM     22  C   UNL     1      -9.766  52.086  49.969  0.00  0.00    +0.000 C 
ATOM     23  C   UNL     1      -9.655  51.324  51.315  0.00  0.00    +0.000 C 
ATOM     24  C   UNL     1      -9.067  51.165  48.947  0.00  0.00    +0.000 C 
ATOM     25  C   UNL     1      -8.967  53.396  50.098  0.00  0.00    +0.000 C 
ENDBRANCH   7  22
BRANCH   5  26
ATOM     26  C   UNL     1     -11.121  52.528  46.971  0.00  0.00    +0.000 C 
BRANCH  26  27
ATOM     27  C   UNL     1     -10.483  53.561  46.043  0.00  0.00    +0.000 C 
BRANCH  27  28
ATOM     28  C   UNL     1      -9.087  53.888  46.506  0.00  0.00    +0.000 C 
ATOM     29  C   UNL     1      -8.722  55.300  46.879  0.00  0.00    +0.000 C 
ATOM     30  C   UNL     1      -8.157  54.687  45.629  0.00  0.00    +0.000 C 
ENDBRANCH  27  28
ENDBRANCH  26  27
ENDBRANCH   5  26
TORSDOF 5
ENDMDL
MODEL 4
REMARK VINA RESULT:      -7.3      3.691      6.699
REMARK  Name = 
REMARK  8 active torsions:
REMARK  status: ('A' for Active; 'I' for Inactive)
REMARK    1  A    between atoms: C_6  and  C_10
REMARK    2  A    between atoms: N_17  and  C_20
REMARK    3  A    between atoms: C_19  and  C_21
REMARK    4  A    between atoms: C_20  and  C_22
REMARK    5  A    between atoms: C_21  and  C_23
REMARK    6  A    between atoms: C_21  and  C_24
REMARK    7  A    between atoms: C_21  and  C_25
REMARK    8  A    between atoms: C_22  and  C_26
REMARK                            x       y       z     vdW  Elec       q    Type
REMARK                         _______ _______ _______ _____ _____    ______ ____
ROOT
ATOM      1  C   UNL     1     -10.744  53.990  50.541  0.00  0.00    +0.000 C 
ATOM      2  C   UNL     1     -11.638  55.111  50.837  0.00  0.00    +0.000 C 
ATOM      3  C   UNL     1     -11.097  53.549  49.326  0.00  0.00    +0.000 C 
ATOM      4  O   UNL     1     -11.622  55.719  51.898  0.00  0.00    +0.000 OA
ATOM      5  N   UNL     1     -12.465  55.310  49.751  0.00  0.00    +0.000 N 
ATOM      6  O   UNL     1     -10.554  52.456  48.695  0.00  0.00    +0.000 OA
ATOM      7  C   UNL     1     -12.185  54.375  48.649  0.00  0.00    +0.000 C 
ENDROOT
BRANCH   1  13
ATOM      8  S   UNL     1      -8.585  51.564  52.698  0.00  0.00    +0.000 S 
ATOM      9  O   UNL     1      -7.655  50.861  51.841  0.00  0.00    +0.000 OA
ATOM     10  O   UNL     1      -9.253  50.871  53.783  0.00  0.00    +0.000 OA
ATOM     11  N   UNL     1      -9.737  52.225  51.763  0.00  0.00    +0.000 N 
ATOM     12  C   UNL     1      -7.670  52.868  53.445  0.00  0.00    +0.000 A 
ATOM     13  C   UNL     1      -9.697  53.492  51.472  0.00  0.00    +0.000 C 
ATOM     14  C   UNL     1      -7.868  54.152  52.962  0.00  0.00    +0.000 A 
ATOM     15  C   UNL     1      -6.782  52.596  54.489  0.00  0.00    +0.000 A 
ATOM     16  N   UNL     1      -8.778  54.402  51.941  0.00  0.00    +0.000 N 
ATOM     17  C   UNL     1      -7.139  55.196  53.539  0.00  0.00    +0.000 A 
ATOM     18  C   UNL     1      -6.069  53.647  55.060  0.00  0.00    +0.000 A 
ATOM     19  C   UNL     1      -6.248  54.947  54.586  0.00  0.00    +0.000 A 
ATOM     20  H   UNL     1     -10.468  51.665  51.414  0.00  0.00    +0.000 HD
ATOM     21  H   UNL     1      -8.764  55.294  51.525  0.00  0.00    +0.000 HD
ENDBRANCH   1  13
BRANCH   7  22
ATOM     22  C   UNL     1     -11.746  55.025  47.278  0.00  0.00    +0.000 C 
ATOM     23  C   UNL     1     -10.274  55.509  47.325  0.00  0.00    +0.000 C 
ATOM     24  C   UNL     1     -11.780  54.009  46.117  0.00  0.00    +0.000 C 
ATOM     25  C   UNL     1     -12.631  56.233  46.918  0.00  0.00    +0.000 C 
ENDBRANCH   7  22
BRANCH   5  26
ATOM     26  C   UNL     1     -13.469  56.364  49.779  0.00  0.00    +0.000 C 
BRANCH  26  27
ATOM     27  C   UNL     1     -14.778  56.008  50.482  0.00  0.00    +0.000 C 
BRANCH  27  28
ATOM     28  C   UNL     1     -15.290  57.189  51.263  0.00  0.00    +0.000 C 
ATOM     29  C   UNL     1     -14.387  57.911  52.227  0.00  0.00    +0.000 C 
ATOM     30  C   UNL     1     -15.526  57.081  52.748  0.00  0.00    +0.000 C 
ENDBRANCH  27  28
ENDBRANCH  26  27
ENDBRANCH   5  26
TORSDOF 5
ENDMDL
MODEL 5
REMARK VINA RESULT:      -7.3      2.768      7.831
REMARK  Name = 
REMARK  8 active torsions:
REMARK  status: ('A' for Active; 'I' for Inactive)
REMARK    1  A    between atoms: C_6  and  C_10
REMARK    2  A    between atoms: N_17  and  C_20
REMARK    3  A    between atoms: C_19  and  C_21
REMARK    4  A    between atoms: C_20  and  C_22
REMARK    5  A    between atoms: C_21  and  C_23
REMARK    6  A    between atoms: C_21  and  C_24
REMARK    7  A    between atoms: C_21  and  C_25
REMARK    8  A    between atoms: C_22  and  C_26
REMARK                            x       y       z     vdW  Elec       q    Type
REMARK                         _______ _______ _______ _____ _____    ______ ____
ROOT
ATOM      1  C   UNL     1     -12.224  55.342  48.631  0.00  0.00    +0.000 C 
ATOM      2  C   UNL     1     -11.812  55.340  47.226  0.00  0.00    +0.000 C 
ATOM      3  C   UNL     1     -11.857  54.153  49.125  0.00  0.00    +0.000 C 
ATOM      4  O   UNL     1     -12.042  56.264  46.459  0.00  0.00    +0.000 OA
ATOM      5  N   UNL     1     -11.173  54.146  46.959  0.00  0.00    +0.000 N 
ATOM      6  O   UNL     1     -12.120  53.712  50.399  0.00  0.00    +0.000 OA
ATOM      7  C   UNL     1     -11.084  53.277  48.144  0.00  0.00    +0.000 C 
ENDROOT
BRANCH   1  13
ATOM      8  S   UNL     1     -13.526  58.943  49.367  0.00  0.00    +0.000 S 
ATOM      9  O   UNL     1     -14.621  59.248  48.470  0.00  0.00    +0.000 OA
ATOM     10  O   UNL     1     -12.536  59.952  49.688  0.00  0.00    +0.000 OA
ATOM     11  N   UNL     1     -12.733  57.654  48.778  0.00  0.00    +0.000 N 
ATOM     12  C   UNL     1     -14.263  58.481  50.896  0.00  0.00    +0.000 A 
ATOM     13  C   UNL     1     -12.929  56.475  49.290  0.00  0.00    +0.000 C 
ATOM     14  C   UNL     1     -14.288  57.134  51.218  0.00  0.00    +0.000 A 
ATOM     15  C   UNL     1     -14.796  59.457  51.743  0.00  0.00    +0.000 A 
ATOM     16  N   UNL     1     -13.726  56.184  50.373  0.00  0.00    +0.000 N 
ATOM     17  C   UNL     1     -14.880  56.753  52.425  0.00  0.00    +0.000 A 
ATOM     18  C   UNL     1     -15.375  59.064  52.947  0.00  0.00    +0.000 A 
ATOM     19  C   UNL     1     -15.417  57.712  53.288  0.00  0.00    +0.000 A 
ATOM     20  H   UNL     1     -12.101  57.765  48.031  0.00  0.00    +0.000 HD
ATOM     21  H   UNL     1     -13.911  55.236  50.563  0.00  0.00    +0.000 HD
ENDBRANCH   1  13
BRANCH   7  22
ATOM     22  C   UNL     1      -9.628  52.897  48.622  0.00  0.00    +0.000 C 
ATOM     23  C   UNL     1      -8.762  54.160  48.861  0.00  0.00    +0.000 C 
ATOM     24  C   UNL     1      -9.635  52.171  49.984  0.00  0.00    +0.000 C 
ATOM     25  C   UNL     1      -8.906  52.016  47.584  0.00  0.00    +0.000 C 
ENDBRANCH   7  22
BRANCH   5  26
ATOM     26  C   UNL     1     -10.666  53.871  45.623  0.00  0.00    +0.000 C 
BRANCH  26  27
ATOM     27  C   UNL     1     -11.482  52.874  44.801  0.00  0.00    +0.000 C 
BRANCH  27  28
ATOM     28  C   UNL     1     -10.601  51.752  44.316  0.00  0.00    +0.000 C 
ATOM     29  C   UNL     1      -9.191  52.033  43.870  0.00  0.00    +0.000 C 
ATOM     30  C   UNL     1     -10.232  51.644  42.859  0.00  0.00    +0.000 C 
ENDBRANCH  27  28
ENDBRANCH  26  27
ENDBRANCH   5  26
TORSDOF 5
ENDMDL
MODEL 6
REMARK VINA RESULT:      -7.2      3.133      7.941
REMARK  Name = 
REMARK  8 active torsions:
REMARK  status: ('A' for Active; 'I' for Inactive)
REMARK    1  A    between atoms: C_6  and  C_10
REMARK    2  A    between atoms: N_17  and  C_20
REMARK    3  A    between atoms: C_19  and  C_21
REMARK    4  A    between atoms: C_20  and  C_22
REMARK    5  A    between atoms: C_21  and  C_23
REMARK    6  A    between atoms: C_21  and  C_24
REMARK    7  A    between atoms: C_21  and  C_25
REMARK    8  A    between atoms: C_22  and  C_26
REMARK                            x       y       z     vdW  Elec       q    Type
REMARK                         _______ _______ _______ _____ _____    ______ ____
ROOT
ATOM      1  C   UNL     1     -11.532  55.894  48.786  0.00  0.00    +0.000 C 
ATOM      2  C   UNL     1     -10.547  55.108  49.531  0.00  0.00    +0.000 C 
ATOM      3  C   UNL     1     -11.386  55.546  47.501  0.00  0.00    +0.000 C 
ATOM      4  O   UNL     1     -10.374  55.218  50.736  0.00  0.00    +0.000 OA
ATOM      5  N   UNL     1      -9.879  54.288  48.644  0.00  0.00    +0.000 N 
ATOM      6  O   UNL     1     -12.073  56.103  46.450  0.00  0.00    +0.000 OA
ATOM      7  C   UNL     1     -10.368  54.436  47.263  0.00  0.00    +0.000 C 
ENDROOT
BRANCH   1  13
ATOM      8  S   UNL     1     -13.525  59.183  49.426  0.00  0.00    +0.000 S 
ATOM      9  O   UNL     1     -14.643  59.251  48.509  0.00  0.00    +0.000 OA
ATOM     10  O   UNL     1     -12.757  60.373  49.738  0.00  0.00    +0.000 OA
ATOM     11  N   UNL     1     -12.485  58.063  48.876  0.00  0.00    +0.000 N 
ATOM     12  C   UNL     1     -14.183  58.615  50.956  0.00  0.00    +0.000 A 
ATOM     13  C   UNL     1     -12.455  56.879  49.411  0.00  0.00    +0.000 C 
ATOM     14  C   UNL     1     -13.950  57.295  51.307  0.00  0.00    +0.000 A 
ATOM     15  C   UNL     1     -14.911  59.484  51.774  0.00  0.00    +0.000 A 
ATOM     16  N   UNL     1     -13.198  56.458  50.490  0.00  0.00    +0.000 N 
ATOM     17  C   UNL     1     -14.476  56.828  52.514  0.00  0.00    +0.000 A 
ATOM     18  C   UNL     1     -15.422  59.007  52.978  0.00  0.00    +0.000 A 
ATOM     19  C   UNL     1     -15.204  57.680  53.349  0.00  0.00    +0.000 A 
ATOM     20  H   UNL     1     -11.875  58.282  48.134  0.00  0.00    +0.000 HD
ATOM     21  H   UNL     1     -13.198  55.496  50.698  0.00  0.00    +0.000 HD
ENDBRANCH   1  13
BRANCH   7  22
ATOM     22  C   UNL     1     -10.969  53.137  46.594  0.00  0.00    +0.000 C 
ATOM     23  C   UNL     1      -9.921  51.996  46.527  0.00  0.00    +0.000 C 
ATOM     24  C   UNL     1     -12.131  52.544  47.419  0.00  0.00    +0.000 C 
ATOM     25  C   UNL     1     -11.458  53.416  45.160  0.00  0.00    +0.000 C 
ENDBRANCH   7  22
BRANCH   5  26
ATOM     26  C   UNL     1      -8.828  53.400  49.117  0.00  0.00    +0.000 C 
BRANCH  26  27
ATOM     27  C   UNL     1      -7.411  53.760  48.673  0.00  0.00    +0.000 C 
BRANCH  27  28
ATOM     28  C   UNL     1      -6.767  54.679  49.678  0.00  0.00    +0.000 C 
ATOM     29  C   UNL     1      -5.387  55.229  49.429  0.00  0.00    +0.000 C 
ATOM     30  C   UNL     1      -5.602  54.207  50.510  0.00  0.00    +0.000 C 
ENDBRANCH  27  28
ENDBRANCH  26  27
ENDBRANCH   5  26
TORSDOF 5
ENDMDL
MODEL 7
REMARK VINA RESULT:      -7.1      2.934      7.619
REMARK  Name = 
REMARK  8 active torsions:
REMARK  status: ('A' for Active; 'I' for Inactive)
REMARK    1  A    between atoms: C_6  and  C_10
REMARK    2  A    between atoms: N_17  and  C_20
REMARK    3  A    between atoms: C_19  and  C_21
REMARK    4  A    between atoms: C_20  and  C_22
REMARK    5  A    between atoms: C_21  and  C_23
REMARK    6  A    between atoms: C_21  and  C_24
REMARK    7  A    between atoms: C_21  and  C_25
REMARK    8  A    between atoms: C_22  and  C_26
REMARK                            x       y       z     vdW  Elec       q    Type
REMARK                         _______ _______ _______ _____ _____    ______ ____
ROOT
ATOM      1  C   UNL     1     -11.168  55.379  49.568  0.00  0.00    +0.000 C 
ATOM      2  C   UNL     1     -11.526  54.070  49.021  0.00  0.00    +0.000 C 
ATOM      3  C   UNL     1      -9.835  55.369  49.705  0.00  0.00    +0.000 C 
ATOM      4  O   UNL     1     -12.680  53.721  48.818  0.00  0.00    +0.000 OA
ATOM      5  N   UNL     1     -10.368  53.348  48.818  0.00  0.00    +0.000 N 
ATOM      6  O   UNL     1      -9.091  56.384  50.255  0.00  0.00    +0.000 OA
ATOM      7  C   UNL     1      -9.159  54.106  49.182  0.00  0.00    +0.000 C 
ENDROOT
BRANCH   1  13
ATOM      8  S   UNL     1     -13.231  58.682  49.372  0.00  0.00    +0.000 S 
ATOM      9  O   UNL     1     -14.249  58.549  48.352  0.00  0.00    +0.000 OA
ATOM     10  O   UNL     1     -12.504  59.927  49.529  0.00  0.00    +0.000 OA
ATOM     11  N   UNL     1     -12.135  57.504  49.151  0.00  0.00    +0.000 N 
ATOM     12  C   UNL     1     -14.040  58.395  50.908  0.00  0.00    +0.000 A 
ATOM     13  C   UNL     1     -12.155  56.442  49.900  0.00  0.00    +0.000 C 
ATOM     14  C   UNL     1     -13.838  57.170  51.524  0.00  0.00    +0.000 A 
ATOM     15  C   UNL     1     -14.853  59.383  51.470  0.00  0.00    +0.000 A 
ATOM     16  N   UNL     1     -13.003  56.213  50.959  0.00  0.00    +0.000 N 
ATOM     17  C   UNL     1     -14.484  56.925  52.739  0.00  0.00    +0.000 A 
ATOM     18  C   UNL     1     -15.483  59.129  52.686  0.00  0.00    +0.000 A 
ATOM     19  C   UNL     1     -15.299  57.900  53.320  0.00  0.00    +0.000 A 
ATOM     20  H   UNL     1     -11.453  57.594  48.446  0.00  0.00    +0.000 HD
ATOM     21  H   UNL     1     -13.020  55.307  51.344  0.00  0.00    +0.000 HD
ENDBRANCH   1  13
BRANCH   7  22
ATOM     22  C   UNL     1      -8.120  54.360  48.020  0.00  0.00    +0.000 C 
ATOM     23  C   UNL     1      -6.836  55.052  48.549  0.00  0.00    +0.000 C 
ATOM     24  C   UNL     1      -7.617  53.043  47.393  0.00  0.00    +0.000 C 
ATOM     25  C   UNL     1      -8.717  55.251  46.914  0.00  0.00    +0.000 C 
ENDBRANCH   7  22
BRANCH   5  26
ATOM     26  C   UNL     1     -10.433  51.995  48.286  0.00  0.00    +0.000 C 
BRANCH  26  27
ATOM     27  C   UNL     1     -11.359  51.802  47.086  0.00  0.00    +0.000 C 
BRANCH  27  28
ATOM     28  C   UNL     1     -10.773  52.459  45.863  0.00  0.00    +0.000 C 
ATOM     29  C   UNL     1     -11.512  53.574  45.172  0.00  0.00    +0.000 C 
ATOM     30  C   UNL     1     -11.387  52.234  44.505  0.00  0.00    +0.000 C 
ENDBRANCH  27  28
ENDBRANCH  26  27
ENDBRANCH   5  26
TORSDOF 5
ENDMDL
MODEL 8
REMARK VINA RESULT:      -7.0      2.894      7.847
REMARK  Name = 
REMARK  8 active torsions:
REMARK  status: ('A' for Active; 'I' for Inactive)
REMARK    1  A    between atoms: C_6  and  C_10
REMARK    2  A    between atoms: N_17  and  C_20
REMARK    3  A    between atoms: C_19  and  C_21
REMARK    4  A    between atoms: C_20  and  C_22
REMARK    5  A    between atoms: C_21  and  C_23
REMARK    6  A    between atoms: C_21  and  C_24
REMARK    7  A    between atoms: C_21  and  C_25
REMARK    8  A    between atoms: C_22  and  C_26
REMARK                            x       y       z     vdW  Elec       q    Type
REMARK                         _______ _______ _______ _____ _____    ______ ____
ROOT
ATOM      1  C   UNL     1     -11.970  54.720  48.594  0.00  0.00    +0.000 C 
ATOM      2  C   UNL     1     -11.365  54.962  47.283  0.00  0.00    +0.000 C 
ATOM      3  C   UNL     1     -11.576  53.495  48.961  0.00  0.00    +0.000 C 
ATOM      4  O   UNL     1     -11.563  55.978  46.630  0.00  0.00    +0.000 OA
ATOM      5  N   UNL     1     -10.596  53.867  46.946  0.00  0.00    +0.000 N 
ATOM      6  O   UNL     1     -11.977  52.845  50.103  0.00  0.00    +0.000 OA
ATOM      7  C   UNL     1     -10.601  52.831  47.993  0.00  0.00    +0.000 C 
ENDROOT
BRANCH   1  13
ATOM      8  S   UNL     1     -14.836  56.153  50.817  0.00  0.00    +0.000 S 
ATOM      9  O   UNL     1     -14.470  56.021  52.211  0.00  0.00    +0.000 OA
ATOM     10  O   UNL     1     -16.197  55.899  50.386  0.00  0.00    +0.000 OA
ATOM     11  N   UNL     1     -13.863  55.188  49.944  0.00  0.00    +0.000 N 
ATOM     12  C   UNL     1     -14.489  57.821  50.377  0.00  0.00    +0.000 A 
ATOM     13  C   UNL     1     -12.855  55.690  49.294  0.00  0.00    +0.000 C 
ATOM     14  C   UNL     1     -13.354  58.066  49.621  0.00  0.00    +0.000 A 
ATOM     15  C   UNL     1     -15.345  58.847  50.787  0.00  0.00    +0.000 A 
ATOM     16  N   UNL     1     -12.534  57.024  49.202  0.00  0.00    +0.000 N 
ATOM     17  C   UNL     1     -13.062  59.387  49.274  0.00  0.00    +0.000 A 
ATOM     18  C   UNL     1     -15.046  60.159  50.426  0.00  0.00    +0.000 A 
ATOM     19  C   UNL     1     -13.905  60.429  49.670  0.00  0.00    +0.000 A 
ATOM     20  H   UNL     1     -14.037  54.219  49.907  0.00  0.00    +0.000 HD
ATOM     21  H   UNL     1     -11.661  57.259  48.811  0.00  0.00    +0.000 HD
ENDBRANCH   1  13
BRANCH   7  22
ATOM     22  C   UNL     1      -9.199  52.475  48.627  0.00  0.00    +0.000 C 
ATOM     23  C   UNL     1      -8.225  51.903  47.564  0.00  0.00    +0.000 C 
ATOM     24  C   UNL     1      -8.478  53.722  49.179  0.00  0.00    +0.000 C 
ATOM     25  C   UNL     1      -9.338  51.432  49.752  0.00  0.00    +0.000 C 
ENDBRANCH   7  22
BRANCH   5  26
ATOM     26  C   UNL     1      -9.884  53.835  45.678  0.00  0.00    +0.000 C 
BRANCH  26  27
ATOM     27  C   UNL     1     -10.467  52.901  44.618  0.00  0.00    +0.000 C 
BRANCH  27  28
ATOM     28  C   UNL     1      -9.422  52.563  43.587  0.00  0.00    +0.000 C 
ATOM     29  C   UNL     1      -9.789  51.759  42.369  0.00  0.00    +0.000 C 
ATOM     30  C   UNL     1      -8.925  51.148  43.436  0.00  0.00    +0.000 C 
ENDBRANCH  27  28
ENDBRANCH  26  27
ENDBRANCH   5  26
TORSDOF 5
ENDMDL
MODEL 9
REMARK VINA RESULT:      -7.0      1.813      2.168
REMARK  Name = 
REMARK  8 active torsions:
REMARK  status: ('A' for Active; 'I' for Inactive)
REMARK    1  A    between atoms: C_6  and  C_10
REMARK    2  A    between atoms: N_17  and  C_20
REMARK    3  A    between atoms: C_19  and  C_21
REMARK    4  A    between atoms: C_20  and  C_22
REMARK    5  A    between atoms: C_21  and  C_23
REMARK    6  A    between atoms: C_21  and  C_24
REMARK    7  A    between atoms: C_21  and  C_25
REMARK    8  A    between atoms: C_22  and  C_26
REMARK                            x       y       z     vdW  Elec       q    Type
REMARK                         _______ _______ _______ _____ _____    ______ ____
ROOT
ATOM      1  C   UNL     1     -10.583  54.730  48.052  0.00  0.00    +0.000 C 
ATOM      2  C   UNL     1     -11.920  55.274  47.803  0.00  0.00    +0.000 C 
ATOM      3  C   UNL     1     -10.225  55.173  49.264  0.00  0.00    +0.000 C 
ATOM      4  O   UNL     1     -12.528  55.103  46.756  0.00  0.00    +0.000 OA
ATOM      5  N   UNL     1     -12.314  55.992  48.913  0.00  0.00    +0.000 N 
ATOM      6  O   UNL     1      -9.006  54.952  49.857  0.00  0.00    +0.000 OA
ATOM      7  C   UNL     1     -11.306  55.970  49.987  0.00  0.00    +0.000 C 
ENDROOT
BRANCH   1  13
ATOM      8  S   UNL     1      -9.173  53.346  44.691  0.00  0.00    +0.000 S 
ATOM      9  O   UNL     1      -8.090  54.194  44.242  0.00  0.00    +0.000 OA
ATOM     10  O   UNL     1     -10.129  52.809  43.742  0.00  0.00    +0.000 OA
ATOM     11  N   UNL     1     -10.012  54.151  45.825  0.00  0.00    +0.000 N 
ATOM     12  C   UNL     1      -8.416  51.954  45.457  0.00  0.00    +0.000 A 
ATOM     13  C   UNL     1      -9.835  53.883  47.084  0.00  0.00    +0.000 C 
ATOM     14  C   UNL     1      -8.418  51.900  46.842  0.00  0.00    +0.000 A 
ATOM     15  C   UNL     1      -7.839  50.949  44.675  0.00  0.00    +0.000 A 
ATOM     16  N   UNL     1      -9.023  52.898  47.597  0.00  0.00    +0.000 N 
ATOM     17  C   UNL     1      -7.811  50.805  47.462  0.00  0.00    +0.000 A 
ATOM     18  C   UNL     1      -7.245  49.860  45.307  0.00  0.00    +0.000 A 
ATOM     19  C   UNL     1      -7.231  49.788  46.700  0.00  0.00    +0.000 A 
ATOM     20  H   UNL     1     -10.656  54.847  45.556  0.00  0.00    +0.000 HD
ATOM     21  H   UNL     1      -8.858  52.900  48.567  0.00  0.00    +0.000 HD
ENDBRANCH   1  13
BRANCH   7  22
ATOM     22  C   UNL     1     -11.766  55.342  51.361  0.00  0.00    +0.000 C 
ATOM     23  C   UNL     1     -12.886  56.186  52.024  0.00  0.00    +0.000 C 
ATOM     24  C   UNL     1     -12.394  53.944  51.179  0.00  0.00    +0.000 C 
ATOM     25  C   UNL     1     -10.594  55.245  52.356  0.00  0.00    +0.000 C 
ENDBRANCH   7  22
BRANCH   5  26
ATOM     26  C   UNL     1     -13.609  56.655  48.933  0.00  0.00    +0.000 C 
BRANCH  26  27
ATOM     27  C   UNL     1     -13.598  58.134  48.545  0.00  0.00    +0.000 C 
BRANCH  27  28
ATOM     28  C   UNL     1     -13.718  58.997  49.774  0.00  0.00    +0.000 C 
ATOM     29  C   UNL     1     -14.678  60.157  49.796  0.00  0.00    +0.000 C 
ATOM     30  C   UNL     1     -13.197  60.412  49.769  0.00  0.00    +0.000 C 
ENDBRANCH  27  28
ENDBRANCH  26  27
ENDBRANCH   5  26
TORSDOF 5
ENDMDL
