MODEL 1
REMARK VINA RESULT:      -8.0      0.000      0.000
REMARK  Name = 
REMARK  7 active torsions:
REMARK  status: ('A' for Active; 'I' for Inactive)
REMARK    1  A    between atoms: C_6  and  C_10
REMARK    2  A    between atoms: N_17  and  C_20
REMARK    3  A    between atoms: C_19  and  C_21
REMARK    4  A    between atoms: C_20  and  C_22
REMARK    5  A    between atoms: C_21  and  C_23
REMARK    6  A    between atoms: C_21  and  C_24
REMARK    7  A    between atoms: C_21  and  C_25
REMARK                            x       y       z     vdW  Elec       q    Type
REMARK                         _______ _______ _______ _____ _____    ______ ____
ROOT
ATOM      1  C   UNL     1     -11.459  55.855  48.891  0.00  0.00    +0.000 C 
ATOM      2  C   UNL     1     -10.518  55.031  49.655  0.00  0.00    +0.000 C 
ATOM      3  C   UNL     1     -11.299  55.506  47.609  0.00  0.00    +0.000 C 
ATOM      4  O   UNL     1     -10.334  55.164  50.855  0.00  0.00    +0.000 OA
ATOM      5  N   UNL     1      -9.944  54.122  48.794  0.00  0.00    +0.000 N 
ATOM      6  O   UNL     1     -11.956  56.082  46.549  0.00  0.00    +0.000 OA
ATOM      7  C   UNL     1     -10.318  54.359  47.390  0.00  0.00    +0.000 C 
ENDROOT
BRANCH   1  13
ATOM      8  S   UNL     1     -13.485  59.134  49.425  0.00  0.00    +0.000 S 
ATOM      9  O   UNL     1     -14.588  59.146  48.474  0.00  0.00    +0.000 OA
ATOM     10  O   UNL     1     -12.755  60.359  49.708  0.00  0.00    +0.000 OA
ATOM     11  N   UNL     1     -12.415  58.020  48.931  0.00  0.00    +0.000 N 
ATOM     12  C   UNL     1     -14.168  58.600  50.949  0.00  0.00    +0.000 A 
ATOM     13  C   UNL     1     -12.390  56.847  49.490  0.00  0.00    +0.000 C 
ATOM     14  C   UNL     1     -13.926  57.292  51.342  0.00  0.00    +0.000 A 
ATOM     15  C   UNL     1     -14.922  59.481  51.729  0.00  0.00    +0.000 A 
ATOM     16  N   UNL     1     -13.153  56.441  50.559  0.00  0.00    +0.000 N 
ATOM     17  C   UNL     1     -14.454  56.857  52.561  0.00  0.00    +0.000 A 
ATOM     18  C   UNL     1     -15.442  59.036  52.942  0.00  0.00    +0.000 A 
ATOM     19  C   UNL     1     -15.207  57.725  53.357  0.00  0.00    +0.000 A 
ATOM     20  H   UNL     1     -11.783  58.233  48.206  0.00  0.00    +0.000 HD
ATOM     21  H   UNL     1     -13.150  55.483  50.786  0.00  0.00    +0.000 HD
ENDBRANCH   1  13
BRANCH   7  22
ATOM     22  C   UNL     1     -10.907  53.128  46.604  0.00  0.00    +0.000 C 
ATOM     23  C   UNL     1     -11.380  53.533  45.184  0.00  0.00    +0.000 C 
ATOM     24  C   UNL     1      -9.842  52.035  46.367  0.00  0.00    +0.000 C 
ATOM     25  C   UNL     1     -12.102  52.499  47.343  0.00  0.00    +0.000 C 
ENDBRANCH   7  22
BRANCH   5  26
ATOM     26  C   UNL     1      -8.907  53.220  49.279  0.00  0.00    +0.000 C 
BRANCH  26  27
ATOM     27  C   UNL     1      -7.482  53.705  49.147  0.00  0.00    +0.000 A 
ATOM     28  N   UNL     1      -6.991  54.515  50.117  0.00  0.00    +0.000 NA
ATOM     29  C   UNL     1      -6.700  53.259  48.081  0.00  0.00    +0.000 A 
ATOM     30  C   UNL     1      -5.702  54.898  50.016  0.00  0.00    +0.000 A 
ATOM     31  C   UNL     1      -5.371  53.661  48.009  0.00  0.00    +0.000 A 
ATOM     32  C   UNL     1      -4.860  54.495  48.997  0.00  0.00    +0.000 A 
ENDBRANCH  26  27
ENDBRANCH   5  26
TORSDOF 4
ENDMDL
MODEL 2
REMARK VINA RESULT:      -7.8      1.799      3.675
REMARK  Name = 
REMARK  7 active torsions:
REMARK  status: ('A' for Active; 'I' for Inactive)
REMARK    1  A    between atoms: C_6  and  C_10
REMARK    2  A    between atoms: N_17  and  C_20
REMARK    3  A    between atoms: C_19  and  C_21
REMARK    4  A    between atoms: C_20  and  C_22
REMARK    5  A    between atoms: C_21  and  C_23
REMARK    6  A    between atoms: C_21  and  C_24
REMARK    7  A    between atoms: C_21  and  C_25
REMARK                            x       y       z     vdW  Elec       q    Type
REMARK                         _______ _______ _______ _____ _____    ______ ____
ROOT
ATOM      1  C   UNL     1     -10.887  54.970  50.273  0.00  0.00    +0.000 C 
ATOM      2  C   UNL     1     -10.595  54.096  49.134  0.00  0.00    +0.000 C 
ATOM      3  C   UNL     1      -9.916  54.750  51.167  0.00  0.00    +0.000 C 
ATOM      4  O   UNL     1     -11.342  53.975  48.175  0.00  0.00    +0.000 OA
ATOM      5  N   UNL     1      -9.373  53.500  49.350  0.00  0.00    +0.000 N 
ATOM      6  O   UNL     1      -9.843  55.331  52.409  0.00  0.00    +0.000 OA
ATOM      7  C   UNL     1      -8.832  53.790  50.689  0.00  0.00    +0.000 C 
ENDROOT
BRANCH   1  13
ATOM      8  S   UNL     1     -13.734  57.382  49.167  0.00  0.00    +0.000 S 
ATOM      9  O   UNL     1     -14.825  56.580  48.631  0.00  0.00    +0.000 OA
ATOM     10  O   UNL     1     -13.368  58.635  48.526  0.00  0.00    +0.000 OA
ATOM     11  N   UNL     1     -12.411  56.447  49.223  0.00  0.00    +0.000 N 
ATOM     12  C   UNL     1     -14.192  57.781  50.812  0.00  0.00    +0.000 A 
ATOM     13  C   UNL     1     -12.040  55.906  50.345  0.00  0.00    +0.000 C 
ATOM     14  C   UNL     1     -13.581  57.079  51.841  0.00  0.00    +0.000 A 
ATOM     15  C   UNL     1     -15.139  58.780  51.056  0.00  0.00    +0.000 A 
ATOM     16  N   UNL     1     -12.625  56.105  51.573  0.00  0.00    +0.000 N 
ATOM     17  C   UNL     1     -13.928  57.396  53.157  0.00  0.00    +0.000 A 
ATOM     18  C   UNL     1     -15.475  59.087  52.372  0.00  0.00    +0.000 A 
ATOM     19  C   UNL     1     -14.869  58.395  53.422  0.00  0.00    +0.000 A 
ATOM     20  H   UNL     1     -11.887  56.288  48.403  0.00  0.00    +0.000 HD
ATOM     21  H   UNL     1     -12.347  55.518  52.313  0.00  0.00    +0.000 HD
ENDBRANCH   1  13
BRANCH   7  22
ATOM     22  C   UNL     1      -7.367  54.367  50.743  0.00  0.00    +0.000 C 
ATOM     23  C   UNL     1      -6.877  54.536  52.204  0.00  0.00    +0.000 C 
ATOM     24  C   UNL     1      -6.348  53.408  50.093  0.00  0.00    +0.000 C 
ATOM     25  C   UNL     1      -7.269  55.736  50.046  0.00  0.00    +0.000 C 
ENDBRANCH   7  22
BRANCH   5  26
ATOM     26  C   UNL     1      -8.868  52.517  48.400  0.00  0.00    +0.000 C 
BRANCH  26  27
ATOM     27  C   UNL     1      -8.618  53.011  46.995  0.00  0.00    +0.000 A 
ATOM     28  N   UNL     1      -9.159  52.312  45.966  0.00  0.00    +0.000 NA
ATOM     29  C   UNL     1      -7.905  54.194  46.798  0.00  0.00    +0.000 A 
ATOM     30  C   UNL     1      -8.974  52.792  44.720  0.00  0.00    +0.000 A 
ATOM     31  C   UNL     1      -7.740  54.672  45.503  0.00  0.00    +0.000 A 
ATOM     32  C   UNL     1      -8.287  53.959  44.442  0.00  0.00    +0.000 A 
ENDBRANCH  26  27
ENDBRANCH   5  26
TORSDOF 4
ENDMDL
MODEL 3
REMARK VINA RESULT:      -7.7      2.678      3.351
REMARK  Name = 
REMARK  7 active torsions:
REMARK  status: ('A' for Active; 'I' for Inactive)
REMARK    1  A    between atoms: C_6  and  C_10
REMARK    2  A    between atoms: N_17  and  C_20
REMARK    3  A    between atoms: C_19  and  C_21
REMARK    4  A    between atoms: C_20  and  C_22
REMARK    5  A    between atoms: C_21  and  C_23
REMARK    6  A    between atoms: C_21  and  C_24
REMARK    7  A    between atoms: C_21  and  C_25
REMARK                            x       y       z     vdW  Elec       q    Type
REMARK                         _______ _______ _______ _____ _____    ______ ____
ROOT
ATOM      1  C   UNL     1     -10.886  54.714  51.188  0.00  0.00    +0.000 C 
ATOM      2  C   UNL     1     -10.196  54.467  52.457  0.00  0.00    +0.000 C 
ATOM      3  C   UNL     1     -10.357  53.856  50.307  0.00  0.00    +0.000 C 
ATOM      4  O   UNL     1     -10.368  55.149  53.457  0.00  0.00    +0.000 OA
ATOM      5  N   UNL     1      -9.385  53.366  52.300  0.00  0.00    +0.000 N 
ATOM      6  O   UNL     1     -10.687  53.794  48.976  0.00  0.00    +0.000 OA
ATOM      7  C   UNL     1      -9.340  52.892  50.906  0.00  0.00    +0.000 C 
ENDROOT
BRANCH   1  13
ATOM      8  S   UNL     1     -13.309  57.213  49.449  0.00  0.00    +0.000 S 
ATOM      9  O   UNL     1     -14.341  56.444  48.766  0.00  0.00    +0.000 OA
ATOM     10  O   UNL     1     -12.746  58.396  48.818  0.00  0.00    +0.000 OA
ATOM     11  N   UNL     1     -12.087  56.206  49.797  0.00  0.00    +0.000 N 
ATOM     12  C   UNL     1     -14.025  57.748  50.957  0.00  0.00    +0.000 A 
ATOM     13  C   UNL     1     -11.963  55.720  50.996  0.00  0.00    +0.000 C 
ATOM     14  C   UNL     1     -13.660  57.081  52.117  0.00  0.00    +0.000 A 
ATOM     15  C   UNL     1     -14.927  58.816  50.969  0.00  0.00    +0.000 A 
ATOM     16  N   UNL     1     -12.743  56.035  52.083  0.00  0.00    +0.000 N 
ATOM     17  C   UNL     1     -14.214  57.505  53.329  0.00  0.00    +0.000 A 
ATOM     18  C   UNL     1     -15.471  59.230  52.182  0.00  0.00    +0.000 A 
ATOM     19  C   UNL     1     -15.113  58.574  53.361  0.00  0.00    +0.000 A 
ATOM     20  H   UNL     1     -11.438  55.961  49.097  0.00  0.00    +0.000 HD
ATOM     21  H   UNL     1     -12.644  55.484  52.893  0.00  0.00    +0.000 HD
ENDBRANCH   1  13
BRANCH   7  22
ATOM     22  C   UNL     1      -9.660  51.367  50.675  0.00  0.00    +0.000 C 
ATOM     23  C   UNL     1      -9.701  51.018  49.164  0.00  0.00    +0.000 C 
ATOM     24  C   UNL     1      -8.561  50.454  51.260  0.00  0.00    +0.000 C 
ATOM     25  C   UNL     1     -11.012  50.968  51.292  0.00  0.00    +0.000 C 
ENDBRANCH   7  22
BRANCH   5  26
ATOM     26  C   UNL     1      -8.521  52.939  53.394  0.00  0.00    +0.000 C 
BRANCH  26  27
ATOM     27  C   UNL     1      -7.151  53.575  53.451  0.00  0.00    +0.000 A 
ATOM     28  N   UNL     1      -6.865  54.381  54.503  0.00  0.00    +0.000 NA
ATOM     29  C   UNL     1      -6.208  53.265  52.471  0.00  0.00    +0.000 A 
ATOM     30  C   UNL     1      -5.622  54.899  54.571  0.00  0.00    +0.000 A 
ATOM     31  C   UNL     1      -4.931  53.804  52.573  0.00  0.00    +0.000 A 
ATOM     32  C   UNL     1      -4.630  54.636  53.646  0.00  0.00    +0.000 A 
ENDBRANCH  26  27
ENDBRANCH   5  26
TORSDOF 4
ENDMDL
MODEL 4
REMARK VINA RESULT:      -7.7      1.307      3.847
REMARK  Name = 
REMARK  7 active torsions:
REMARK  status: ('A' for Active; 'I' for Inactive)
REMARK    1  A    between atoms: C_6  and  C_10
REMARK    2  A    between atoms: N_17  and  C_20
REMARK    3  A    between atoms: C_19  and  C_21
REMARK    4  A    between atoms: C_20  and  C_22
REMARK    5  A    between atoms: C_21  and  C_23
REMARK    6  A    between atoms: C_21  and  C_24
REMARK    7  A    between atoms: C_21  and  C_25
REMARK                            x       y       z     vdW  Elec       q    Type
REMARK                         _______ _______ _______ _____ _____    ______ ____
ROOT
ATOM      1  C   UNL     1     -11.506  55.662  49.027  0.00  0.00    +0.000 C 
ATOM      2  C   UNL     1     -11.232  55.464  47.601  0.00  0.00    +0.000 C 
ATOM      3  C   UNL     1     -10.768  54.753  49.675  0.00  0.00    +0.000 C 
ATOM      4  O   UNL     1     -11.819  56.069  46.716  0.00  0.00    +0.000 OA
ATOM      5  N   UNL     1     -10.225  54.533  47.481  0.00  0.00    +0.000 N 
ATOM      6  O   UNL     1     -10.774  54.561  51.035  0.00  0.00    +0.000 OA
ATOM      7  C   UNL     1      -9.860  53.925  48.772  0.00  0.00    +0.000 C 
ENDROOT
BRANCH   1  13
ATOM      8  S   UNL     1     -13.458  59.008  49.402  0.00  0.00    +0.000 S 
ATOM      9  O   UNL     1     -14.551  59.006  48.441  0.00  0.00    +0.000 OA
ATOM     10  O   UNL     1     -12.701  60.226  49.641  0.00  0.00    +0.000 OA
ATOM     11  N   UNL     1     -12.411  57.849  48.967  0.00  0.00    +0.000 N 
ATOM     12  C   UNL     1     -14.168  58.555  50.940  0.00  0.00    +0.000 A 
ATOM     13  C   UNL     1     -12.419  56.700  49.574  0.00  0.00    +0.000 C 
ATOM     14  C   UNL     1     -13.962  57.259  51.390  0.00  0.00    +0.000 A 
ATOM     15  C   UNL     1     -14.908  59.486  51.675  0.00  0.00    +0.000 A 
ATOM     16  N   UNL     1     -13.201  56.358  50.651  0.00  0.00    +0.000 N 
ATOM     17  C   UNL     1     -14.511  56.889  52.620  0.00  0.00    +0.000 A 
ATOM     18  C   UNL     1     -15.450  59.104  52.899  0.00  0.00    +0.000 A 
ATOM     19  C   UNL     1     -15.251  57.806  53.372  0.00  0.00    +0.000 A 
ATOM     20  H   UNL     1     -11.767  58.017  48.240  0.00  0.00    +0.000 HD
ATOM     21  H   UNL     1     -13.224  55.410  50.919  0.00  0.00    +0.000 HD
ENDBRANCH   1  13
BRANCH   7  22
ATOM     22  C   UNL     1      -8.334  53.962  49.158  0.00  0.00    +0.000 C 
ATOM     23  C   UNL     1      -8.112  53.554  50.638  0.00  0.00    +0.000 C 
ATOM     24  C   UNL     1      -7.510  52.943  48.341  0.00  0.00    +0.000 C 
ATOM     25  C   UNL     1      -7.728  55.362  48.953  0.00  0.00    +0.000 C 
ENDBRANCH   7  22
BRANCH   5  26
ATOM     26  C   UNL     1      -9.801  54.090  46.159  0.00  0.00    +0.000 C 
BRANCH  26  27
ATOM     27  C   UNL     1     -10.302  52.735  45.715  0.00  0.00    +0.000 A 
ATOM     28  N   UNL     1      -9.386  51.774  45.441  0.00  0.00    +0.000 NA
ATOM     29  C   UNL     1     -11.675  52.492  45.666  0.00  0.00    +0.000 A 
ATOM     30  C   UNL     1      -9.846  50.554  45.098  0.00  0.00    +0.000 A 
ATOM     31  C   UNL     1     -12.120  51.221  45.321  0.00  0.00    +0.000 A 
ATOM     32  C   UNL     1     -11.187  50.230  45.034  0.00  0.00    +0.000 A 
ENDBRANCH  26  27
ENDBRANCH   5  26
TORSDOF 4
ENDMDL
MODEL 5
REMARK VINA RESULT:      -7.6      1.375      2.373
REMARK  Name = 
REMARK  7 active torsions:
REMARK  status: ('A' for Active; 'I' for Inactive)
REMARK    1  A    between atoms: C_6  and  C_10
REMARK    2  A    between atoms: N_17  and  C_20
REMARK    3  A    between atoms: C_19  and  C_21
REMARK    4  A    between atoms: C_20  and  C_22
REMARK    5  A    between atoms: C_21  and  C_23
REMARK    6  A    between atoms: C_21  and  C_24
REMARK    7  A    between atoms: C_21  and  C_25
REMARK                            x       y       z     vdW  Elec       q    Type
REMARK                         _______ _______ _______ _____ _____    ______ ____
ROOT
ATOM      1  C   UNL     1     -11.448  55.950  48.840  0.00  0.00    +0.000 C 
ATOM      2  C   UNL     1     -10.436  55.185  49.573  0.00  0.00    +0.000 C 
ATOM      3  C   UNL     1     -11.339  55.574  47.560  0.00  0.00    +0.000 C 
ATOM      4  O   UNL     1     -10.196  55.357  50.759  0.00  0.00    +0.000 OA
ATOM      5  N   UNL     1      -9.868  54.279  48.706  0.00  0.00    +0.000 N 
ATOM      6  O   UNL     1     -12.073  56.095  46.522  0.00  0.00    +0.000 OA
ATOM      7  C   UNL     1     -10.323  54.464  47.318  0.00  0.00    +0.000 C 
ENDROOT
BRANCH   1  13
ATOM      8  S   UNL     1     -13.520  59.189  49.441  0.00  0.00    +0.000 S 
ATOM      9  O   UNL     1     -14.633  59.197  48.502  0.00  0.00    +0.000 OA
ATOM     10  O   UNL     1     -12.806  60.421  49.735  0.00  0.00    +0.000 OA
ATOM     11  N   UNL     1     -12.438  58.099  48.921  0.00  0.00    +0.000 N 
ATOM     12  C   UNL     1     -14.179  58.622  50.964  0.00  0.00    +0.000 A 
ATOM     13  C   UNL     1     -12.389  56.919  49.462  0.00  0.00    +0.000 C 
ATOM     14  C   UNL     1     -13.913  57.313  51.336  0.00  0.00    +0.000 A 
ATOM     15  C   UNL     1     -14.939  59.480  51.765  0.00  0.00    +0.000 A 
ATOM     16  N   UNL     1     -13.134  56.485  50.533  0.00  0.00    +0.000 N 
ATOM     17  C   UNL     1     -14.422  56.852  52.553  0.00  0.00    +0.000 A 
ATOM     18  C   UNL     1     -15.440  59.009  52.976  0.00  0.00    +0.000 A 
ATOM     19  C   UNL     1     -15.181  57.696  53.370  0.00  0.00    +0.000 A 
ATOM     20  H   UNL     1     -11.817  58.333  48.192  0.00  0.00    +0.000 HD
ATOM     21  H   UNL     1     -13.115  55.524  50.746  0.00  0.00    +0.000 HD
ENDBRANCH   1  13
BRANCH   7  22
ATOM     22  C   UNL     1     -10.898  53.189  46.594  0.00  0.00    +0.000 C 
ATOM     23  C   UNL     1     -12.139  52.626  47.335  0.00  0.00    +0.000 C 
ATOM     24  C   UNL     1     -11.403  53.514  45.172  0.00  0.00    +0.000 C 
ATOM     25  C   UNL     1      -9.849  52.066  46.499  0.00  0.00    +0.000 C 
ENDBRANCH   7  22
BRANCH   5  26
ATOM     26  C   UNL     1      -8.771  53.433  49.158  0.00  0.00    +0.000 C 
BRANCH  26  27
ATOM     27  C   UNL     1      -9.090  52.459  50.268  0.00  0.00    +0.000 A 
ATOM     28  N   UNL     1      -8.322  52.490  51.386  0.00  0.00    +0.000 NA
ATOM     29  C   UNL     1     -10.192  51.613  50.145  0.00  0.00    +0.000 A 
ATOM     30  C   UNL     1      -8.650  51.653  52.391  0.00  0.00    +0.000 A 
ATOM     31  C   UNL     1     -10.514  50.769  51.202  0.00  0.00    +0.000 A 
ATOM     32  C   UNL     1      -9.729  50.791  52.350  0.00  0.00    +0.000 A 
ENDBRANCH  26  27
ENDBRANCH   5  26
TORSDOF 4
ENDMDL
MODEL 6
REMARK VINA RESULT:      -7.6      3.037      7.903
REMARK  Name = 
REMARK  7 active torsions:
REMARK  status: ('A' for Active; 'I' for Inactive)
REMARK    1  A    between atoms: C_6  and  C_10
REMARK    2  A    between atoms: N_17  and  C_20
REMARK    3  A    between atoms: C_19  and  C_21
REMARK    4  A    between atoms: C_20  and  C_22
REMARK    5  A    between atoms: C_21  and  C_23
REMARK    6  A    between atoms: C_21  and  C_24
REMARK    7  A    between atoms: C_21  and  C_25
REMARK                            x       y       z     vdW  Elec       q    Type
REMARK                         _______ _______ _______ _____ _____    ______ ____
ROOT
ATOM      1  C   UNL     1     -10.109  54.650  48.709  0.00  0.00    +0.000 C 
ATOM      2  C   UNL     1     -11.506  54.636  49.152  0.00  0.00    +0.000 C 
ATOM      3  C   UNL     1      -9.405  55.159  49.727  0.00  0.00    +0.000 C 
ATOM      4  O   UNL     1     -12.436  54.319  48.424  0.00  0.00    +0.000 OA
ATOM      5  N   UNL     1     -11.542  55.007  50.477  0.00  0.00    +0.000 N 
ATOM      6  O   UNL     1      -8.052  55.397  49.705  0.00  0.00    +0.000 OA
ATOM      7  C   UNL     1     -10.229  55.446  50.977  0.00  0.00    +0.000 C 
ENDROOT
BRANCH   1  13
ATOM      8  S   UNL     1      -7.861  54.120  45.578  0.00  0.00    +0.000 S 
ATOM      9  O   UNL     1      -6.782  53.212  45.942  0.00  0.00    +0.000 OA
ATOM     10  O   UNL     1      -7.593  55.261  44.718  0.00  0.00    +0.000 OA
ATOM     11  N   UNL     1      -8.528  54.674  46.947  0.00  0.00    +0.000 N 
ATOM     12  C   UNL     1      -9.054  53.141  44.745  0.00  0.00    +0.000 A 
ATOM     13  C   UNL     1      -9.639  54.161  47.386  0.00  0.00    +0.000 C 
ATOM     14  C   UNL     1     -10.197  52.784  45.442  0.00  0.00    +0.000 A 
ATOM     15  C   UNL     1      -8.841  52.750  43.419  0.00  0.00    +0.000 A 
ATOM     16  N   UNL     1     -10.396  53.205  46.753  0.00  0.00    +0.000 N 
ATOM     17  C   UNL     1     -11.162  52.014  44.786  0.00  0.00    +0.000 A 
ATOM     18  C   UNL     1      -9.810  51.984  42.776  0.00  0.00    +0.000 A 
ATOM     19  C   UNL     1     -10.970  51.617  43.459  0.00  0.00    +0.000 A 
ATOM     20  H   UNL     1      -8.090  55.401  47.448  0.00  0.00    +0.000 HD
ATOM     21  H   UNL     1     -11.130  52.790  47.263  0.00  0.00    +0.000 HD
ENDBRANCH   1  13
BRANCH   7  22
ATOM     22  C   UNL     1      -9.707  54.744  52.287  0.00  0.00    +0.000 C 
ATOM     23  C   UNL     1      -8.345  55.329  52.741  0.00  0.00    +0.000 C 
ATOM     24  C   UNL     1     -10.656  54.981  53.482  0.00  0.00    +0.000 C 
ATOM     25  C   UNL     1      -9.533  53.227  52.090  0.00  0.00    +0.000 C 
ENDBRANCH   7  22
BRANCH   5  26
ATOM     26  C   UNL     1     -12.825  55.149  51.155  0.00  0.00    +0.000 C 
BRANCH  26  27
ATOM     27  C   UNL     1     -13.349  56.558  51.306  0.00  0.00    +0.000 A 
ATOM     28  N   UNL     1     -13.483  57.313  50.187  0.00  0.00    +0.000 NA
ATOM     29  C   UNL     1     -13.739  57.016  52.565  0.00  0.00    +0.000 A 
ATOM     30  C   UNL     1     -14.002  58.549  50.328  0.00  0.00    +0.000 A 
ATOM     31  C   UNL     1     -14.282  58.291  52.678  0.00  0.00    +0.000 A 
ATOM     32  C   UNL     1     -14.420  59.073  51.536  0.00  0.00    +0.000 A 
ENDBRANCH  26  27
ENDBRANCH   5  26
TORSDOF 4
ENDMDL
MODEL 7
REMARK VINA RESULT:      -7.5      3.525      7.576
REMARK  Name = 
REMARK  7 active torsions:
REMARK  status: ('A' for Active; 'I' for Inactive)
REMARK    1  A    between atoms: C_6  and  C_10
REMARK    2  A    between atoms: N_17  and  C_20
REMARK    3  A    between atoms: C_19  and  C_21
REMARK    4  A    between atoms: C_20  and  C_22
REMARK    5  A    between atoms: C_21  and  C_23
REMARK    6  A    between atoms: C_21  and  C_24
REMARK    7  A    between atoms: C_21  and  C_25
REMARK                            x       y       z     vdW  Elec       q    Type
REMARK                         _______ _______ _______ _____ _____    ______ ____
ROOT
ATOM      1  C   UNL     1     -10.391  53.808  50.439  0.00  0.00    +0.000 C 
ATOM      2  C   UNL     1     -10.976  55.121  50.721  0.00  0.00    +0.000 C 
ATOM      3  C   UNL     1     -10.903  53.420  49.265  0.00  0.00    +0.000 C 
ATOM      4  O   UNL     1     -10.796  55.724  51.769  0.00  0.00    +0.000 OA
ATOM      5  N   UNL     1     -11.703  55.515  49.620  0.00  0.00    +0.000 N 
ATOM      6  O   UNL     1     -10.655  52.212  48.660  0.00  0.00    +0.000 OA
ATOM      7  C   UNL     1     -11.798  54.458  48.599  0.00  0.00    +0.000 C 
ENDROOT
BRANCH   1  13
ATOM      8  S   UNL     1      -8.374  50.957  52.157  0.00  0.00    +0.000 S 
ATOM      9  O   UNL     1      -7.392  50.459  51.205  0.00  0.00    +0.000 OA
ATOM     10  O   UNL     1      -9.088  50.030  53.020  0.00  0.00    +0.000 OA
ATOM     11  N   UNL     1      -9.475  51.816  51.332  0.00  0.00    +0.000 N 
ATOM     12  C   UNL     1      -7.507  52.053  53.216  0.00  0.00    +0.000 A 
ATOM     13  C   UNL     1      -9.413  53.114  51.318  0.00  0.00    +0.000 C 
ATOM     14  C   UNL     1      -7.677  53.415  53.016  0.00  0.00    +0.000 A 
ATOM     15  C   UNL     1      -6.681  51.549  54.225  0.00  0.00    +0.000 A 
ATOM     16  N   UNL     1      -8.522  53.891  52.019  0.00  0.00    +0.000 N 
ATOM     17  C   UNL     1      -7.000  54.299  53.861  0.00  0.00    +0.000 A 
ATOM     18  C   UNL     1      -6.013  52.441  55.061  0.00  0.00    +0.000 A 
ATOM     19  C   UNL     1      -6.174  53.815  54.879  0.00  0.00    +0.000 A 
ATOM     20  H   UNL     1     -10.192  51.352  50.841  0.00  0.00    +0.000 HD
ATOM     21  H   UNL     1      -8.481  54.851  51.801  0.00  0.00    +0.000 HD
ENDBRANCH   1  13
BRANCH   7  22
ATOM     22  C   UNL     1     -11.371  54.857  47.136  0.00  0.00    +0.000 C 
ATOM     23  C   UNL     1     -11.605  53.693  46.139  0.00  0.00    +0.000 C 
ATOM     24  C   UNL     1     -12.222  56.023  46.587  0.00  0.00    +0.000 C 
ATOM     25  C   UNL     1      -9.886  55.255  47.065  0.00  0.00    +0.000 C 
ENDBRANCH   7  22
BRANCH   5  26
ATOM     26  C   UNL     1     -12.458  56.761  49.658  0.00  0.00    +0.000 C 
BRANCH  26  27
ATOM     27  C   UNL     1     -13.726  56.751  50.479  0.00  0.00    +0.000 A 
ATOM     28  N   UNL     1     -13.658  57.182  51.764  0.00  0.00    +0.000 NA
ATOM     29  C   UNL     1     -14.929  56.369  49.884  0.00  0.00    +0.000 A 
ATOM     30  C   UNL     1     -14.806  57.218  52.470  0.00  0.00    +0.000 A 
ATOM     31  C   UNL     1     -16.098  56.428  50.633  0.00  0.00    +0.000 A 
ATOM     32  C   UNL     1     -16.037  56.865  51.952  0.00  0.00    +0.000 A 
ENDBRANCH  26  27
ENDBRANCH   5  26
TORSDOF 4
ENDMDL
MODEL 8
REMARK VINA RESULT:      -7.4      2.377      3.241
REMARK  Name = 
REMARK  7 active torsions:
REMARK  status: ('A' for Active; 'I' for Inactive)
REMARK    1  A    between atoms: C_6  and  C_10
REMARK    2  A    between atoms: N_17  and  C_20
REMARK    3  A    between atoms: C_19  and  C_21
REMARK    4  A    between atoms: C_20  and  C_22
REMARK    5  A    between atoms: C_21  and  C_23
REMARK    6  A    between atoms: C_21  and  C_24
REMARK    7  A    between atoms: C_21  and  C_25
REMARK                            x       y       z     vdW  Elec       q    Type
REMARK                         _______ _______ _______ _____ _____    ______ ____
ROOT
ATOM      1  C   UNL     1     -10.166  55.009  47.796  0.00  0.00    +0.000 C 
ATOM      2  C   UNL     1      -8.706  54.878  47.820  0.00  0.00    +0.000 C 
ATOM      3  C   UNL     1     -10.542  54.724  46.544  0.00  0.00    +0.000 C 
ATOM      4  O   UNL     1      -8.024  55.165  48.792  0.00  0.00    +0.000 OA
ATOM      5  N   UNL     1      -8.299  54.376  46.604  0.00  0.00    +0.000 N 
ATOM      6  O   UNL     1     -11.833  54.783  46.077  0.00  0.00    +0.000 OA
ATOM      7  C   UNL     1      -9.402  54.284  45.633  0.00  0.00    +0.000 C 
ENDROOT
BRANCH   1  13
ATOM      8  S   UNL     1     -11.720  54.921  51.362  0.00  0.00    +0.000 S 
ATOM      9  O   UNL     1     -10.735  55.441  52.300  0.00  0.00    +0.000 OA
ATOM     10  O   UNL     1     -12.542  53.779  51.729  0.00  0.00    +0.000 OA
ATOM     11  N   UNL     1     -10.949  54.556  49.983  0.00  0.00    +0.000 N 
ATOM     12  C   UNL     1     -12.824  56.244  51.039  0.00  0.00    +0.000 A 
ATOM     13  C   UNL     1     -10.999  55.371  48.972  0.00  0.00    +0.000 C 
ATOM     14  C   UNL     1     -12.694  56.913  49.832  0.00  0.00    +0.000 A 
ATOM     15  C   UNL     1     -13.799  56.592  51.979  0.00  0.00    +0.000 A 
ATOM     16  N   UNL     1     -11.730  56.533  48.903  0.00  0.00    +0.000 N 
ATOM     17  C   UNL     1     -13.576  57.962  49.556  0.00  0.00    +0.000 A 
ATOM     18  C   UNL     1     -14.672  57.638  51.692  0.00  0.00    +0.000 A 
ATOM     19  C   UNL     1     -14.560  58.323  50.481  0.00  0.00    +0.000 A 
ATOM     20  H   UNL     1     -10.442  53.714  49.912  0.00  0.00    +0.000 HD
ATOM     21  H   UNL     1     -11.560  57.137  48.144  0.00  0.00    +0.000 HD
ENDBRANCH   1  13
BRANCH   7  22
ATOM     22  C   UNL     1      -9.611  52.884  44.941  0.00  0.00    +0.000 C 
ATOM     23  C   UNL     1     -10.814  52.908  43.963  0.00  0.00    +0.000 C 
ATOM     24  C   UNL     1      -8.401  52.488  44.069  0.00  0.00    +0.000 C 
ATOM     25  C   UNL     1      -9.859  51.771  45.975  0.00  0.00    +0.000 C 
ENDBRANCH   7  22
BRANCH   5  26
ATOM     26  C   UNL     1      -6.877  54.215  46.327  0.00  0.00    +0.000 C 
BRANCH  26  27
ATOM     27  C   UNL     1      -6.151  53.168  47.139  0.00  0.00    +0.000 A 
ATOM     28  N   UNL     1      -6.639  51.902  47.131  0.00  0.00    +0.000 NA
ATOM     29  C   UNL     1      -4.977  53.510  47.810  0.00  0.00    +0.000 A 
ATOM     30  C   UNL     1      -5.953  50.966  47.816  0.00  0.00    +0.000 A 
ATOM     31  C   UNL     1      -4.284  52.521  48.498  0.00  0.00    +0.000 A 
ATOM     32  C   UNL     1      -4.780  51.221  48.500  0.00  0.00    +0.000 A 
ENDBRANCH  26  27
ENDBRANCH   5  26
TORSDOF 4
ENDMDL
MODEL 9
REMARK VINA RESULT:      -7.3      4.017      6.993
REMARK  Name = 
REMARK  7 active torsions:
REMARK  status: ('A' for Active; 'I' for Inactive)
REMARK    1  A    between atoms: C_6  and  C_10
REMARK    2  A    between atoms: N_17  and  C_20
REMARK    3  A    between atoms: C_19  and  C_21
REMARK    4  A    between atoms: C_20  and  C_22
REMARK    5  A    between atoms: C_21  and  C_23
REMARK    6  A    between atoms: C_21  and  C_24
REMARK    7  A    between atoms: C_21  and  C_25
REMARK                            x       y       z     vdW  Elec       q    Type
REMARK                         _______ _______ _______ _____ _____    ______ ____
ROOT
ATOM      1  C   UNL     1      -9.302  54.612  51.322  0.00  0.00    +0.000 C 
ATOM      2  C   UNL     1      -8.855  54.671  49.928  0.00  0.00    +0.000 C 
ATOM      3  C   UNL     1     -10.463  55.275  51.365  0.00  0.00    +0.000 C 
ATOM      4  O   UNL     1      -7.772  54.244  49.553  0.00  0.00    +0.000 OA
ATOM      5  N   UNL     1      -9.855  55.247  49.178  0.00  0.00    +0.000 N 
ATOM      6  O   UNL     1     -11.195  55.505  52.505  0.00  0.00    +0.000 OA
ATOM      7  C   UNL     1     -10.960  55.758  50.007  0.00  0.00    +0.000 C 
ENDROOT
BRANCH   1  13
ATOM      8  S   UNL     1      -6.443  53.597  53.759  0.00  0.00    +0.000 S 
ATOM      9  O   UNL     1      -6.309  54.643  54.762  0.00  0.00    +0.000 OA
ATOM     10  O   UNL     1      -5.257  52.962  53.206  0.00  0.00    +0.000 OA
ATOM     11  N   UNL     1      -7.305  54.199  52.525  0.00  0.00    +0.000 N 
ATOM     12  C   UNL     1      -7.382  52.322  54.512  0.00  0.00    +0.000 A 
ATOM     13  C   UNL     1      -8.569  53.919  52.414  0.00  0.00    +0.000 C 
ATOM     14  C   UNL     1      -8.717  52.208  54.157  0.00  0.00    +0.000 A 
ATOM     15  C   UNL     1      -6.783  51.458  55.434  0.00  0.00    +0.000 A 
ATOM     16  N   UNL     1      -9.284  53.066  53.220  0.00  0.00    +0.000 N 
ATOM     17  C   UNL     1      -9.474  51.188  54.741  0.00  0.00    +0.000 A 
ATOM     18  C   UNL     1      -7.548  50.446  56.008  0.00  0.00    +0.000 A 
ATOM     19  C   UNL     1      -8.893  50.311  55.662  0.00  0.00    +0.000 A 
ATOM     20  H   UNL     1      -6.869  54.779  51.858  0.00  0.00    +0.000 HD
ATOM     21  H   UNL     1     -10.265  53.061  53.127  0.00  0.00    +0.000 HD
ENDBRANCH   1  13
BRANCH   7  22
ATOM     22  C   UNL     1     -12.408  55.272  49.622  0.00  0.00    +0.000 C 
ATOM     23  C   UNL     1     -12.418  53.772  49.230  0.00  0.00    +0.000 C 
ATOM     24  C   UNL     1     -13.384  55.375  50.813  0.00  0.00    +0.000 C 
ATOM     25  C   UNL     1     -12.983  56.077  48.442  0.00  0.00    +0.000 C 
ENDBRANCH   7  22
BRANCH   5  26
ATOM     26  C   UNL     1      -9.644  55.497  47.757  0.00  0.00    +0.000 C 
BRANCH  26  27
ATOM     27  C   UNL     1     -10.089  54.406  46.813  0.00  0.00    +0.000 A 
ATOM     28  N   UNL     1      -9.520  53.181  46.938  0.00  0.00    +0.000 NA
ATOM     29  C   UNL     1     -11.108  54.663  45.895  0.00  0.00    +0.000 A 
ATOM     30  C   UNL     1      -9.964  52.201  46.125  0.00  0.00    +0.000 A 
ATOM     31  C   UNL     1     -11.554  53.630  45.078  0.00  0.00    +0.000 A 
ATOM     32  C   UNL     1     -10.972  52.373  45.197  0.00  0.00    +0.000 A 
ENDBRANCH  26  27
ENDBRANCH   5  26
TORSDOF 4
ENDMDL
