MODEL 1
REMARK VINA RESULT:      -8.4      0.000      0.000
REMARK  Name = 
REMARK  7 active torsions:
REMARK  status: ('A' for Active; 'I' for Inactive)
REMARK    1  A    between atoms: C_6  and  C_10
REMARK    2  A    between atoms: N_17  and  C_20
REMARK    3  A    between atoms: C_19  and  C_21
REMARK    4  A    between atoms: C_20  and  C_22
REMARK    5  A    between atoms: C_21  and  C_23
REMARK    6  A    between atoms: C_21  and  C_24
REMARK    7  A    between atoms: C_21  and  C_25
REMARK                            x       y       z     vdW  Elec       q    Type
REMARK                         _______ _______ _______ _____ _____    ______ ____
ROOT
ATOM      1  C   UNL     1     -12.211  54.478  50.197  0.00  0.00    +0.000 C 
ATOM      2  C   UNL     1     -11.973  54.084  48.808  0.00  0.00    +0.000 C 
ATOM      3  C   UNL     1     -11.621  53.540  50.948  0.00  0.00    +0.000 C 
ATOM      4  O   UNL     1     -12.508  54.633  47.857  0.00  0.00    +0.000 OA
ATOM      5  N   UNL     1     -11.087  53.024  48.797  0.00  0.00    +0.000 N 
ATOM      6  O   UNL     1     -11.653  53.503  52.321  0.00  0.00    +0.000 OA
ATOM      7  C   UNL     1     -10.841  52.494  50.153  0.00  0.00    +0.000 C 
ENDROOT
BRANCH   1  13
ATOM      8  S   UNL     1     -14.414  56.904  52.298  0.00  0.00    +0.000 S 
ATOM      9  O   UNL     1     -13.602  57.403  53.397  0.00  0.00    +0.000 OA
ATOM     10  O   UNL     1     -15.806  56.571  52.518  0.00  0.00    +0.000 OA
ATOM     11  N   UNL     1     -13.680  55.595  51.687  0.00  0.00    +0.000 N 
ATOM     12  C   UNL     1     -14.395  58.167  51.074  0.00  0.00    +0.000 A 
ATOM     13  C   UNL     1     -12.955  55.699  50.611  0.00  0.00    +0.000 C 
ATOM     14  C   UNL     1     -13.568  57.980  49.978  0.00  0.00    +0.000 A 
ATOM     15  C   UNL     1     -15.197  59.301  51.216  0.00  0.00    +0.000 A 
ATOM     16  N   UNL     1     -12.801  56.827  49.843  0.00  0.00    +0.000 N 
ATOM     17  C   UNL     1     -13.548  58.967  48.988  0.00  0.00    +0.000 A 
ATOM     18  C   UNL     1     -15.168  60.276  50.222  0.00  0.00    +0.000 A 
ATOM     19  C   UNL     1     -14.348  60.108  49.108  0.00  0.00    +0.000 A 
ATOM     20  H   UNL     1     -13.782  54.722  52.130  0.00  0.00    +0.000 HD
ATOM     21  H   UNL     1     -12.101  56.821  49.151  0.00  0.00    +0.000 HD
ENDBRANCH   1  13
BRANCH   7  22
ATOM     22  C   UNL     1      -9.328  52.347  50.579  0.00  0.00    +0.000 C 
ATOM     23  C   UNL     1      -9.177  51.669  51.966  0.00  0.00    +0.000 C 
ATOM     24  C   UNL     1      -8.544  51.428  49.619  0.00  0.00    +0.000 C 
ATOM     25  C   UNL     1      -8.627  53.717  50.644  0.00  0.00    +0.000 C 
ENDBRANCH   7  22
BRANCH   5  26
ATOM     26  C   UNL     1     -10.763  52.377  47.533  0.00  0.00    +0.000 C 
BRANCH  26  27
ATOM     27  C   UNL     1      -9.829  53.169  46.656  0.00  0.00    +0.000 A 
ATOM     28  C   UNL     1      -9.086  54.226  47.202  0.00  0.00    +0.000 A 
ATOM     29  C   UNL     1      -9.654  52.837  45.303  0.00  0.00    +0.000 A 
ATOM     30  C   UNL     1      -8.214  54.964  46.405  0.00  0.00    +0.000 A 
ATOM     31  C   UNL     1      -8.776  53.576  44.506  0.00  0.00    +0.000 A 
ATOM     32  C   UNL     1      -8.073  54.637  45.062  0.00  0.00    +0.000 A 
ATOM     33  F   UNL     1      -7.240  55.353  44.294  0.00  0.00    +0.000 F 
ENDBRANCH  26  27
ENDBRANCH   5  26
TORSDOF 4
ENDMDL
MODEL 2
REMARK VINA RESULT:      -8.2      2.111      2.779
REMARK  Name = 
REMARK  7 active torsions:
REMARK  status: ('A' for Active; 'I' for Inactive)
REMARK    1  A    between atoms: C_6  and  C_10
REMARK    2  A    between atoms: N_17  and  C_20
REMARK    3  A    between atoms: C_19  and  C_21
REMARK    4  A    between atoms: C_20  and  C_22
REMARK    5  A    between atoms: C_21  and  C_23
REMARK    6  A    between atoms: C_21  and  C_24
REMARK    7  A    between atoms: C_21  and  C_25
REMARK                            x       y       z     vdW  Elec       q    Type
REMARK                         _______ _______ _______ _____ _____    ______ ____
ROOT
ATOM      1  C   UNL     1     -11.130  54.719  49.802  0.00  0.00    +0.000 C 
ATOM      2  C   UNL     1     -11.177  53.636  48.817  0.00  0.00    +0.000 C 
ATOM      3  C   UNL     1      -9.950  54.597  50.422  0.00  0.00    +0.000 C 
ATOM      4  O   UNL     1     -12.180  53.353  48.182  0.00  0.00    +0.000 OA
ATOM      5  N   UNL     1      -9.934  53.034  48.769  0.00  0.00    +0.000 N 
ATOM      6  O   UNL     1      -9.528  55.390  51.461  0.00  0.00    +0.000 OA
ATOM      7  C   UNL     1      -9.047  53.507  49.850  0.00  0.00    +0.000 C 
ENDROOT
BRANCH   1  13
ATOM      8  S   UNL     1     -13.916  57.326  49.028  0.00  0.00    +0.000 S 
ATOM      9  O   UNL     1     -15.094  56.599  48.587  0.00  0.00    +0.000 OA
ATOM     10  O   UNL     1     -13.548  58.571  48.386  0.00  0.00    +0.000 OA
ATOM     11  N   UNL     1     -12.645  56.325  48.935  0.00  0.00    +0.000 N 
ATOM     12  C   UNL     1     -14.191  57.708  50.723  0.00  0.00    +0.000 A 
ATOM     13  C   UNL     1     -12.212  55.721  50.003  0.00  0.00    +0.000 C 
ATOM     14  C   UNL     1     -13.535  56.932  51.666  0.00  0.00    +0.000 A 
ATOM     15  C   UNL     1     -15.034  58.760  51.082  0.00  0.00    +0.000 A 
ATOM     16  N   UNL     1     -12.675  55.908  51.283  0.00  0.00    +0.000 N 
ATOM     17  C   UNL     1     -13.732  57.227  53.018  0.00  0.00    +0.000 A 
ATOM     18  C   UNL     1     -15.221  59.043  52.433  0.00  0.00    +0.000 A 
ATOM     19  C   UNL     1     -14.568  58.281  53.400  0.00  0.00    +0.000 A 
ATOM     20  H   UNL     1     -12.201  56.173  48.069  0.00  0.00    +0.000 HD
ATOM     21  H   UNL     1     -12.378  55.275  51.976  0.00  0.00    +0.000 HD
ENDBRANCH   1  13
BRANCH   7  22
ATOM     22  C   UNL     1      -7.617  54.011  49.407  0.00  0.00    +0.000 C 
ATOM     23  C   UNL     1      -6.763  54.474  50.616  0.00  0.00    +0.000 C 
ATOM     24  C   UNL     1      -6.783  52.886  48.760  0.00  0.00    +0.000 C 
ATOM     25  C   UNL     1      -7.719  55.189  48.420  0.00  0.00    +0.000 C 
ENDBRANCH   7  22
BRANCH   5  26
ATOM     26  C   UNL     1      -9.745  51.855  47.935  0.00  0.00    +0.000 C 
BRANCH  26  27
ATOM     27  C   UNL     1      -9.849  52.122  46.456  0.00  0.00    +0.000 A 
ATOM     28  C   UNL     1      -9.006  53.070  45.857  0.00  0.00    +0.000 A 
ATOM     29  C   UNL     1     -10.748  51.403  45.654  0.00  0.00    +0.000 A 
ATOM     30  C   UNL     1      -9.086  53.325  44.490  0.00  0.00    +0.000 A 
ATOM     31  C   UNL     1     -10.825  51.657  44.282  0.00  0.00    +0.000 A 
ATOM     32  C   UNL     1     -10.001  52.621  43.716  0.00  0.00    +0.000 A 
ATOM     33  F   UNL     1     -10.082  52.872  42.402  0.00  0.00    +0.000 F 
ENDBRANCH  26  27
ENDBRANCH   5  26
TORSDOF 4
ENDMDL
MODEL 3
REMARK VINA RESULT:      -8.1      2.501      4.013
REMARK  Name = 
REMARK  7 active torsions:
REMARK  status: ('A' for Active; 'I' for Inactive)
REMARK    1  A    between atoms: C_6  and  C_10
REMARK    2  A    between atoms: N_17  and  C_20
REMARK    3  A    between atoms: C_19  and  C_21
REMARK    4  A    between atoms: C_20  and  C_22
REMARK    5  A    between atoms: C_21  and  C_23
REMARK    6  A    between atoms: C_21  and  C_24
REMARK    7  A    between atoms: C_21  and  C_25
REMARK                            x       y       z     vdW  Elec       q    Type
REMARK                         _______ _______ _______ _____ _____    ______ ____
ROOT
ATOM      1  C   UNL     1     -11.578  55.711  48.922  0.00  0.00    +0.000 C 
ATOM      2  C   UNL     1     -10.713  54.826  49.704  0.00  0.00    +0.000 C 
ATOM      3  C   UNL     1     -11.381  55.375  47.641  0.00  0.00    +0.000 C 
ATOM      4  O   UNL     1     -10.524  54.965  50.902  0.00  0.00    +0.000 OA
ATOM      5  N   UNL     1     -10.181  53.872  48.858  0.00  0.00    +0.000 N 
ATOM      6  O   UNL     1     -11.966  56.003  46.569  0.00  0.00    +0.000 OA
ATOM      7  C   UNL     1     -10.463  54.171  47.439  0.00  0.00    +0.000 C 
ENDROOT
BRANCH   1  13
ATOM      8  S   UNL     1     -13.502  59.060  49.412  0.00  0.00    +0.000 S 
ATOM      9  O   UNL     1     -14.603  59.082  48.464  0.00  0.00    +0.000 OA
ATOM     10  O   UNL     1     -12.746  60.266  49.675  0.00  0.00    +0.000 OA
ATOM     11  N   UNL     1     -12.457  57.913  48.940  0.00  0.00    +0.000 N 
ATOM     12  C   UNL     1     -14.199  58.568  50.950  0.00  0.00    +0.000 A 
ATOM     13  C   UNL     1     -12.477  56.742  49.507  0.00  0.00    +0.000 C 
ATOM     14  C   UNL     1     -14.002  57.256  51.349  0.00  0.00    +0.000 A 
ATOM     15  C   UNL     1     -14.913  59.482  51.726  0.00  0.00    +0.000 A 
ATOM     16  N   UNL     1     -13.260  56.371  50.573  0.00  0.00    +0.000 N 
ATOM     17  C   UNL     1     -14.539  56.849  52.574  0.00  0.00    +0.000 A 
ATOM     18  C   UNL     1     -15.442  59.063  52.945  0.00  0.00    +0.000 A 
ATOM     19  C   UNL     1     -15.252  57.750  53.370  0.00  0.00    +0.000 A 
ATOM     20  H   UNL     1     -11.809  58.104  48.225  0.00  0.00    +0.000 HD
ATOM     21  H   UNL     1     -13.301  55.415  50.803  0.00  0.00    +0.000 HD
ENDBRANCH   1  13
BRANCH   7  22
ATOM     22  C   UNL     1     -11.100  52.999  46.594  0.00  0.00    +0.000 C 
ATOM     23  C   UNL     1     -11.560  53.476  45.192  0.00  0.00    +0.000 C 
ATOM     24  C   UNL     1     -10.081  51.878  46.300  0.00  0.00    +0.000 C 
ATOM     25  C   UNL     1     -12.320  52.390  47.311  0.00  0.00    +0.000 C 
ENDBRANCH   7  22
BRANCH   5  26
ATOM     26  C   UNL     1      -9.201  52.927  49.374  0.00  0.00    +0.000 C 
BRANCH  26  27
ATOM     27  C   UNL     1      -7.769  53.331  49.138  0.00  0.00    +0.000 A 
ATOM     28  C   UNL     1      -7.014  52.683  48.149  0.00  0.00    +0.000 A 
ATOM     29  C   UNL     1      -7.186  54.382  49.864  0.00  0.00    +0.000 A 
ATOM     30  C   UNL     1      -5.691  53.049  47.915  0.00  0.00    +0.000 A 
ATOM     31  C   UNL     1      -5.859  54.750  49.625  0.00  0.00    +0.000 A 
ATOM     32  C   UNL     1      -5.123  54.074  48.661  0.00  0.00    +0.000 A 
ATOM     33  F   UNL     1      -3.847  54.420  48.440  0.00  0.00    +0.000 F 
ENDBRANCH  26  27
ENDBRANCH   5  26
TORSDOF 4
ENDMDL
MODEL 4
REMARK VINA RESULT:      -8.0      2.594      3.508
REMARK  Name = 
REMARK  7 active torsions:
REMARK  status: ('A' for Active; 'I' for Inactive)
REMARK    1  A    between atoms: C_6  and  C_10
REMARK    2  A    between atoms: N_17  and  C_20
REMARK    3  A    between atoms: C_19  and  C_21
REMARK    4  A    between atoms: C_20  and  C_22
REMARK    5  A    between atoms: C_21  and  C_23
REMARK    6  A    between atoms: C_21  and  C_24
REMARK    7  A    between atoms: C_21  and  C_25
REMARK                            x       y       z     vdW  Elec       q    Type
REMARK                         _______ _______ _______ _____ _____    ______ ____
ROOT
ATOM      1  C   UNL     1     -11.262  55.896  49.087  0.00  0.00    +0.000 C 
ATOM      2  C   UNL     1     -11.017  55.659  47.663  0.00  0.00    +0.000 C 
ATOM      3  C   UNL     1     -10.420  55.088  49.742  0.00  0.00    +0.000 C 
ATOM      4  O   UNL     1     -11.724  56.116  46.779  0.00  0.00    +0.000 OA
ATOM      5  N   UNL     1      -9.902  54.854  47.538  0.00  0.00    +0.000 N 
ATOM      6  O   UNL     1     -10.362  54.961  51.108  0.00  0.00    +0.000 OA
ATOM      7  C   UNL     1      -9.456  54.319  48.841  0.00  0.00    +0.000 C 
ENDROOT
BRANCH   1  13
ATOM      8  S   UNL     1     -13.468  59.086  49.426  0.00  0.00    +0.000 S 
ATOM      9  O   UNL     1     -14.547  58.985  48.457  0.00  0.00    +0.000 OA
ATOM     10  O   UNL     1     -12.822  60.360  49.662  0.00  0.00    +0.000 OA
ATOM     11  N   UNL     1     -12.322  58.017  49.014  0.00  0.00    +0.000 N 
ATOM     12  C   UNL     1     -14.155  58.588  50.966  0.00  0.00    +0.000 A 
ATOM     13  C   UNL     1     -12.257  56.867  49.620  0.00  0.00    +0.000 C 
ATOM     14  C   UNL     1     -13.858  57.311  51.414  0.00  0.00    +0.000 A 
ATOM     15  C   UNL     1     -14.960  59.464  51.698  0.00  0.00    +0.000 A 
ATOM     16  N   UNL     1     -13.029  56.467  50.683  0.00  0.00    +0.000 N 
ATOM     17  C   UNL     1     -14.386  56.900  52.642  0.00  0.00    +0.000 A 
ATOM     18  C   UNL     1     -15.478  59.042  52.919  0.00  0.00    +0.000 A 
ATOM     19  C   UNL     1     -15.189  57.764  53.393  0.00  0.00    +0.000 A 
ATOM     20  H   UNL     1     -11.677  58.237  48.304  0.00  0.00    +0.000 HD
ATOM     21  H   UNL     1     -12.995  55.518  50.945  0.00  0.00    +0.000 HD
ENDBRANCH   1  13
BRANCH   7  22
ATOM     22  C   UNL     1      -7.930  54.524  49.192  0.00  0.00    +0.000 C 
ATOM     23  C   UNL     1      -7.018  54.344  47.950  0.00  0.00    +0.000 C 
ATOM     24  C   UNL     1      -7.636  55.959  49.676  0.00  0.00    +0.000 C 
ATOM     25  C   UNL     1      -7.464  53.527  50.270  0.00  0.00    +0.000 C 
ENDBRANCH   7  22
BRANCH   5  26
ATOM     26  C   UNL     1      -9.504  54.385  46.218  0.00  0.00    +0.000 C 
BRANCH  26  27
ATOM     27  C   UNL     1     -10.045  53.026  45.857  0.00  0.00    +0.000 A 
ATOM     28  C   UNL     1     -11.301  52.916  45.243  0.00  0.00    +0.000 A 
ATOM     29  C   UNL     1      -9.290  51.865  46.083  0.00  0.00    +0.000 A 
ATOM     30  C   UNL     1     -11.813  51.667  44.898  0.00  0.00    +0.000 A 
ATOM     31  C   UNL     1      -9.803  50.614  45.733  0.00  0.00    +0.000 A 
ATOM     32  C   UNL     1     -11.062  50.527  45.153  0.00  0.00    +0.000 A 
ATOM     33  F   UNL     1     -11.559  49.325  44.828  0.00  0.00    +0.000 F 
ENDBRANCH  26  27
ENDBRANCH   5  26
TORSDOF 4
ENDMDL
MODEL 5
REMARK VINA RESULT:      -7.9      3.686      7.598
REMARK  Name = 
REMARK  7 active torsions:
REMARK  status: ('A' for Active; 'I' for Inactive)
REMARK    1  A    between atoms: C_6  and  C_10
REMARK    2  A    between atoms: N_17  and  C_20
REMARK    3  A    between atoms: C_19  and  C_21
REMARK    4  A    between atoms: C_20  and  C_22
REMARK    5  A    between atoms: C_21  and  C_23
REMARK    6  A    between atoms: C_21  and  C_24
REMARK    7  A    between atoms: C_21  and  C_25
REMARK                            x       y       z     vdW  Elec       q    Type
REMARK                         _______ _______ _______ _____ _____    ______ ____
ROOT
ATOM      1  C   UNL     1     -10.114  54.550  48.695  0.00  0.00    +0.000 C 
ATOM      2  C   UNL     1     -11.481  54.366  49.186  0.00  0.00    +0.000 C 
ATOM      3  C   UNL     1      -9.452  55.166  49.682  0.00  0.00    +0.000 C 
ATOM      4  O   UNL     1     -12.397  53.977  48.479  0.00  0.00    +0.000 OA
ATOM      5  N   UNL     1     -11.518  54.714  50.522  0.00  0.00    +0.000 N 
ATOM      6  O   UNL     1      -8.143  55.573  49.610  0.00  0.00    +0.000 OA
ATOM      7  C   UNL     1     -10.263  55.355  50.963  0.00  0.00    +0.000 C 
ENDROOT
BRANCH   1  13
ATOM      8  S   UNL     1      -7.871  54.165  45.537  0.00  0.00    +0.000 S 
ATOM      9  O   UNL     1      -6.755  53.302  45.887  0.00  0.00    +0.000 OA
ATOM     10  O   UNL     1      -7.657  55.319  44.688  0.00  0.00    +0.000 OA
ATOM     11  N   UNL     1      -8.556  54.681  46.912  0.00  0.00    +0.000 N 
ATOM     12  C   UNL     1      -9.028  53.142  44.697  0.00  0.00    +0.000 A 
ATOM     13  C   UNL     1      -9.631  54.102  47.360  0.00  0.00    +0.000 C 
ATOM     14  C   UNL     1     -10.140  52.719  45.409  0.00  0.00    +0.000 A 
ATOM     15  C   UNL     1      -8.820  52.787  43.363  0.00  0.00    +0.000 A 
ATOM     16  N   UNL     1     -10.341  53.110  46.728  0.00  0.00    +0.000 N 
ATOM     17  C   UNL     1     -11.077  51.914  44.755  0.00  0.00    +0.000 A 
ATOM     18  C   UNL     1      -9.763  51.985  42.724  0.00  0.00    +0.000 A 
ATOM     19  C   UNL     1     -10.891  51.552  43.417  0.00  0.00    +0.000 A 
ATOM     20  H   UNL     1      -8.158  55.433  47.408  0.00  0.00    +0.000 HD
ATOM     21  H   UNL     1     -11.038  52.644  47.243  0.00  0.00    +0.000 HD
ENDBRANCH   1  13
BRANCH   7  22
ATOM     22  C   UNL     1      -9.589  54.751  52.257  0.00  0.00    +0.000 C 
ATOM     23  C   UNL     1      -8.256  55.463  52.605  0.00  0.00    +0.000 C 
ATOM     24  C   UNL     1     -10.466  54.948  53.511  0.00  0.00    +0.000 C 
ATOM     25  C   UNL     1      -9.293  53.249  52.085  0.00  0.00    +0.000 C 
ENDBRANCH   7  22
BRANCH   5  26
ATOM     26  C   UNL     1     -12.794  54.717  51.224  0.00  0.00    +0.000 C 
BRANCH  26  27
ATOM     27  C   UNL     1     -13.458  56.068  51.295  0.00  0.00    +0.000 A 
ATOM     28  C   UNL     1     -13.503  56.759  52.514  0.00  0.00    +0.000 A 
ATOM     29  C   UNL     1     -13.995  56.669  50.146  0.00  0.00    +0.000 A 
ATOM     30  C   UNL     1     -14.109  58.012  52.595  0.00  0.00    +0.000 A 
ATOM     31  C   UNL     1     -14.598  57.927  50.228  0.00  0.00    +0.000 A 
ATOM     32  C   UNL     1     -14.657  58.581  51.452  0.00  0.00    +0.000 A 
ATOM     33  F   UNL     1     -15.246  59.782  51.532  0.00  0.00    +0.000 F 
ENDBRANCH  26  27
ENDBRANCH   5  26
TORSDOF 4
ENDMDL
MODEL 6
REMARK VINA RESULT:      -7.9      3.167      5.121
REMARK  Name = 
REMARK  7 active torsions:
REMARK  status: ('A' for Active; 'I' for Inactive)
REMARK    1  A    between atoms: C_6  and  C_10
REMARK    2  A    between atoms: N_17  and  C_20
REMARK    3  A    between atoms: C_19  and  C_21
REMARK    4  A    between atoms: C_20  and  C_22
REMARK    5  A    between atoms: C_21  and  C_23
REMARK    6  A    between atoms: C_21  and  C_24
REMARK    7  A    between atoms: C_21  and  C_25
REMARK                            x       y       z     vdW  Elec       q    Type
REMARK                         _______ _______ _______ _____ _____    ______ ____
ROOT
ATOM      1  C   UNL     1     -10.624  55.254  50.477  0.00  0.00    +0.000 C 
ATOM      2  C   UNL     1     -10.176  54.435  51.605  0.00  0.00    +0.000 C 
ATOM      3  C   UNL     1      -9.725  55.058  49.505  0.00  0.00    +0.000 C 
ATOM      4  O   UNL     1     -10.677  54.497  52.716  0.00  0.00    +0.000 OA
ATOM      5  N   UNL     1      -9.128  53.640  51.181  0.00  0.00    +0.000 N 
ATOM      6  O   UNL     1      -9.746  55.687  48.284  0.00  0.00    +0.000 OA
ATOM      7  C   UNL     1      -8.658  54.016  49.833  0.00  0.00    +0.000 C 
ENDROOT
BRANCH   1  13
ATOM      8  S   UNL     1     -13.600  57.423  49.216  0.00  0.00    +0.000 S 
ATOM      9  O   UNL     1     -14.592  56.527  48.644  0.00  0.00    +0.000 OA
ATOM     10  O   UNL     1     -13.318  58.693  48.581  0.00  0.00    +0.000 OA
ATOM     11  N   UNL     1     -12.204  56.610  49.342  0.00  0.00    +0.000 N 
ATOM     12  C   UNL     1     -14.166  57.797  50.838  0.00  0.00    +0.000 A 
ATOM     13  C   UNL     1     -11.851  56.096  50.484  0.00  0.00    +0.000 C 
ATOM     14  C   UNL     1     -13.553  57.142  51.895  0.00  0.00    +0.000 A 
ATOM     15  C   UNL     1     -15.190  58.726  51.033  0.00  0.00    +0.000 A 
ATOM     16  N   UNL     1     -12.515  56.243  51.678  0.00  0.00    +0.000 N 
ATOM     17  C   UNL     1     -13.982  57.434  53.193  0.00  0.00    +0.000 A 
ATOM     18  C   UNL     1     -15.606  59.008  52.332  0.00  0.00    +0.000 A 
ATOM     19  C   UNL     1     -15.001  58.367  53.410  0.00  0.00    +0.000 A 
ATOM     20  H   UNL     1     -11.623  56.505  48.554  0.00  0.00    +0.000 HD
ATOM     21  H   UNL     1     -12.237  55.673  52.431  0.00  0.00    +0.000 HD
ENDBRANCH   1  13
BRANCH   7  22
ATOM     22  C   UNL     1      -8.548  52.842  48.782  0.00  0.00    +0.000 C 
ATOM     23  C   UNL     1      -9.906  52.124  48.567  0.00  0.00    +0.000 C 
ATOM     24  C   UNL     1      -8.164  53.357  47.379  0.00  0.00    +0.000 C 
ATOM     25  C   UNL     1      -7.519  51.786  49.227  0.00  0.00    +0.000 C 
ENDBRANCH   7  22
BRANCH   5  26
ATOM     26  C   UNL     1      -8.433  52.801  52.147  0.00  0.00    +0.000 C 
BRANCH  26  27
ATOM     27  C   UNL     1      -7.276  53.478  52.834  0.00  0.00    +0.000 A 
ATOM     28  C   UNL     1      -6.013  53.491  52.223  0.00  0.00    +0.000 A 
ATOM     29  C   UNL     1      -7.450  54.139  54.060  0.00  0.00    +0.000 A 
ATOM     30  C   UNL     1      -4.934  54.118  52.843  0.00  0.00    +0.000 A 
ATOM     31  C   UNL     1      -6.367  54.769  54.678  0.00  0.00    +0.000 A 
ATOM     32  C   UNL     1      -5.120  54.745  54.069  0.00  0.00    +0.000 A 
ATOM     33  F   UNL     1      -4.079  55.341  54.668  0.00  0.00    +0.000 F 
ENDBRANCH  26  27
ENDBRANCH   5  26
TORSDOF 4
ENDMDL
MODEL 7
REMARK VINA RESULT:      -7.9      2.937      4.761
REMARK  Name = 
REMARK  7 active torsions:
REMARK  status: ('A' for Active; 'I' for Inactive)
REMARK    1  A    between atoms: C_6  and  C_10
REMARK    2  A    between atoms: N_17  and  C_20
REMARK    3  A    between atoms: C_19  and  C_21
REMARK    4  A    between atoms: C_20  and  C_22
REMARK    5  A    between atoms: C_21  and  C_23
REMARK    6  A    between atoms: C_21  and  C_24
REMARK    7  A    between atoms: C_21  and  C_25
REMARK                            x       y       z     vdW  Elec       q    Type
REMARK                         _______ _______ _______ _____ _____    ______ ____
ROOT
ATOM      1  C   UNL     1     -11.437  56.088  48.778  0.00  0.00    +0.000 C 
ATOM      2  C   UNL     1     -10.328  55.427  49.469  0.00  0.00    +0.000 C 
ATOM      3  C   UNL     1     -11.391  55.651  47.513  0.00  0.00    +0.000 C 
ATOM      4  O   UNL     1      -9.979  55.718  50.601  0.00  0.00    +0.000 OA
ATOM      5  N   UNL     1      -9.788  54.477  48.623  0.00  0.00    +0.000 N 
ATOM      6  O   UNL     1     -12.231  56.069  46.511  0.00  0.00    +0.000 OA
ATOM      7  C   UNL     1     -10.334  54.579  47.255  0.00  0.00    +0.000 C 
ENDROOT
BRANCH   1  13
ATOM      8  S   UNL     1     -13.548  59.288  49.458  0.00  0.00    +0.000 S 
ATOM      9  O   UNL     1     -14.660  59.293  48.522  0.00  0.00    +0.000 OA
ATOM     10  O   UNL     1     -12.862  60.522  49.776  0.00  0.00    +0.000 OA
ATOM     11  N   UNL     1     -12.444  58.231  48.918  0.00  0.00    +0.000 N 
ATOM     12  C   UNL     1     -14.196  58.678  50.974  0.00  0.00    +0.000 A 
ATOM     13  C   UNL     1     -12.388  57.034  49.424  0.00  0.00    +0.000 C 
ATOM     14  C   UNL     1     -13.917  57.361  51.304  0.00  0.00    +0.000 A 
ATOM     15  C   UNL     1     -14.953  59.507  51.803  0.00  0.00    +0.000 A 
ATOM     16  N   UNL     1     -13.135  56.563  50.476  0.00  0.00    +0.000 N 
ATOM     17  C   UNL     1     -14.414  56.862  52.511  0.00  0.00    +0.000 A 
ATOM     18  C   UNL     1     -15.442  58.997  53.004  0.00  0.00    +0.000 A 
ATOM     19  C   UNL     1     -15.170  57.677  53.359  0.00  0.00    +0.000 A 
ATOM     20  H   UNL     1     -11.817  58.495  48.207  0.00  0.00    +0.000 HD
ATOM     21  H   UNL     1     -13.116  55.595  50.657  0.00  0.00    +0.000 HD
ENDBRANCH   1  13
BRANCH   7  22
ATOM     22  C   UNL     1     -10.898  53.244  46.629  0.00  0.00    +0.000 C 
ATOM     23  C   UNL     1      -9.837  52.112  46.619  0.00  0.00    +0.000 C 
ATOM     24  C   UNL     1     -12.065  52.665  47.456  0.00  0.00    +0.000 C 
ATOM     25  C   UNL     1     -11.371  53.460  45.179  0.00  0.00    +0.000 C 
ENDBRANCH   7  22
BRANCH   5  26
ATOM     26  C   UNL     1      -8.600  53.745  49.038  0.00  0.00    +0.000 C 
BRANCH  26  27
ATOM     27  C   UNL     1      -8.812  52.849  50.231  0.00  0.00    +0.000 A 
ATOM     28  C   UNL     1      -7.955  52.945  51.337  0.00  0.00    +0.000 A 
ATOM     29  C   UNL     1      -9.884  51.944  50.273  0.00  0.00    +0.000 A 
ATOM     30  C   UNL     1      -8.141  52.127  52.449  0.00  0.00    +0.000 A 
ATOM     31  C   UNL     1     -10.071  51.127  51.390  0.00  0.00    +0.000 A 
ATOM     32  C   UNL     1      -9.193  51.220  52.462  0.00  0.00    +0.000 A 
ATOM     33  F   UNL     1      -9.366  50.428  53.529  0.00  0.00    +0.000 F 
ENDBRANCH  26  27
ENDBRANCH   5  26
TORSDOF 4
ENDMDL
MODEL 8
REMARK VINA RESULT:      -7.8      3.677      7.764
REMARK  Name = 
REMARK  7 active torsions:
REMARK  status: ('A' for Active; 'I' for Inactive)
REMARK    1  A    between atoms: C_6  and  C_10
REMARK    2  A    between atoms: N_17  and  C_20
REMARK    3  A    between atoms: C_19  and  C_21
REMARK    4  A    between atoms: C_20  and  C_22
REMARK    5  A    between atoms: C_21  and  C_23
REMARK    6  A    between atoms: C_21  and  C_24
REMARK    7  A    between atoms: C_21  and  C_25
REMARK                            x       y       z     vdW  Elec       q    Type
REMARK                         _______ _______ _______ _____ _____    ______ ____
ROOT
ATOM      1  C   UNL     1     -10.485  53.656  47.912  0.00  0.00    +0.000 C 
ATOM      2  C   UNL     1     -11.535  53.484  48.917  0.00  0.00    +0.000 C 
ATOM      3  C   UNL     1      -9.755  54.701  48.321  0.00  0.00    +0.000 C 
ATOM      4  O   UNL     1     -12.475  52.719  48.777  0.00  0.00    +0.000 OA
ATOM      5  N   UNL     1     -11.265  54.323  49.982  0.00  0.00    +0.000 N 
ATOM      6  O   UNL     1      -8.694  55.232  47.630  0.00  0.00    +0.000 OA
ATOM      7  C   UNL     1     -10.164  55.261  49.682  0.00  0.00    +0.000 C 
ENDROOT
BRANCH   1  13
ATOM      8  S   UNL     1     -10.635  50.552  45.568  0.00  0.00    +0.000 S 
ATOM      9  O   UNL     1     -12.003  50.419  45.094  0.00  0.00    +0.000 OA
ATOM     10  O   UNL     1      -9.872  49.373  45.921  0.00  0.00    +0.000 OA
ATOM     11  N   UNL     1     -10.644  51.540  46.852  0.00  0.00    +0.000 N 
ATOM     12  C   UNL     1      -9.750  51.343  44.271  0.00  0.00    +0.000 A 
ATOM     13  C   UNL     1     -10.320  52.793  46.711  0.00  0.00    +0.000 C 
ATOM     14  C   UNL     1      -9.475  52.693  44.418  0.00  0.00    +0.000 A 
ATOM     15  C   UNL     1      -9.343  50.619  43.149  0.00  0.00    +0.000 A 
ATOM     16  N   UNL     1      -9.864  53.387  45.559  0.00  0.00    +0.000 N 
ATOM     17  C   UNL     1      -8.762  53.338  43.403  0.00  0.00    +0.000 A 
ATOM     18  C   UNL     1      -8.633  51.274  42.145  0.00  0.00    +0.000 A 
ATOM     19  C   UNL     1      -8.339  52.630  42.273  0.00  0.00    +0.000 A 
ATOM     20  H   UNL     1     -10.894  51.193  47.738  0.00  0.00    +0.000 HD
ATOM     21  H   UNL     1      -9.810  54.369  45.539  0.00  0.00    +0.000 HD
ENDBRANCH   1  13
BRANCH   7  22
ATOM     22  C   UNL     1      -8.994  55.322  50.741  0.00  0.00    +0.000 C 
ATOM     23  C   UNL     1      -9.525  55.285  52.198  0.00  0.00    +0.000 C 
ATOM     24  C   UNL     1      -8.063  54.095  50.644  0.00  0.00    +0.000 C 
ATOM     25  C   UNL     1      -8.153  56.602  50.575  0.00  0.00    +0.000 C 
ENDBRANCH   7  22
BRANCH   5  26
ATOM     26  C   UNL     1     -12.220  54.417  51.077  0.00  0.00    +0.000 C 
BRANCH  26  27
ATOM     27  C   UNL     1     -13.102  55.638  51.024  0.00  0.00    +0.000 A 
ATOM     28  C   UNL     1     -13.171  56.497  52.130  0.00  0.00    +0.000 A 
ATOM     29  C   UNL     1     -13.825  55.956  49.864  0.00  0.00    +0.000 A 
ATOM     30  C   UNL     1     -13.978  57.632  52.095  0.00  0.00    +0.000 A 
ATOM     31  C   UNL     1     -14.631  57.097  49.829  0.00  0.00    +0.000 A 
ATOM     32  C   UNL     1     -14.706  57.917  50.947  0.00  0.00    +0.000 A 
ATOM     33  F   UNL     1     -15.488  59.006  50.916  0.00  0.00    +0.000 F 
ENDBRANCH  26  27
ENDBRANCH   5  26
TORSDOF 4
ENDMDL
MODEL 9
REMARK VINA RESULT:      -7.8      4.028      7.906
REMARK  Name = 
REMARK  7 active torsions:
REMARK  status: ('A' for Active; 'I' for Inactive)
REMARK    1  A    between atoms: C_6  and  C_10
REMARK    2  A    between atoms: N_17  and  C_20
REMARK    3  A    between atoms: C_19  and  C_21
REMARK    4  A    between atoms: C_20  and  C_22
REMARK    5  A    between atoms: C_21  and  C_23
REMARK    6  A    between atoms: C_21  and  C_24
REMARK    7  A    between atoms: C_21  and  C_25
REMARK                            x       y       z     vdW  Elec       q    Type
REMARK                         _______ _______ _______ _____ _____    ______ ____
ROOT
ATOM      1  C   UNL     1      -9.476  53.786  50.237  0.00  0.00    +0.000 C 
ATOM      2  C   UNL     1      -9.955  55.150  50.463  0.00  0.00    +0.000 C 
ATOM      3  C   UNL     1     -10.219  53.300  49.234  0.00  0.00    +0.000 C 
ATOM      4  O   UNL     1      -9.604  55.832  51.413  0.00  0.00    +0.000 OA
ATOM      5  N   UNL     1     -10.837  55.480  49.452  0.00  0.00    +0.000 N 
ATOM      6  O   UNL     1     -10.127  52.022  48.742  0.00  0.00    +0.000 OA
ATOM      7  C   UNL     1     -11.181  54.313  48.616  0.00  0.00    +0.000 C 
ENDROOT
BRANCH   1  13
ATOM      8  S   UNL     1      -7.519  51.211  52.404  0.00  0.00    +0.000 S 
ATOM      9  O   UNL     1      -7.167  50.088  51.549  0.00  0.00    +0.000 OA
ATOM     10  O   UNL     1      -7.946  50.978  53.767  0.00  0.00    +0.000 OA
ATOM     11  N   UNL     1      -8.679  52.062  51.658  0.00  0.00    +0.000 N 
ATOM     12  C   UNL     1      -6.078  52.214  52.501  0.00  0.00    +0.000 A 
ATOM     13  C   UNL     1      -8.373  53.142  51.001  0.00  0.00    +0.000 C 
ATOM     14  C   UNL     1      -6.049  53.366  51.731  0.00  0.00    +0.000 A 
ATOM     15  C   UNL     1      -5.018  51.849  53.334  0.00  0.00    +0.000 A 
ATOM     16  N   UNL     1      -7.130  53.724  50.932  0.00  0.00    +0.000 N 
ATOM     17  C   UNL     1      -4.917  54.182  51.804  0.00  0.00    +0.000 A 
ATOM     18  C   UNL     1      -3.897  52.673  53.397  0.00  0.00    +0.000 A 
ATOM     19  C   UNL     1      -3.847  53.839  52.637  0.00  0.00    +0.000 A 
ATOM     20  H   UNL     1      -9.615  51.762  51.703  0.00  0.00    +0.000 HD
ATOM     21  H   UNL     1      -6.994  54.442  50.273  0.00  0.00    +0.000 HD
ENDBRANCH   1  13
BRANCH   7  22
ATOM     22  C   UNL     1     -11.017  54.501  47.057  0.00  0.00    +0.000 C 
ATOM     23  C   UNL     1     -11.842  55.702  46.526  0.00  0.00    +0.000 C 
ATOM     24  C   UNL     1      -9.562  54.835  46.665  0.00  0.00    +0.000 C 
ATOM     25  C   UNL     1     -11.466  53.243  46.289  0.00  0.00    +0.000 C 
ENDBRANCH   7  22
BRANCH   5  26
ATOM     26  C   UNL     1     -11.536  56.756  49.503  0.00  0.00    +0.000 C 
BRANCH  26  27
ATOM     27  C   UNL     1     -12.891  56.693  50.159  0.00  0.00    +0.000 A 
ATOM     28  C   UNL     1     -13.001  56.848  51.548  0.00  0.00    +0.000 A 
ATOM     29  C   UNL     1     -14.056  56.525  49.394  0.00  0.00    +0.000 A 
ATOM     30  C   UNL     1     -14.247  56.797  52.169  0.00  0.00    +0.000 A 
ATOM     31  C   UNL     1     -15.305  56.477  50.018  0.00  0.00    +0.000 A 
ATOM     32  C   UNL     1     -15.387  56.605  51.399  0.00  0.00    +0.000 A 
ATOM     33  F   UNL     1     -16.585  56.548  51.998  0.00  0.00    +0.000 F 
ENDBRANCH  26  27
ENDBRANCH   5  26
TORSDOF 4
ENDMDL
