MODEL 1
REMARK VINA RESULT:      -8.4      0.000      0.000
REMARK  Name = 
REMARK  7 active torsions:
REMARK  status: ('A' for Active; 'I' for Inactive)
REMARK    1  A    between atoms: C_6  and  C_10
REMARK    2  A    between atoms: N_17  and  C_20
REMARK    3  A    between atoms: C_19  and  C_21
REMARK    4  A    between atoms: C_20  and  C_22
REMARK    5  A    between atoms: C_21  and  C_23
REMARK    6  A    between atoms: C_21  and  C_24
REMARK    7  A    between atoms: C_21  and  C_25
REMARK                            x       y       z     vdW  Elec       q    Type
REMARK                         _______ _______ _______ _____ _____    ______ ____
ROOT
ATOM      1  C   UNL     1     -12.215  54.518  50.124  0.00  0.00    +0.000 C 
ATOM      2  C   UNL     1     -11.952  54.161  48.728  0.00  0.00    +0.000 C 
ATOM      3  C   UNL     1     -11.652  53.550  50.858  0.00  0.00    +0.000 C 
ATOM      4  O   UNL     1     -12.453  54.751  47.782  0.00  0.00    +0.000 OA
ATOM      5  N   UNL     1     -11.103  53.074  48.705  0.00  0.00    +0.000 N 
ATOM      6  O   UNL     1     -11.724  53.462  52.228  0.00  0.00    +0.000 OA
ATOM      7  C   UNL     1     -10.869  52.517  50.050  0.00  0.00    +0.000 C 
ENDROOT
BRANCH   1  13
ATOM      8  S   UNL     1     -14.426  56.897  52.280  0.00  0.00    +0.000 S 
ATOM      9  O   UNL     1     -13.625  57.398  53.379  0.00  0.00    +0.000 OA
ATOM     10  O   UNL     1     -15.813  56.532  52.493  0.00  0.00    +0.000 OA
ATOM     11  N   UNL     1     -13.667  55.604  51.651  0.00  0.00    +0.000 N 
ATOM     12  C   UNL     1     -14.437  58.172  51.070  0.00  0.00    +0.000 A 
ATOM     13  C   UNL     1     -12.977  55.725  50.555  0.00  0.00    +0.000 C 
ATOM     14  C   UNL     1     -13.634  58.004  49.953  0.00  0.00    +0.000 A 
ATOM     15  C   UNL     1     -15.234  59.307  51.256  0.00  0.00    +0.000 A 
ATOM     16  N   UNL     1     -12.874  56.855  49.777  0.00  0.00    +0.000 N 
ATOM     17  C   UNL     1     -13.632  59.017  48.986  0.00  0.00    +0.000 A 
ATOM     18  C   UNL     1     -15.229  60.303  50.279  0.00  0.00    +0.000 A 
ATOM     19  C   UNL     1     -14.429  60.157  49.145  0.00  0.00    +0.000 A 
ATOM     20  H   UNL     1     -13.728  54.730  52.100  0.00  0.00    +0.000 HD
ATOM     21  H   UNL     1     -12.214  56.849  49.044  0.00  0.00    +0.000 HD
ENDBRANCH   1  13
BRANCH   7  22
ATOM     22  C   UNL     1      -9.359  52.357  50.484  0.00  0.00    +0.000 C 
ATOM     23  C   UNL     1      -9.231  51.659  51.864  0.00  0.00    +0.000 C 
ATOM     24  C   UNL     1      -8.568  51.446  49.522  0.00  0.00    +0.000 C 
ATOM     25  C   UNL     1      -8.651  53.723  50.568  0.00  0.00    +0.000 C 
ENDBRANCH   7  22
BRANCH   5  26
ATOM     26  C   UNL     1     -10.797  52.432  47.436  0.00  0.00    +0.000 C 
BRANCH  26  27
ATOM     27  C   UNL     1      -9.816  53.188  46.578  0.00  0.00    +0.000 A 
ATOM     28  C   UNL     1      -9.633  52.834  45.231  0.00  0.00    +0.000 A 
ATOM     29  C   UNL     1      -9.109  54.285  47.097  0.00  0.00    +0.000 A 
ATOM     30  C   UNL     1      -8.748  53.550  44.425  0.00  0.00    +0.000 A 
ATOM     31  C   UNL     1      -8.225  54.999  46.288  0.00  0.00    +0.000 A 
ATOM     32  C   UNL     1      -8.049  54.622  44.963  0.00  0.00    +0.000 A 
ATOM     33  F   UNL     1      -7.198  55.310  44.189  0.00  0.00    +0.000 F 
ENDBRANCH  26  27
ENDBRANCH   5  26
TORSDOF 4
ENDMDL
MODEL 2
REMARK VINA RESULT:      -8.2      2.111      2.853
REMARK  Name = 
REMARK  7 active torsions:
REMARK  status: ('A' for Active; 'I' for Inactive)
REMARK    1  A    between atoms: C_6  and  C_10
REMARK    2  A    between atoms: N_17  and  C_20
REMARK    3  A    between atoms: C_19  and  C_21
REMARK    4  A    between atoms: C_20  and  C_22
REMARK    5  A    between atoms: C_21  and  C_23
REMARK    6  A    between atoms: C_21  and  C_24
REMARK    7  A    between atoms: C_21  and  C_25
REMARK                            x       y       z     vdW  Elec       q    Type
REMARK                         _______ _______ _______ _____ _____    ______ ____
ROOT
ATOM      1  C   UNL     1     -11.108  54.725  49.732  0.00  0.00    +0.000 C 
ATOM      2  C   UNL     1     -11.146  53.680  48.705  0.00  0.00    +0.000 C 
ATOM      3  C   UNL     1      -9.944  54.561  50.373  0.00  0.00    +0.000 C 
ATOM      4  O   UNL     1     -12.137  53.445  48.029  0.00  0.00    +0.000 OA
ATOM      5  N   UNL     1      -9.923  53.041  48.683  0.00  0.00    +0.000 N 
ATOM      6  O   UNL     1      -9.539  55.295  51.461  0.00  0.00    +0.000 OA
ATOM      7  C   UNL     1      -9.044  53.477  49.783  0.00  0.00    +0.000 C 
ENDROOT
BRANCH   1  13
ATOM      8  S   UNL     1     -13.944  57.301  49.019  0.00  0.00    +0.000 S 
ATOM      9  O   UNL     1     -15.127  56.578  48.595  0.00  0.00    +0.000 OA
ATOM     10  O   UNL     1     -13.585  58.552  48.380  0.00  0.00    +0.000 OA
ATOM     11  N   UNL     1     -12.669  56.300  48.897  0.00  0.00    +0.000 N 
ATOM     12  C   UNL     1     -14.191  57.675  50.719  0.00  0.00    +0.000 A 
ATOM     13  C   UNL     1     -12.195  55.720  49.959  0.00  0.00    +0.000 C 
ATOM     14  C   UNL     1     -13.497  56.919  51.649  0.00  0.00    +0.000 A 
ATOM     15  C   UNL     1     -15.067  58.701  51.090  0.00  0.00    +0.000 A 
ATOM     16  N   UNL     1     -12.611  55.925  51.255  0.00  0.00    +0.000 N 
ATOM     17  C   UNL     1     -13.690  57.205  53.007  0.00  0.00    +0.000 A 
ATOM     18  C   UNL     1     -15.242  58.981  52.446  0.00  0.00    +0.000 A 
ATOM     19  C   UNL     1     -14.553  58.234  53.402  0.00  0.00    +0.000 A 
ATOM     20  H   UNL     1     -12.258  56.133  48.019  0.00  0.00    +0.000 HD
ATOM     21  H   UNL     1     -12.255  55.323  51.951  0.00  0.00    +0.000 HD
ENDBRANCH   1  13
BRANCH   7  22
ATOM     22  C   UNL     1      -7.606  53.980  49.367  0.00  0.00    +0.000 C 
ATOM     23  C   UNL     1      -6.772  54.413  50.602  0.00  0.00    +0.000 C 
ATOM     24  C   UNL     1      -6.764  52.864  48.712  0.00  0.00    +0.000 C 
ATOM     25  C   UNL     1      -7.687  55.174  48.397  0.00  0.00    +0.000 C 
ENDBRANCH   7  22
BRANCH   5  26
ATOM     26  C   UNL     1      -9.746  51.866  47.845  0.00  0.00    +0.000 C 
BRANCH  26  27
ATOM     27  C   UNL     1      -9.815  52.142  46.365  0.00  0.00    +0.000 A 
ATOM     28  C   UNL     1      -8.947  53.077  45.778  0.00  0.00    +0.000 A 
ATOM     29  C   UNL     1     -10.709  51.434  45.546  0.00  0.00    +0.000 A 
ATOM     30  C   UNL     1      -8.987  53.315  44.404  0.00  0.00    +0.000 A 
ATOM     31  C   UNL     1     -10.746  51.672  44.172  0.00  0.00    +0.000 A 
ATOM     32  C   UNL     1      -9.889  52.613  43.616  0.00  0.00    +0.000 A 
ATOM     33  F   UNL     1      -9.928  52.841  42.296  0.00  0.00    +0.000 F 
ENDBRANCH  26  27
ENDBRANCH   5  26
TORSDOF 4
ENDMDL
MODEL 3
REMARK VINA RESULT:      -8.2      2.476      3.913
REMARK  Name = 
REMARK  7 active torsions:
REMARK  status: ('A' for Active; 'I' for Inactive)
REMARK    1  A    between atoms: C_6  and  C_10
REMARK    2  A    between atoms: N_17  and  C_20
REMARK    3  A    between atoms: C_19  and  C_21
REMARK    4  A    between atoms: C_20  and  C_22
REMARK    5  A    between atoms: C_21  and  C_23
REMARK    6  A    between atoms: C_21  and  C_24
REMARK    7  A    between atoms: C_21  and  C_25
REMARK                            x       y       z     vdW  Elec       q    Type
REMARK                         _______ _______ _______ _____ _____    ______ ____
ROOT
ATOM      1  C   UNL     1     -11.566  55.631  48.900  0.00  0.00    +0.000 C 
ATOM      2  C   UNL     1     -10.735  54.712  49.683  0.00  0.00    +0.000 C 
ATOM      3  C   UNL     1     -11.339  55.321  47.618  0.00  0.00    +0.000 C 
ATOM      4  O   UNL     1     -10.585  54.814  50.892  0.00  0.00    +0.000 OA
ATOM      5  N   UNL     1     -10.171  53.790  48.825  0.00  0.00    +0.000 N 
ATOM      6  O   UNL     1     -11.873  55.992  46.543  0.00  0.00    +0.000 OA
ATOM      7  C   UNL     1     -10.432  54.110  47.410  0.00  0.00    +0.000 C 
ENDROOT
BRANCH   1  13
ATOM      8  S   UNL     1     -13.450  59.008  49.380  0.00  0.00    +0.000 S 
ATOM      9  O   UNL     1     -14.553  59.057  48.441  0.00  0.00    +0.000 OA
ATOM     10  O   UNL     1     -12.663  60.197  49.644  0.00  0.00    +0.000 OA
ATOM     11  N   UNL     1     -12.430  57.838  48.900  0.00  0.00    +0.000 N 
ATOM     12  C   UNL     1     -14.149  58.534  50.922  0.00  0.00    +0.000 A 
ATOM     13  C   UNL     1     -12.447  56.679  49.491  0.00  0.00    +0.000 C 
ATOM     14  C   UNL     1     -13.955  57.227  51.338  0.00  0.00    +0.000 A 
ATOM     15  C   UNL     1     -14.874  59.461  51.677  0.00  0.00    +0.000 A 
ATOM     16  N   UNL     1     -13.206  56.332  50.585  0.00  0.00    +0.000 N 
ATOM     17  C   UNL     1     -14.512  56.836  52.563  0.00  0.00    +0.000 A 
ATOM     18  C   UNL     1     -15.415  59.060  52.900  0.00  0.00    +0.000 A 
ATOM     19  C   UNL     1     -15.233  57.749  53.341  0.00  0.00    +0.000 A 
ATOM     20  H   UNL     1     -11.801  58.005  48.162  0.00  0.00    +0.000 HD
ATOM     21  H   UNL     1     -13.220  55.383  50.850  0.00  0.00    +0.000 HD
ENDBRANCH   1  13
BRANCH   7  22
ATOM     22  C   UNL     1     -11.073  52.957  46.543  0.00  0.00    +0.000 C 
ATOM     23  C   UNL     1     -11.553  53.478  45.162  0.00  0.00    +0.000 C 
ATOM     24  C   UNL     1     -10.054  51.850  46.198  0.00  0.00    +0.000 C 
ATOM     25  C   UNL     1     -12.276  52.316  47.261  0.00  0.00    +0.000 C 
ENDBRANCH   7  22
BRANCH   5  26
ATOM     26  C   UNL     1      -9.186  52.849  49.335  0.00  0.00    +0.000 C 
BRANCH  26  27
ATOM     27  C   UNL     1      -7.756  53.271  49.122  0.00  0.00    +0.000 A 
ATOM     28  C   UNL     1      -7.018  52.758  48.043  0.00  0.00    +0.000 A 
ATOM     29  C   UNL     1      -7.157  54.220  49.966  0.00  0.00    +0.000 A 
ATOM     30  C   UNL     1      -5.703  53.168  47.825  0.00  0.00    +0.000 A 
ATOM     31  C   UNL     1      -5.842  54.629  49.746  0.00  0.00    +0.000 A 
ATOM     32  C   UNL     1      -5.127  54.096  48.681  0.00  0.00    +0.000 A 
ATOM     33  F   UNL     1      -3.863  54.491  48.472  0.00  0.00    +0.000 F 
ENDBRANCH  26  27
ENDBRANCH   5  26
TORSDOF 4
ENDMDL
MODEL 4
REMARK VINA RESULT:      -8.0      3.846      7.351
REMARK  Name = 
REMARK  7 active torsions:
REMARK  status: ('A' for Active; 'I' for Inactive)
REMARK    1  A    between atoms: C_6  and  C_10
REMARK    2  A    between atoms: N_17  and  C_20
REMARK    3  A    between atoms: C_19  and  C_21
REMARK    4  A    between atoms: C_20  and  C_22
REMARK    5  A    between atoms: C_21  and  C_23
REMARK    6  A    between atoms: C_21  and  C_24
REMARK    7  A    between atoms: C_21  and  C_25
REMARK                            x       y       z     vdW  Elec       q    Type
REMARK                         _______ _______ _______ _____ _____    ______ ____
ROOT
ATOM      1  C   UNL     1      -9.330  54.232  50.283  0.00  0.00    +0.000 C 
ATOM      2  C   UNL     1     -10.742  54.593  50.434  0.00  0.00    +0.000 C 
ATOM      3  C   UNL     1      -9.229  53.663  49.075  0.00  0.00    +0.000 C 
ATOM      4  O   UNL     1     -11.217  55.002  51.483  0.00  0.00    +0.000 OA
ATOM      5  N   UNL     1     -11.386  54.363  49.236  0.00  0.00    +0.000 N 
ATOM      6  O   UNL     1      -8.079  53.114  48.560  0.00  0.00    +0.000 OA
ATOM      7  C   UNL     1     -10.519  53.682  48.257  0.00  0.00    +0.000 C 
ENDROOT
BRANCH   1  13
ATOM      8  S   UNL     1      -7.425  55.826  53.285  0.00  0.00    +0.000 S 
ATOM      9  O   UNL     1      -8.107  55.458  54.510  0.00  0.00    +0.000 OA
ATOM     10  O   UNL     1      -6.889  57.164  53.121  0.00  0.00    +0.000 OA
ATOM     11  N   UNL     1      -8.432  55.541  52.042  0.00  0.00    +0.000 N 
ATOM     12  C   UNL     1      -6.055  54.732  53.148  0.00  0.00    +0.000 A 
ATOM     13  C   UNL     1      -8.285  54.471  51.318  0.00  0.00    +0.000 C 
ATOM     14  C   UNL     1      -6.153  53.694  52.235  0.00  0.00    +0.000 A 
ATOM     15  C   UNL     1      -4.923  54.924  53.946  0.00  0.00    +0.000 A 
ATOM     16  N   UNL     1      -7.276  53.541  51.432  0.00  0.00    +0.000 N 
ATOM     17  C   UNL     1      -5.070  52.813  52.121  0.00  0.00    +0.000 A 
ATOM     18  C   UNL     1      -3.847  54.044  53.815  0.00  0.00    +0.000 A 
ATOM     19  C   UNL     1      -3.922  52.991  52.902  0.00  0.00    +0.000 A 
ATOM     20  H   UNL     1      -9.154  56.179  51.837  0.00  0.00    +0.000 HD
ATOM     21  H   UNL     1      -7.357  52.710  50.909  0.00  0.00    +0.000 HD
ENDBRANCH   1  13
BRANCH   7  22
ATOM     22  C   UNL     1     -10.385  54.376  46.845  0.00  0.00    +0.000 C 
ATOM     23  C   UNL     1      -9.772  53.416  45.791  0.00  0.00    +0.000 C 
ATOM     24  C   UNL     1     -11.756  54.764  46.252  0.00  0.00    +0.000 C 
ATOM     25  C   UNL     1      -9.503  55.637  46.920  0.00  0.00    +0.000 C 
ENDBRANCH   7  22
BRANCH   5  26
ATOM     26  C   UNL     1     -12.831  54.508  49.161  0.00  0.00    +0.000 C 
BRANCH  26  27
ATOM     27  C   UNL     1     -13.337  55.879  49.528  0.00  0.00    +0.000 A 
ATOM     28  C   UNL     1     -12.817  57.019  48.893  0.00  0.00    +0.000 A 
ATOM     29  C   UNL     1     -14.368  56.033  50.468  0.00  0.00    +0.000 A 
ATOM     30  C   UNL     1     -13.303  58.288  49.207  0.00  0.00    +0.000 A 
ATOM     31  C   UNL     1     -14.853  57.304  50.781  0.00  0.00    +0.000 A 
ATOM     32  C   UNL     1     -14.313  58.417  50.152  0.00  0.00    +0.000 A 
ATOM     33  F   UNL     1     -14.781  59.637  50.454  0.00  0.00    +0.000 F 
ENDBRANCH  26  27
ENDBRANCH   5  26
TORSDOF 4
ENDMDL
MODEL 5
REMARK VINA RESULT:      -7.9      3.170      5.127
REMARK  Name = 
REMARK  7 active torsions:
REMARK  status: ('A' for Active; 'I' for Inactive)
REMARK    1  A    between atoms: C_6  and  C_10
REMARK    2  A    between atoms: N_17  and  C_20
REMARK    3  A    between atoms: C_19  and  C_21
REMARK    4  A    between atoms: C_20  and  C_22
REMARK    5  A    between atoms: C_21  and  C_23
REMARK    6  A    between atoms: C_21  and  C_24
REMARK    7  A    between atoms: C_21  and  C_25
REMARK                            x       y       z     vdW  Elec       q    Type
REMARK                         _______ _______ _______ _____ _____    ______ ____
ROOT
ATOM      1  C   UNL     1     -10.686  55.223  50.424  0.00  0.00    +0.000 C 
ATOM      2  C   UNL     1     -10.252  54.377  51.539  0.00  0.00    +0.000 C 
ATOM      3  C   UNL     1      -9.771  55.051  49.461  0.00  0.00    +0.000 C 
ATOM      4  O   UNL     1     -10.779  54.406  52.642  0.00  0.00    +0.000 OA
ATOM      5  N   UNL     1      -9.179  53.617  51.122  0.00  0.00    +0.000 N 
ATOM      6  O   UNL     1      -9.762  55.718  48.260  0.00  0.00    +0.000 OA
ATOM      7  C   UNL     1      -8.706  54.004  49.781  0.00  0.00    +0.000 C 
ENDROOT
BRANCH   1  13
ATOM      8  S   UNL     1     -13.676  57.395  49.186  0.00  0.00    +0.000 S 
ATOM      9  O   UNL     1     -14.692  56.513  48.646  0.00  0.00    +0.000 OA
ATOM     10  O   UNL     1     -13.379  58.654  48.531  0.00  0.00    +0.000 OA
ATOM     11  N   UNL     1     -12.287  56.557  49.296  0.00  0.00    +0.000 N 
ATOM     12  C   UNL     1     -14.204  57.803  50.812  0.00  0.00    +0.000 A 
ATOM     13  C   UNL     1     -11.903  56.083  50.444  0.00  0.00    +0.000 C 
ATOM     14  C   UNL     1     -13.564  57.178  51.870  0.00  0.00    +0.000 A 
ATOM     15  C   UNL     1     -15.238  58.726  51.001  0.00  0.00    +0.000 A 
ATOM     16  N   UNL     1     -12.520  56.287  51.658  0.00  0.00    +0.000 N 
ATOM     17  C   UNL     1     -13.981  57.492  53.170  0.00  0.00    +0.000 A 
ATOM     18  C   UNL     1     -15.636  59.036  52.302  0.00  0.00    +0.000 A 
ATOM     19  C   UNL     1     -15.007  58.420  53.384  0.00  0.00    +0.000 A 
ATOM     20  H   UNL     1     -11.738  56.407  48.493  0.00  0.00    +0.000 HD
ATOM     21  H   UNL     1     -12.199  55.763  52.428  0.00  0.00    +0.000 HD
ENDBRANCH   1  13
BRANCH   7  22
ATOM     22  C   UNL     1      -8.595  52.841  48.719  0.00  0.00    +0.000 C 
ATOM     23  C   UNL     1      -9.911  52.022  48.628  0.00  0.00    +0.000 C 
ATOM     24  C   UNL     1      -8.380  53.375  47.287  0.00  0.00    +0.000 C 
ATOM     25  C   UNL     1      -7.447  51.872  49.064  0.00  0.00    +0.000 C 
ENDBRANCH   7  22
BRANCH   5  26
ATOM     26  C   UNL     1      -8.470  52.792  52.088  0.00  0.00    +0.000 C 
BRANCH  26  27
ATOM     27  C   UNL     1      -7.316  53.483  52.766  0.00  0.00    +0.000 A 
ATOM     28  C   UNL     1      -7.515  54.175  53.972  0.00  0.00    +0.000 A 
ATOM     29  C   UNL     1      -6.020  53.402  52.233  0.00  0.00    +0.000 A 
ATOM     30  C   UNL     1      -6.444  54.791  54.620  0.00  0.00    +0.000 A 
ATOM     31  C   UNL     1      -4.950  54.018  52.883  0.00  0.00    +0.000 A 
ATOM     32  C   UNL     1      -5.174  54.710  54.066  0.00  0.00    +0.000 A 
ATOM     33  F   UNL     1      -4.144  55.302  54.687  0.00  0.00    +0.000 F 
ENDBRANCH  26  27
ENDBRANCH   5  26
TORSDOF 4
ENDMDL
MODEL 6
REMARK VINA RESULT:      -7.9      3.666      7.656
REMARK  Name = 
REMARK  7 active torsions:
REMARK  status: ('A' for Active; 'I' for Inactive)
REMARK    1  A    between atoms: C_6  and  C_10
REMARK    2  A    between atoms: N_17  and  C_20
REMARK    3  A    between atoms: C_19  and  C_21
REMARK    4  A    between atoms: C_20  and  C_22
REMARK    5  A    between atoms: C_21  and  C_23
REMARK    6  A    between atoms: C_21  and  C_24
REMARK    7  A    between atoms: C_21  and  C_25
REMARK                            x       y       z     vdW  Elec       q    Type
REMARK                         _______ _______ _______ _____ _____    ______ ____
ROOT
ATOM      1  C   UNL     1     -10.095  54.508  48.729  0.00  0.00    +0.000 C 
ATOM      2  C   UNL     1     -11.468  54.337  49.213  0.00  0.00    +0.000 C 
ATOM      3  C   UNL     1      -9.439  55.134  49.714  0.00  0.00    +0.000 C 
ATOM      4  O   UNL     1     -12.379  53.931  48.507  0.00  0.00    +0.000 OA
ATOM      5  N   UNL     1     -11.520  54.731  50.535  0.00  0.00    +0.000 N 
ATOM      6  O   UNL     1      -8.131  55.549  49.644  0.00  0.00    +0.000 OA
ATOM      7  C   UNL     1     -10.259  55.347  50.985  0.00  0.00    +0.000 C 
ENDROOT
BRANCH   1  13
ATOM      8  S   UNL     1      -7.814  54.065  45.601  0.00  0.00    +0.000 S 
ATOM      9  O   UNL     1      -6.734  53.161  45.943  0.00  0.00    +0.000 OA
ATOM     10  O   UNL     1      -7.557  55.229  44.774  0.00  0.00    +0.000 OA
ATOM     11  N   UNL     1      -8.496  54.583  46.983  0.00  0.00    +0.000 N 
ATOM     12  C   UNL     1      -8.996  53.099  44.730  0.00  0.00    +0.000 A 
ATOM     13  C   UNL     1      -9.614  54.060  47.392  0.00  0.00    +0.000 C 
ATOM     14  C   UNL     1     -10.145  52.726  45.410  0.00  0.00    +0.000 A 
ATOM     15  C   UNL     1      -8.759  52.731  43.402  0.00  0.00    +0.000 A 
ATOM     16  N   UNL     1     -10.372  53.129  46.719  0.00  0.00    +0.000 N 
ATOM     17  C   UNL     1     -11.091  51.951  44.727  0.00  0.00    +0.000 A 
ATOM     18  C   UNL     1      -9.715  51.967  42.732  0.00  0.00    +0.000 A 
ATOM     19  C   UNL     1     -10.880  51.579  43.394  0.00  0.00    +0.000 A 
ATOM     20  H   UNL     1      -8.062  55.292  47.510  0.00  0.00    +0.000 HD
ATOM     21  H   UNL     1     -11.128  52.719  47.201  0.00  0.00    +0.000 HD
ENDBRANCH   1  13
BRANCH   7  22
ATOM     22  C   UNL     1      -9.611  54.734  52.288  0.00  0.00    +0.000 C 
ATOM     23  C   UNL     1      -8.280  55.441  52.654  0.00  0.00    +0.000 C 
ATOM     24  C   UNL     1     -10.502  54.935  53.533  0.00  0.00    +0.000 C 
ATOM     25  C   UNL     1      -9.328  53.229  52.120  0.00  0.00    +0.000 C 
ENDBRANCH   7  22
BRANCH   5  26
ATOM     26  C   UNL     1     -12.806  54.793  51.212  0.00  0.00    +0.000 C 
BRANCH  26  27
ATOM     27  C   UNL     1     -13.429  56.164  51.237  0.00  0.00    +0.000 A 
ATOM     28  C   UNL     1     -13.620  56.833  52.457  0.00  0.00    +0.000 A 
ATOM     29  C   UNL     1     -13.780  56.813  50.042  0.00  0.00    +0.000 A 
ATOM     30  C   UNL     1     -14.170  58.115  52.484  0.00  0.00    +0.000 A 
ATOM     31  C   UNL     1     -14.329  58.095  50.071  0.00  0.00    +0.000 A 
ATOM     32  C   UNL     1     -14.523  58.731  51.290  0.00  0.00    +0.000 A 
ATOM     33  F   UNL     1     -15.051  59.963  51.315  0.00  0.00    +0.000 F 
ENDBRANCH  26  27
ENDBRANCH   5  26
TORSDOF 4
ENDMDL
MODEL 7
REMARK VINA RESULT:      -7.9      2.926      4.765
REMARK  Name = 
REMARK  7 active torsions:
REMARK  status: ('A' for Active; 'I' for Inactive)
REMARK    1  A    between atoms: C_6  and  C_10
REMARK    2  A    between atoms: N_17  and  C_20
REMARK    3  A    between atoms: C_19  and  C_21
REMARK    4  A    between atoms: C_20  and  C_22
REMARK    5  A    between atoms: C_21  and  C_23
REMARK    6  A    between atoms: C_21  and  C_24
REMARK    7  A    between atoms: C_21  and  C_25
REMARK                            x       y       z     vdW  Elec       q    Type
REMARK                         _______ _______ _______ _____ _____    ______ ____
ROOT
ATOM      1  C   UNL     1     -11.407  56.021  48.826  0.00  0.00    +0.000 C 
ATOM      2  C   UNL     1     -10.329  55.324  49.533  0.00  0.00    +0.000 C 
ATOM      3  C   UNL     1     -11.320  55.622  47.550  0.00  0.00    +0.000 C 
ATOM      4  O   UNL     1     -10.023  55.569  50.691  0.00  0.00    +0.000 OA
ATOM      5  N   UNL     1      -9.749  54.418  48.668  0.00  0.00    +0.000 N 
ATOM      6  O   UNL     1     -12.109  56.091  46.527  0.00  0.00    +0.000 OA
ATOM      7  C   UNL     1     -10.263  54.550  47.293  0.00  0.00    +0.000 C 
ENDROOT
BRANCH   1  13
ATOM      8  S   UNL     1     -13.524  59.229  49.468  0.00  0.00    +0.000 S 
ATOM      9  O   UNL     1     -14.636  59.240  48.538  0.00  0.00    +0.000 OA
ATOM     10  O   UNL     1     -12.821  60.459  49.782  0.00  0.00    +0.000 OA
ATOM     11  N   UNL     1     -12.426  58.157  48.930  0.00  0.00    +0.000 N 
ATOM     12  C   UNL     1     -14.173  58.637  50.991  0.00  0.00    +0.000 A 
ATOM     13  C   UNL     1     -12.355  56.975  49.468  0.00  0.00    +0.000 C 
ATOM     14  C   UNL     1     -13.882  57.330  51.347  0.00  0.00    +0.000 A 
ATOM     15  C   UNL     1     -14.956  59.475  51.792  0.00  0.00    +0.000 A 
ATOM     16  N   UNL     1     -13.078  56.526  50.549  0.00  0.00    +0.000 N 
ATOM     17  C   UNL     1     -14.398  56.846  52.555  0.00  0.00    +0.000 A 
ATOM     18  C   UNL     1     -15.455  58.982  52.998  0.00  0.00    +0.000 A 
ATOM     19  C   UNL     1     -15.176  57.669  53.378  0.00  0.00    +0.000 A 
ATOM     20  H   UNL     1     -11.817  58.403  48.197  0.00  0.00    +0.000 HD
ATOM     21  H   UNL     1     -13.021  55.567  50.772  0.00  0.00    +0.000 HD
ENDBRANCH   1  13
BRANCH   7  22
ATOM     22  C   UNL     1     -10.821  53.230  46.629  0.00  0.00    +0.000 C 
ATOM     23  C   UNL     1     -11.275  53.473  45.166  0.00  0.00    +0.000 C 
ATOM     24  C   UNL     1      -9.742  52.132  46.515  0.00  0.00    +0.000 C 
ATOM     25  C   UNL     1     -12.019  52.667  47.419  0.00  0.00    +0.000 C 
ENDBRANCH   7  22
BRANCH   5  26
ATOM     26  C   UNL     1      -8.558  53.696  49.084  0.00  0.00    +0.000 C 
BRANCH  26  27
ATOM     27  C   UNL     1      -8.778  52.740  50.227  0.00  0.00    +0.000 A 
ATOM     28  C   UNL     1      -9.805  51.784  50.164  0.00  0.00    +0.000 A 
ATOM     29  C   UNL     1      -7.930  52.755  51.346  0.00  0.00    +0.000 A 
ATOM     30  C   UNL     1      -9.994  50.877  51.206  0.00  0.00    +0.000 A 
ATOM     31  C   UNL     1      -8.120  51.847  52.388  0.00  0.00    +0.000 A 
ATOM     32  C   UNL     1      -9.153  50.921  52.310  0.00  0.00    +0.000 A 
ATOM     33  F   UNL     1      -9.334  50.050  53.312  0.00  0.00    +0.000 F 
ENDBRANCH  26  27
ENDBRANCH   5  26
TORSDOF 4
ENDMDL
MODEL 8
REMARK VINA RESULT:      -7.9      3.629      7.746
REMARK  Name = 
REMARK  7 active torsions:
REMARK  status: ('A' for Active; 'I' for Inactive)
REMARK    1  A    between atoms: C_6  and  C_10
REMARK    2  A    between atoms: N_17  and  C_20
REMARK    3  A    between atoms: C_19  and  C_21
REMARK    4  A    between atoms: C_20  and  C_22
REMARK    5  A    between atoms: C_21  and  C_23
REMARK    6  A    between atoms: C_21  and  C_24
REMARK    7  A    between atoms: C_21  and  C_25
REMARK                            x       y       z     vdW  Elec       q    Type
REMARK                         _______ _______ _______ _____ _____    ______ ____
ROOT
ATOM      1  C   UNL     1     -10.454  53.759  47.985  0.00  0.00    +0.000 C 
ATOM      2  C   UNL     1     -11.521  53.594  48.976  0.00  0.00    +0.000 C 
ATOM      3  C   UNL     1      -9.714  54.787  48.417  0.00  0.00    +0.000 C 
ATOM      4  O   UNL     1     -12.467  52.837  48.818  0.00  0.00    +0.000 OA
ATOM      5  N   UNL     1     -11.268  54.438  50.038  0.00  0.00    +0.000 N 
ATOM      6  O   UNL     1      -8.643  55.320  47.740  0.00  0.00    +0.000 OA
ATOM      7  C   UNL     1     -10.133  55.342  49.776  0.00  0.00    +0.000 C 
ENDROOT
BRANCH   1  13
ATOM      8  S   UNL     1     -10.702  50.717  45.561  0.00  0.00    +0.000 S 
ATOM      9  O   UNL     1     -12.063  50.628  45.072  0.00  0.00    +0.000 OA
ATOM     10  O   UNL     1      -9.967  49.513  45.899  0.00  0.00    +0.000 OA
ATOM     11  N   UNL     1     -10.697  51.682  46.869  0.00  0.00    +0.000 N 
ATOM     12  C   UNL     1      -9.782  51.508  44.288  0.00  0.00    +0.000 A 
ATOM     13  C   UNL     1     -10.305  52.918  46.763  0.00  0.00    +0.000 C 
ATOM     14  C   UNL     1      -9.444  52.839  44.474  0.00  0.00    +0.000 A 
ATOM     15  C   UNL     1      -9.422  50.796  43.138  0.00  0.00    +0.000 A 
ATOM     16  N   UNL     1      -9.787  53.516  45.637  0.00  0.00    +0.000 N 
ATOM     17  C   UNL     1      -8.716  53.480  43.463  0.00  0.00    +0.000 A 
ATOM     18  C   UNL     1      -8.688  51.446  42.145  0.00  0.00    +0.000 A 
ATOM     19  C   UNL     1      -8.336  52.786  42.309  0.00  0.00    +0.000 A 
ATOM     20  H   UNL     1     -10.992  51.332  47.740  0.00  0.00    +0.000 HD
ATOM     21  H   UNL     1      -9.652  54.492  45.657  0.00  0.00    +0.000 HD
ENDBRANCH   1  13
BRANCH   7  22
ATOM     22  C   UNL     1      -8.985  55.347  50.860  0.00  0.00    +0.000 C 
ATOM     23  C   UNL     1      -9.558  55.325  52.302  0.00  0.00    +0.000 C 
ATOM     24  C   UNL     1      -8.102  54.083  50.783  0.00  0.00    +0.000 C 
ATOM     25  C   UNL     1      -8.084  56.590  50.718  0.00  0.00    +0.000 C 
ENDBRANCH   7  22
BRANCH   5  26
ATOM     26  C   UNL     1     -12.257  54.571  51.096  0.00  0.00    +0.000 C 
BRANCH  26  27
ATOM     27  C   UNL     1     -13.082  55.829  51.021  0.00  0.00    +0.000 A 
ATOM     28  C   UNL     1     -13.643  56.237  49.800  0.00  0.00    +0.000 A 
ATOM     29  C   UNL     1     -13.344  56.583  52.177  0.00  0.00    +0.000 A 
ATOM     30  C   UNL     1     -14.433  57.385  49.731  0.00  0.00    +0.000 A 
ATOM     31  C   UNL     1     -14.135  57.730  52.106  0.00  0.00    +0.000 A 
ATOM     32  C   UNL     1     -14.666  58.122  50.884  0.00  0.00    +0.000 A 
ATOM     33  F   UNL     1     -15.425  59.225  50.819  0.00  0.00    +0.000 F 
ENDBRANCH  26  27
ENDBRANCH   5  26
TORSDOF 4
ENDMDL
MODEL 9
REMARK VINA RESULT:      -7.9      4.514      7.941
REMARK  Name = 
REMARK  7 active torsions:
REMARK  status: ('A' for Active; 'I' for Inactive)
REMARK    1  A    between atoms: C_6  and  C_10
REMARK    2  A    between atoms: N_17  and  C_20
REMARK    3  A    between atoms: C_19  and  C_21
REMARK    4  A    between atoms: C_20  and  C_22
REMARK    5  A    between atoms: C_21  and  C_23
REMARK    6  A    between atoms: C_21  and  C_24
REMARK    7  A    between atoms: C_21  and  C_25
REMARK                            x       y       z     vdW  Elec       q    Type
REMARK                         _______ _______ _______ _____ _____    ______ ____
ROOT
ATOM      1  C   UNL     1      -8.914  54.504  49.630  0.00  0.00    +0.000 C 
ATOM      2  C   UNL     1      -9.639  55.771  49.506  0.00  0.00    +0.000 C 
ATOM      3  C   UNL     1      -9.731  53.568  49.128  0.00  0.00    +0.000 C 
ATOM      4  O   UNL     1      -9.245  56.816  50.002  0.00  0.00    +0.000 OA
ATOM      5  N   UNL     1     -10.795  55.547  48.787  0.00  0.00    +0.000 N 
ATOM      6  O   UNL     1      -9.464  52.220  49.115  0.00  0.00    +0.000 OA
ATOM      7  C   UNL     1     -11.023  54.114  48.525  0.00  0.00    +0.000 C 
ENDROOT
BRANCH   1  13
ATOM      8  S   UNL     1      -5.133  53.632  49.993  0.00  0.00    +0.000 S 
ATOM      9  O   UNL     1      -4.363  54.596  49.232  0.00  0.00    +0.000 OA
ATOM     10  O   UNL     1      -4.753  52.232  49.994  0.00  0.00    +0.000 OA
ATOM     11  N   UNL     1      -6.680  53.722  49.503  0.00  0.00    +0.000 N 
ATOM     12  C   UNL     1      -5.052  54.161  51.667  0.00  0.00    +0.000 A 
ATOM     13  C   UNL     1      -7.552  54.368  50.220  0.00  0.00    +0.000 C 
ATOM     14  C   UNL     1      -6.172  54.780  52.199  0.00  0.00    +0.000 A 
ATOM     15  C   UNL     1      -3.884  53.956  52.410  0.00  0.00    +0.000 A 
ATOM     16  N   UNL     1      -7.329  54.945  51.450  0.00  0.00    +0.000 N 
ATOM     17  C   UNL     1      -6.116  55.210  53.530  0.00  0.00    +0.000 A 
ATOM     18  C   UNL     1      -3.847  54.382  53.739  0.00  0.00    +0.000 A 
ATOM     19  C   UNL     1      -4.962  55.008  54.297  0.00  0.00    +0.000 A 
ATOM     20  H   UNL     1      -6.957  53.288  48.664  0.00  0.00    +0.000 HD
ATOM     21  H   UNL     1      -8.040  55.516  51.823  0.00  0.00    +0.000 HD
ENDBRANCH   1  13
BRANCH   7  22
ATOM     22  C   UNL     1     -11.258  53.712  47.016  0.00  0.00    +0.000 C 
ATOM     23  C   UNL     1     -11.965  54.845  46.225  0.00  0.00    +0.000 C 
ATOM     24  C   UNL     1      -9.932  53.491  46.257  0.00  0.00    +0.000 C 
ATOM     25  C   UNL     1     -12.114  52.436  46.901  0.00  0.00    +0.000 C 
ENDBRANCH   7  22
BRANCH   5  26
ATOM     26  C   UNL     1     -11.767  56.620  48.644  0.00  0.00    +0.000 C 
BRANCH  26  27
ATOM     27  C   UNL     1     -12.884  56.585  49.654  0.00  0.00    +0.000 A 
ATOM     28  C   UNL     1     -12.597  56.481  51.025  0.00  0.00    +0.000 A 
ATOM     29  C   UNL     1     -14.222  56.707  49.245  0.00  0.00    +0.000 A 
ATOM     30  C   UNL     1     -13.627  56.478  51.966  0.00  0.00    +0.000 A 
ATOM     31  C   UNL     1     -15.250  56.704  50.188  0.00  0.00    +0.000 A 
ATOM     32  C   UNL     1     -14.943  56.585  51.537  0.00  0.00    +0.000 A 
ATOM     33  F   UNL     1     -15.934  56.582  52.440  0.00  0.00    +0.000 F 
ENDBRANCH  26  27
ENDBRANCH   5  26
TORSDOF 4
ENDMDL
