MODEL 1
REMARK VINA RESULT:      -8.0      0.000      0.000
REMARK  Name = 
REMARK  10 active torsions:
REMARK  status: ('A' for Active; 'I' for Inactive)
REMARK    1  A    between atoms: C_6  and  C_10
REMARK    2  A    between atoms: N_17  and  C_20
REMARK    3  A    between atoms: C_19  and  C_21
REMARK    4  A    between atoms: C_20  and  C_22
REMARK    5  A    between atoms: C_21  and  C_23
REMARK    6  A    between atoms: C_21  and  C_24
REMARK    7  A    between atoms: C_21  and  C_25
REMARK    8  A    between atoms: C_22  and  C_26
REMARK    9  A    between atoms: C_26  and  C_27
REMARK   10  A    between atoms: C_26  and  C_28
REMARK                            x       y       z     vdW  Elec       q    Type
REMARK                         _______ _______ _______ _____ _____    ______ ____
ROOT
ATOM      1  C   UNL     1     -10.796  55.312  47.844  0.00  0.00    +0.000 C 
ATOM      2  C   UNL     1     -12.168  55.810  47.694  0.00  0.00    +0.000 C 
ATOM      3  C   UNL     1     -10.426  55.628  49.093  0.00  0.00    +0.000 C 
ATOM      4  O   UNL     1     -12.792  55.747  46.646  0.00  0.00    +0.000 OA
ATOM      5  N   UNL     1     -12.571  56.342  48.901  0.00  0.00    +0.000 N 
ATOM      6  O   UNL     1      -9.183  55.395  49.629  0.00  0.00    +0.000 OA
ATOM      7  C   UNL     1     -11.520  56.276  49.932  0.00  0.00    +0.000 C 
ENDROOT
BRANCH   1  13
ATOM      8  S   UNL     1      -7.894  54.339  45.443  0.00  0.00    +0.000 S 
ATOM      9  O   UNL     1      -6.938  53.532  46.170  0.00  0.00    +0.000 OA
ATOM     10  O   UNL     1      -7.447  55.336  44.495  0.00  0.00    +0.000 OA
ATOM     11  N   UNL     1      -8.852  55.082  46.522  0.00  0.00    +0.000 N 
ATOM     12  C   UNL     1      -8.888  53.208  44.528  0.00  0.00    +0.000 A 
ATOM     13  C   UNL     1     -10.039  54.615  46.772  0.00  0.00    +0.000 C 
ATOM     14  C   UNL     1     -10.162  52.938  44.999  0.00  0.00    +0.000 A 
ATOM     15  C   UNL     1      -8.385  52.620  43.363  0.00  0.00    +0.000 A 
ATOM     16  N   UNL     1     -10.644  53.551  46.149  0.00  0.00    +0.000 N 
ATOM     17  C   UNL     1     -10.965  52.053  44.275  0.00  0.00    +0.000 A 
ATOM     18  C   UNL     1      -9.194  51.735  42.655  0.00  0.00    +0.000 A 
ATOM     19  C   UNL     1     -10.484  51.455  43.107  0.00  0.00    +0.000 A 
ATOM     20  H   UNL     1      -8.534  55.888  46.989  0.00  0.00    +0.000 HD
ATOM     21  H   UNL     1     -11.476  53.200  46.543  0.00  0.00    +0.000 HD
ENDBRANCH   1  13
BRANCH   7  22
ATOM     22  C   UNL     1     -11.881  55.495  51.258  0.00  0.00    +0.000 C 
ATOM     23  C   UNL     1     -10.647  55.324  52.181  0.00  0.00    +0.000 C 
ATOM     24  C   UNL     1     -12.912  56.259  52.118  0.00  0.00    +0.000 C 
ATOM     25  C   UNL     1     -12.431  54.088  50.958  0.00  0.00    +0.000 C 
ENDBRANCH   7  22
BRANCH   5  26
ATOM     26  C   UNL     1     -13.891  56.930  49.040  0.00  0.00    +0.000 C 
BRANCH  26  27
ATOM     27  C   UNL     1     -13.934  58.428  48.755  0.00  0.00    +0.000 C 
BRANCH  27  28
ATOM     28  C   UNL     1     -13.719  59.283  50.016  0.00  0.00    +0.000 C 
ATOM     29  C   UNL     1     -13.148  60.669  49.700  0.00  0.00    +0.000 C 
ATOM     30  C   UNL     1     -15.049  59.426  50.759  0.00  0.00    +0.000 C 
ENDBRANCH  27  28
ENDBRANCH  26  27
ENDBRANCH   5  26
TORSDOF 5
ENDMDL
MODEL 2
REMARK VINA RESULT:      -7.5      3.637      6.058
REMARK  Name = 
REMARK  10 active torsions:
REMARK  status: ('A' for Active; 'I' for Inactive)
REMARK    1  A    between atoms: C_6  and  C_10
REMARK    2  A    between atoms: N_17  and  C_20
REMARK    3  A    between atoms: C_19  and  C_21
REMARK    4  A    between atoms: C_20  and  C_22
REMARK    5  A    between atoms: C_21  and  C_23
REMARK    6  A    between atoms: C_21  and  C_24
REMARK    7  A    between atoms: C_21  and  C_25
REMARK    8  A    between atoms: C_22  and  C_26
REMARK    9  A    between atoms: C_26  and  C_27
REMARK   10  A    between atoms: C_26  and  C_28
REMARK                            x       y       z     vdW  Elec       q    Type
REMARK                         _______ _______ _______ _____ _____    ______ ____
ROOT
ATOM      1  C   UNL     1     -10.244  55.067  50.626  0.00  0.00    +0.000 C 
ATOM      2  C   UNL     1     -11.279  55.339  51.629  0.00  0.00    +0.000 C 
ATOM      3  C   UNL     1     -10.884  54.993  49.450  0.00  0.00    +0.000 C 
ATOM      4  O   UNL     1     -11.050  55.402  52.827  0.00  0.00    +0.000 OA
ATOM      5  N   UNL     1     -12.487  55.483  50.980  0.00  0.00    +0.000 N 
ATOM      6  O   UNL     1     -10.291  54.692  48.248  0.00  0.00    +0.000 OA
ATOM      7  C   UNL     1     -12.375  55.296  49.521  0.00  0.00    +0.000 C 
ENDROOT
BRANCH   1  13
ATOM      8  S   UNL     1      -6.460  54.280  50.179  0.00  0.00    +0.000 S 
ATOM      9  O   UNL     1      -5.837  55.375  49.468  0.00  0.00    +0.000 OA
ATOM     10  O   UNL     1      -6.091  52.910  49.894  0.00  0.00    +0.000 OA
ATOM     11  N   UNL     1      -8.068  54.404  49.990  0.00  0.00    +0.000 N 
ATOM     12  C   UNL     1      -6.097  54.538  51.884  0.00  0.00    +0.000 A 
ATOM     13  C   UNL     1      -8.799  54.909  50.938  0.00  0.00    +0.000 C 
ATOM     14  C   UNL     1      -7.104  55.036  52.693  0.00  0.00    +0.000 A 
ATOM     15  C   UNL     1      -4.825  54.235  52.380  0.00  0.00    +0.000 A 
ATOM     16  N   UNL     1      -8.365  55.310  52.178  0.00  0.00    +0.000 N 
ATOM     17  C   UNL     1      -6.832  55.232  54.049  0.00  0.00    +0.000 A 
ATOM     18  C   UNL     1      -4.566  54.442  53.732  0.00  0.00    +0.000 A 
ATOM     19  C   UNL     1      -5.569  54.936  54.568  0.00  0.00    +0.000 A 
ATOM     20  H   UNL     1      -8.490  54.096  49.155  0.00  0.00    +0.000 HD
ATOM     21  H   UNL     1      -8.990  55.824  52.739  0.00  0.00    +0.000 HD
ENDBRANCH   1  13
BRANCH   7  22
ATOM     22  C   UNL     1     -12.846  56.504  48.618  0.00  0.00    +0.000 C 
ATOM     23  C   UNL     1     -12.437  56.307  47.135  0.00  0.00    +0.000 C 
ATOM     24  C   UNL     1     -14.383  56.639  48.586  0.00  0.00    +0.000 C 
ATOM     25  C   UNL     1     -12.239  57.838  49.090  0.00  0.00    +0.000 C 
ENDBRANCH   7  22
BRANCH   5  26
ATOM     26  C   UNL     1     -13.700  55.742  51.734  0.00  0.00    +0.000 C 
BRANCH  26  27
ATOM     27  C   UNL     1     -13.715  57.097  52.434  0.00  0.00    +0.000 C 
BRANCH  27  28
ATOM     28  C   UNL     1     -15.068  57.819  52.311  0.00  0.00    +0.000 C 
ATOM     29  C   UNL     1     -14.988  59.081  51.446  0.00  0.00    +0.000 C 
ATOM     30  C   UNL     1     -16.102  56.855  51.730  0.00  0.00    +0.000 C 
ENDBRANCH  27  28
ENDBRANCH  26  27
ENDBRANCH   5  26
TORSDOF 5
ENDMDL
MODEL 3
REMARK VINA RESULT:      -7.3      2.777      7.762
REMARK  Name = 
REMARK  10 active torsions:
REMARK  status: ('A' for Active; 'I' for Inactive)
REMARK    1  A    between atoms: C_6  and  C_10
REMARK    2  A    between atoms: N_17  and  C_20
REMARK    3  A    between atoms: C_19  and  C_21
REMARK    4  A    between atoms: C_20  and  C_22
REMARK    5  A    between atoms: C_21  and  C_23
REMARK    6  A    between atoms: C_21  and  C_24
REMARK    7  A    between atoms: C_21  and  C_25
REMARK    8  A    between atoms: C_22  and  C_26
REMARK    9  A    between atoms: C_26  and  C_27
REMARK   10  A    between atoms: C_26  and  C_28
REMARK                            x       y       z     vdW  Elec       q    Type
REMARK                         _______ _______ _______ _____ _____    ______ ____
ROOT
ATOM      1  C   UNL     1     -12.281  55.264  48.697  0.00  0.00    +0.000 C 
ATOM      2  C   UNL     1     -11.885  55.223  47.285  0.00  0.00    +0.000 C 
ATOM      3  C   UNL     1     -11.901  54.089  49.219  0.00  0.00    +0.000 C 
ATOM      4  O   UNL     1     -12.143  56.115  46.492  0.00  0.00    +0.000 OA
ATOM      5  N   UNL     1     -11.220  54.037  47.055  0.00  0.00    +0.000 N 
ATOM      6  O   UNL     1     -12.137  53.687  50.512  0.00  0.00    +0.000 OA
ATOM      7  C   UNL     1     -11.139  53.186  48.256  0.00  0.00    +0.000 C 
ENDROOT
BRANCH   1  13
ATOM      8  S   UNL     1     -13.518  58.893  49.359  0.00  0.00    +0.000 S 
ATOM      9  O   UNL     1     -14.607  59.187  48.452  0.00  0.00    +0.000 OA
ATOM     10  O   UNL     1     -12.520  59.895  49.663  0.00  0.00    +0.000 OA
ATOM     11  N   UNL     1     -12.742  57.578  48.807  0.00  0.00    +0.000 N 
ATOM     12  C   UNL     1     -14.268  58.470  50.897  0.00  0.00    +0.000 A 
ATOM     13  C   UNL     1     -12.970  56.414  49.339  0.00  0.00    +0.000 C 
ATOM     14  C   UNL     1     -14.318  57.131  51.247  0.00  0.00    +0.000 A 
ATOM     15  C   UNL     1     -14.784  59.474  51.722  0.00  0.00    +0.000 A 
ATOM     16  N   UNL     1     -13.780  56.155  50.417  0.00  0.00    +0.000 N 
ATOM     17  C   UNL     1     -14.897  56.784  52.470  0.00  0.00    +0.000 A 
ATOM     18  C   UNL     1     -15.365  59.114  52.935  0.00  0.00    +0.000 A 
ATOM     19  C   UNL     1     -15.418  57.771  53.311  0.00  0.00    +0.000 A 
ATOM     20  H   UNL     1     -12.097  57.662  48.068  0.00  0.00    +0.000 HD
ATOM     21  H   UNL     1     -13.993  55.214  50.616  0.00  0.00    +0.000 HD
ENDBRANCH   1  13
BRANCH   7  22
ATOM     22  C   UNL     1      -9.689  52.785  48.739  0.00  0.00    +0.000 C 
ATOM     23  C   UNL     1      -9.729  51.933  50.034  0.00  0.00    +0.000 C 
ATOM     24  C   UNL     1      -8.960  51.897  47.708  0.00  0.00    +0.000 C 
ATOM     25  C   UNL     1      -8.822  54.024  49.030  0.00  0.00    +0.000 C 
ENDBRANCH   7  22
BRANCH   5  26
ATOM     26  C   UNL     1     -10.727  53.718  45.727  0.00  0.00    +0.000 C 
BRANCH  26  27
ATOM     27  C   UNL     1     -11.752  53.020  44.839  0.00  0.00    +0.000 C 
BRANCH  27  28
ATOM     28  C   UNL     1     -11.312  51.609  44.411  0.00  0.00    +0.000 C 
ATOM     29  C   UNL     1      -9.810  51.522  44.119  0.00  0.00    +0.000 C 
ATOM     30  C   UNL     1     -11.687  50.611  45.507  0.00  0.00    +0.000 C 
ENDBRANCH  27  28
ENDBRANCH  26  27
ENDBRANCH   5  26
TORSDOF 5
ENDMDL
MODEL 4
REMARK VINA RESULT:      -7.3      3.056      7.853
REMARK  Name = 
REMARK  10 active torsions:
REMARK  status: ('A' for Active; 'I' for Inactive)
REMARK    1  A    between atoms: C_6  and  C_10
REMARK    2  A    between atoms: N_17  and  C_20
REMARK    3  A    between atoms: C_19  and  C_21
REMARK    4  A    between atoms: C_20  and  C_22
REMARK    5  A    between atoms: C_21  and  C_23
REMARK    6  A    between atoms: C_21  and  C_24
REMARK    7  A    between atoms: C_21  and  C_25
REMARK    8  A    between atoms: C_22  and  C_26
REMARK    9  A    between atoms: C_26  and  C_27
REMARK   10  A    between atoms: C_26  and  C_28
REMARK                            x       y       z     vdW  Elec       q    Type
REMARK                         _______ _______ _______ _____ _____    ______ ____
ROOT
ATOM      1  C   UNL     1     -11.503  55.925  48.828  0.00  0.00    +0.000 C 
ATOM      2  C   UNL     1     -10.502  55.154  49.575  0.00  0.00    +0.000 C 
ATOM      3  C   UNL     1     -11.361  55.563  47.545  0.00  0.00    +0.000 C 
ATOM      4  O   UNL     1     -10.311  55.290  50.774  0.00  0.00    +0.000 OA
ATOM      5  N   UNL     1      -9.856  54.313  48.694  0.00  0.00    +0.000 N 
ATOM      6  O   UNL     1     -12.068  56.094  46.494  0.00  0.00    +0.000 OA
ATOM      7  C   UNL     1     -10.334  54.462  47.308  0.00  0.00    +0.000 C 
ENDROOT
BRANCH   1  13
ATOM      8  S   UNL     1     -13.523  59.193  49.436  0.00  0.00    +0.000 S 
ATOM      9  O   UNL     1     -14.633  59.236  48.508  0.00  0.00    +0.000 OA
ATOM     10  O   UNL     1     -12.777  60.392  49.749  0.00  0.00    +0.000 OA
ATOM     11  N   UNL     1     -12.465  58.080  48.909  0.00  0.00    +0.000 N 
ATOM     12  C   UNL     1     -14.190  58.622  50.965  0.00  0.00    +0.000 A 
ATOM     13  C   UNL     1     -12.441  56.897  49.447  0.00  0.00    +0.000 C 
ATOM     14  C   UNL     1     -13.950  57.307  51.325  0.00  0.00    +0.000 A 
ATOM     15  C   UNL     1     -14.931  59.492  51.771  0.00  0.00    +0.000 A 
ATOM     16  N   UNL     1     -13.194  56.470  50.513  0.00  0.00    +0.000 N 
ATOM     17  C   UNL     1     -14.461  56.847  52.541  0.00  0.00    +0.000 A 
ATOM     18  C   UNL     1     -15.441  59.017  52.977  0.00  0.00    +0.000 A 
ATOM     19  C   UNL     1     -15.203  57.698  53.364  0.00  0.00    +0.000 A 
ATOM     20  H   UNL     1     -11.841  58.302  48.181  0.00  0.00    +0.000 HD
ATOM     21  H   UNL     1     -13.197  55.506  50.716  0.00  0.00    +0.000 HD
ENDBRANCH   1  13
BRANCH   7  22
ATOM     22  C   UNL     1     -10.910  53.163  46.617  0.00  0.00    +0.000 C 
ATOM     23  C   UNL     1     -11.492  53.468  45.212  0.00  0.00    +0.000 C 
ATOM     24  C   UNL     1      -9.814  52.105  46.367  0.00  0.00    +0.000 C 
ATOM     25  C   UNL     1     -12.035  52.525  47.453  0.00  0.00    +0.000 C 
ENDBRANCH   7  22
BRANCH   5  26
ATOM     26  C   UNL     1      -8.793  53.439  49.159  0.00  0.00    +0.000 C 
BRANCH  26  27
ATOM     27  C   UNL     1      -7.391  53.935  48.818  0.00  0.00    +0.000 C 
BRANCH  27  28
ATOM     28  C   UNL     1      -6.603  54.399  50.055  0.00  0.00    +0.000 C 
ATOM     29  C   UNL     1      -5.097  54.152  49.923  0.00  0.00    +0.000 C 
ATOM     30  C   UNL     1      -6.868  55.887  50.291  0.00  0.00    +0.000 C 
ENDBRANCH  27  28
ENDBRANCH  26  27
ENDBRANCH   5  26
TORSDOF 5
ENDMDL
MODEL 5
REMARK VINA RESULT:      -7.2      2.892      7.735
REMARK  Name = 
REMARK  10 active torsions:
REMARK  status: ('A' for Active; 'I' for Inactive)
REMARK    1  A    between atoms: C_6  and  C_10
REMARK    2  A    between atoms: N_17  and  C_20
REMARK    3  A    between atoms: C_19  and  C_21
REMARK    4  A    between atoms: C_20  and  C_22
REMARK    5  A    between atoms: C_21  and  C_23
REMARK    6  A    between atoms: C_21  and  C_24
REMARK    7  A    between atoms: C_21  and  C_25
REMARK    8  A    between atoms: C_22  and  C_26
REMARK    9  A    between atoms: C_26  and  C_27
REMARK   10  A    between atoms: C_26  and  C_28
REMARK                            x       y       z     vdW  Elec       q    Type
REMARK                         _______ _______ _______ _____ _____    ______ ____
ROOT
ATOM      1  C   UNL     1     -12.125  54.687  48.497  0.00  0.00    +0.000 C 
ATOM      2  C   UNL     1     -11.579  54.904  47.152  0.00  0.00    +0.000 C 
ATOM      3  C   UNL     1     -11.715  53.465  48.865  0.00  0.00    +0.000 C 
ATOM      4  O   UNL     1     -11.818  55.901  46.487  0.00  0.00    +0.000 OA
ATOM      5  N   UNL     1     -10.807  53.813  46.815  0.00  0.00    +0.000 N 
ATOM      6  O   UNL     1     -12.056  52.840  50.041  0.00  0.00    +0.000 OA
ATOM      7  C   UNL     1     -10.790  52.780  47.867  0.00  0.00    +0.000 C 
ENDROOT
BRANCH   1  13
ATOM      8  S   UNL     1     -14.892  56.151  50.806  0.00  0.00    +0.000 S 
ATOM      9  O   UNL     1     -14.483  55.991  52.185  0.00  0.00    +0.000 OA
ATOM     10  O   UNL     1     -16.269  55.941  50.416  0.00  0.00    +0.000 OA
ATOM     11  N   UNL     1     -13.969  55.182  49.888  0.00  0.00    +0.000 N 
ATOM     12  C   UNL     1     -14.514  57.819  50.379  0.00  0.00    +0.000 A 
ATOM     13  C   UNL     1     -12.962  55.673  49.228  0.00  0.00    +0.000 C 
ATOM     14  C   UNL     1     -13.395  58.050  49.596  0.00  0.00    +0.000 A 
ATOM     15  C   UNL     1     -15.338  58.858  50.824  0.00  0.00    +0.000 A 
ATOM     16  N   UNL     1     -12.605  56.998  49.152  0.00  0.00    +0.000 N 
ATOM     17  C   UNL     1     -13.093  59.366  49.240  0.00  0.00    +0.000 A 
ATOM     18  C   UNL     1     -15.021  60.166  50.466  0.00  0.00    +0.000 A 
ATOM     19  C   UNL     1     -13.903  60.420  49.671  0.00  0.00    +0.000 A 
ATOM     20  H   UNL     1     -14.171  54.221  49.831  0.00  0.00    +0.000 HD
ATOM     21  H   UNL     1     -11.730  57.215  48.754  0.00  0.00    +0.000 HD
ENDBRANCH   1  13
BRANCH   7  22
ATOM     22  C   UNL     1      -9.374  52.386  48.445  0.00  0.00    +0.000 C 
ATOM     23  C   UNL     1      -8.423  51.865  47.337  0.00  0.00    +0.000 C 
ATOM     24  C   UNL     1      -8.638  53.600  49.054  0.00  0.00    +0.000 C 
ATOM     25  C   UNL     1      -9.481  51.284  49.515  0.00  0.00    +0.000 C 
ENDBRANCH   7  22
BRANCH   5  26
ATOM     26  C   UNL     1     -10.154  53.748  45.520  0.00  0.00    +0.000 C 
BRANCH  26  27
ATOM     27  C   UNL     1     -11.029  53.166  44.414  0.00  0.00    +0.000 C 
BRANCH  27  28
ATOM     28  C   UNL     1     -10.444  51.882  43.801  0.00  0.00    +0.000 C 
ATOM     29  C   UNL     1      -8.926  51.958  43.608  0.00  0.00    +0.000 C 
ATOM     30  C   UNL     1     -10.796  50.692  44.694  0.00  0.00    +0.000 C 
ENDBRANCH  27  28
ENDBRANCH  26  27
ENDBRANCH   5  26
TORSDOF 5
ENDMDL
MODEL 6
REMARK VINA RESULT:      -7.2      3.668      6.672
REMARK  Name = 
REMARK  10 active torsions:
REMARK  status: ('A' for Active; 'I' for Inactive)
REMARK    1  A    between atoms: C_6  and  C_10
REMARK    2  A    between atoms: N_17  and  C_20
REMARK    3  A    between atoms: C_19  and  C_21
REMARK    4  A    between atoms: C_20  and  C_22
REMARK    5  A    between atoms: C_21  and  C_23
REMARK    6  A    between atoms: C_21  and  C_24
REMARK    7  A    between atoms: C_21  and  C_25
REMARK    8  A    between atoms: C_22  and  C_26
REMARK    9  A    between atoms: C_26  and  C_27
REMARK   10  A    between atoms: C_26  and  C_28
REMARK                            x       y       z     vdW  Elec       q    Type
REMARK                         _______ _______ _______ _____ _____    ______ ____
ROOT
ATOM      1  C   UNL     1     -10.725  54.029  50.575  0.00  0.00    +0.000 C 
ATOM      2  C   UNL     1     -11.615  55.152  50.886  0.00  0.00    +0.000 C 
ATOM      3  C   UNL     1     -11.083  53.604  49.355  0.00  0.00    +0.000 C 
ATOM      4  O   UNL     1     -11.606  55.736  51.959  0.00  0.00    +0.000 OA
ATOM      5  N   UNL     1     -12.421  55.384  49.792  0.00  0.00    +0.000 N 
ATOM      6  O   UNL     1     -10.538  52.523  48.705  0.00  0.00    +0.000 OA
ATOM      7  C   UNL     1     -12.168  54.440  48.688  0.00  0.00    +0.000 C 
ENDROOT
BRANCH   1  13
ATOM      8  S   UNL     1      -8.554  51.563  52.659  0.00  0.00    +0.000 S 
ATOM      9  O   UNL     1      -7.626  50.894  51.772  0.00  0.00    +0.000 OA
ATOM     10  O   UNL     1      -9.205  50.838  53.728  0.00  0.00    +0.000 OA
ATOM     11  N   UNL     1      -9.714  52.248  51.754  0.00  0.00    +0.000 N 
ATOM     12  C   UNL     1      -7.639  52.856  53.433  0.00  0.00    +0.000 A 
ATOM     13  C   UNL     1      -9.669  53.520  51.490  0.00  0.00    +0.000 C 
ATOM     14  C   UNL     1      -7.842  54.150  52.985  0.00  0.00    +0.000 A 
ATOM     15  C   UNL     1      -6.747  52.557  54.468  0.00  0.00    +0.000 A 
ATOM     16  N   UNL     1      -8.749  54.421  51.968  0.00  0.00    +0.000 N 
ATOM     17  C   UNL     1      -7.133  55.185  53.600  0.00  0.00    +0.000 A 
ATOM     18  C   UNL     1      -6.042  53.598  55.067  0.00  0.00    +0.000 A 
ATOM     19  C   UNL     1      -6.238  54.911  54.637  0.00  0.00    +0.000 A 
ATOM     20  H   UNL     1     -10.452  51.700  51.403  0.00  0.00    +0.000 HD
ATOM     21  H   UNL     1      -8.732  55.319  51.563  0.00  0.00    +0.000 HD
ENDBRANCH   1  13
BRANCH   7  22
ATOM     22  C   UNL     1     -11.751  55.073  47.301  0.00  0.00    +0.000 C 
ATOM     23  C   UNL     1     -10.286  55.580  47.316  0.00  0.00    +0.000 C 
ATOM     24  C   UNL     1     -11.797  54.040  46.155  0.00  0.00    +0.000 C 
ATOM     25  C   UNL     1     -12.648  56.268  46.928  0.00  0.00    +0.000 C 
ENDBRANCH   7  22
BRANCH   5  26
ATOM     26  C   UNL     1     -13.421  56.436  49.826  0.00  0.00    +0.000 C 
BRANCH  26  27
ATOM     27  C   UNL     1     -14.745  56.010  50.451  0.00  0.00    +0.000 C 
BRANCH  27  28
ATOM     28  C   UNL     1     -15.456  57.158  51.190  0.00  0.00    +0.000 C 
ATOM     29  C   UNL     1     -15.268  57.088  52.709  0.00  0.00    +0.000 C 
ATOM     30  C   UNL     1     -14.933  58.495  50.662  0.00  0.00    +0.000 C 
ENDBRANCH  27  28
ENDBRANCH  26  27
ENDBRANCH   5  26
TORSDOF 5
ENDMDL
MODEL 7
REMARK VINA RESULT:      -7.0      2.499      3.440
REMARK  Name = 
REMARK  10 active torsions:
REMARK  status: ('A' for Active; 'I' for Inactive)
REMARK    1  A    between atoms: C_6  and  C_10
REMARK    2  A    between atoms: N_17  and  C_20
REMARK    3  A    between atoms: C_19  and  C_21
REMARK    4  A    between atoms: C_20  and  C_22
REMARK    5  A    between atoms: C_21  and  C_23
REMARK    6  A    between atoms: C_21  and  C_24
REMARK    7  A    between atoms: C_21  and  C_25
REMARK    8  A    between atoms: C_22  and  C_26
REMARK    9  A    between atoms: C_26  and  C_27
REMARK   10  A    between atoms: C_26  and  C_28
REMARK                            x       y       z     vdW  Elec       q    Type
REMARK                         _______ _______ _______ _____ _____    ______ ____
ROOT
ATOM      1  C   UNL     1     -10.493  55.849  48.618  0.00  0.00    +0.000 C 
ATOM      2  C   UNL     1     -11.668  56.213  47.818  0.00  0.00    +0.000 C 
ATOM      3  C   UNL     1     -10.791  56.187  49.880  0.00  0.00    +0.000 C 
ATOM      4  O   UNL     1     -11.710  56.100  46.602  0.00  0.00    +0.000 OA
ATOM      5  N   UNL     1     -12.641  56.692  48.668  0.00  0.00    +0.000 N 
ATOM      6  O   UNL     1      -9.936  56.069  50.950  0.00  0.00    +0.000 OA
ATOM      7  C   UNL     1     -12.205  56.717  50.077  0.00  0.00    +0.000 C 
ENDROOT
BRANCH   1  13
ATOM      8  S   UNL     1      -8.136  53.847  46.258  0.00  0.00    +0.000 S 
ATOM      9  O   UNL     1      -7.861  54.647  45.083  0.00  0.00    +0.000 OA
ATOM     10  O   UNL     1      -8.355  52.422  46.144  0.00  0.00    +0.000 OA
ATOM     11  N   UNL     1      -9.423  54.483  47.015  0.00  0.00    +0.000 N 
ATOM     12  C   UNL     1      -6.738  54.042  47.314  0.00  0.00    +0.000 A 
ATOM     13  C   UNL     1      -9.258  55.239  48.059  0.00  0.00    +0.000 C 
ATOM     14  C   UNL     1      -6.868  54.876  48.412  0.00  0.00    +0.000 A 
ATOM     15  C   UNL     1      -5.550  53.360  47.034  0.00  0.00    +0.000 A 
ATOM     16  N   UNL     1      -8.066  55.526  48.679  0.00  0.00    +0.000 N 
ATOM     17  C   UNL     1      -5.772  55.027  49.265  0.00  0.00    +0.000 A 
ATOM     18  C   UNL     1      -4.464  53.526  47.888  0.00  0.00    +0.000 A 
ATOM     19  C   UNL     1      -4.574  54.355  49.005  0.00  0.00    +0.000 A 
ATOM     20  H   UNL     1     -10.330  54.297  46.682  0.00  0.00    +0.000 HD
ATOM     21  H   UNL     1      -8.062  56.239  49.358  0.00  0.00    +0.000 HD
ENDBRANCH   1  13
BRANCH   7  22
ATOM     22  C   UNL     1     -13.081  55.892  51.101  0.00  0.00    +0.000 C 
ATOM     23  C   UNL     1     -14.540  55.719  50.603  0.00  0.00    +0.000 C 
ATOM     24  C   UNL     1     -12.556  54.451  51.283  0.00  0.00    +0.000 C 
ATOM     25  C   UNL     1     -13.143  56.576  52.479  0.00  0.00    +0.000 C 
ENDBRANCH   7  22
BRANCH   5  26
ATOM     26  C   UNL     1     -13.916  57.148  48.143  0.00  0.00    +0.000 C 
BRANCH  26  27
ATOM     27  C   UNL     1     -14.129  58.654  48.260  0.00  0.00    +0.000 C 
BRANCH  27  28
ATOM     28  C   UNL     1     -13.818  59.196  49.666  0.00  0.00    +0.000 C 
ATOM     29  C   UNL     1     -13.059  60.526  49.631  0.00  0.00    +0.000 C 
ATOM     30  C   UNL     1     -15.125  59.362  50.441  0.00  0.00    +0.000 C 
ENDBRANCH  27  28
ENDBRANCH  26  27
ENDBRANCH   5  26
TORSDOF 5
ENDMDL
MODEL 8
REMARK VINA RESULT:      -7.0      3.596      6.559
REMARK  Name = 
REMARK  10 active torsions:
REMARK  status: ('A' for Active; 'I' for Inactive)
REMARK    1  A    between atoms: C_6  and  C_10
REMARK    2  A    between atoms: N_17  and  C_20
REMARK    3  A    between atoms: C_19  and  C_21
REMARK    4  A    between atoms: C_20  and  C_22
REMARK    5  A    between atoms: C_21  and  C_23
REMARK    6  A    between atoms: C_21  and  C_24
REMARK    7  A    between atoms: C_21  and  C_25
REMARK    8  A    between atoms: C_22  and  C_26
REMARK    9  A    between atoms: C_26  and  C_27
REMARK   10  A    between atoms: C_26  and  C_28
REMARK                            x       y       z     vdW  Elec       q    Type
REMARK                         _______ _______ _______ _____ _____    ______ ____
ROOT
ATOM      1  C   UNL     1     -10.678  54.334  50.759  0.00  0.00    +0.000 C 
ATOM      2  C   UNL     1     -11.718  55.359  50.898  0.00  0.00    +0.000 C 
ATOM      3  C   UNL     1     -10.890  53.754  49.569  0.00  0.00    +0.000 C 
ATOM      4  O   UNL     1     -11.859  56.037  51.903  0.00  0.00    +0.000 OA
ATOM      5  N   UNL     1     -12.463  55.381  49.737  0.00  0.00    +0.000 N 
ATOM      6  O   UNL     1     -10.172  52.695  49.069  0.00  0.00    +0.000 OA
ATOM      7  C   UNL     1     -12.016  54.377  48.754  0.00  0.00    +0.000 C 
ENDROOT
BRANCH   1  13
ATOM      8  S   UNL     1      -7.405  54.633  52.842  0.00  0.00    +0.000 S 
ATOM      9  O   UNL     1      -7.547  55.728  53.779  0.00  0.00    +0.000 OA
ATOM     10  O   UNL     1      -6.153  54.407  52.156  0.00  0.00    +0.000 OA
ATOM     11  N   UNL     1      -8.564  54.780  51.714  0.00  0.00    +0.000 N 
ATOM     12  C   UNL     1      -7.730  53.164  53.761  0.00  0.00    +0.000 A 
ATOM     13  C   UNL     1      -9.639  54.054  51.785  0.00  0.00    +0.000 C 
ATOM     14  C   UNL     1      -8.961  52.552  53.589  0.00  0.00    +0.000 A 
ATOM     15  C   UNL     1      -6.757  52.651  54.624  0.00  0.00    +0.000 A 
ATOM     16  N   UNL     1      -9.901  53.072  52.710  0.00  0.00    +0.000 N 
ATOM     17  C   UNL     1      -9.224  51.379  54.301  0.00  0.00    +0.000 A 
ATOM     18  C   UNL     1      -7.037  51.486  55.333  0.00  0.00    +0.000 A 
ATOM     19  C   UNL     1      -8.266  50.847  55.169  0.00  0.00    +0.000 A 
ATOM     20  H   UNL     1      -8.451  55.420  50.975  0.00  0.00    +0.000 HD
ATOM     21  H   UNL     1     -10.818  52.713  52.750  0.00  0.00    +0.000 HD
ENDBRANCH   1  13
BRANCH   7  22
ATOM     22  C   UNL     1     -11.578  54.925  47.338  0.00  0.00    +0.000 C 
ATOM     23  C   UNL     1     -12.468  56.107  46.876  0.00  0.00    +0.000 C 
ATOM     24  C   UNL     1     -10.144  55.497  47.356  0.00  0.00    +0.000 C 
ATOM     25  C   UNL     1     -11.663  53.834  46.254  0.00  0.00    +0.000 C 
ENDBRANCH   7  22
BRANCH   5  26
ATOM     26  C   UNL     1     -13.583  56.295  49.601  0.00  0.00    +0.000 C 
BRANCH  26  27
ATOM     27  C   UNL     1     -14.777  55.945  50.483  0.00  0.00    +0.000 C 
BRANCH  27  28
ATOM     28  C   UNL     1     -15.419  57.180  51.139  0.00  0.00    +0.000 C 
ATOM     29  C   UNL     1     -15.466  57.080  52.667  0.00  0.00    +0.000 C 
ATOM     30  C   UNL     1     -14.644  58.430  50.723  0.00  0.00    +0.000 C 
ENDBRANCH  27  28
ENDBRANCH  26  27
ENDBRANCH   5  26
TORSDOF 5
ENDMDL
MODEL 9
REMARK VINA RESULT:      -7.0      2.997      7.900
REMARK  Name = 
REMARK  10 active torsions:
REMARK  status: ('A' for Active; 'I' for Inactive)
REMARK    1  A    between atoms: C_6  and  C_10
REMARK    2  A    between atoms: N_17  and  C_20
REMARK    3  A    between atoms: C_19  and  C_21
REMARK    4  A    between atoms: C_20  and  C_22
REMARK    5  A    between atoms: C_21  and  C_23
REMARK    6  A    between atoms: C_21  and  C_24
REMARK    7  A    between atoms: C_21  and  C_25
REMARK    8  A    between atoms: C_22  and  C_26
REMARK    9  A    between atoms: C_26  and  C_27
REMARK   10  A    between atoms: C_26  and  C_28
REMARK                            x       y       z     vdW  Elec       q    Type
REMARK                         _______ _______ _______ _____ _____    ______ ____
ROOT
ATOM      1  C   UNL     1     -11.103  55.438  48.479  0.00  0.00    +0.000 C 
ATOM      2  C   UNL     1      -9.889  54.775  48.970  0.00  0.00    +0.000 C 
ATOM      3  C   UNL     1     -11.130  55.219  47.156  0.00  0.00    +0.000 C 
ATOM      4  O   UNL     1      -9.519  54.833  50.132  0.00  0.00    +0.000 OA
ATOM      5  N   UNL     1      -9.287  54.131  47.910  0.00  0.00    +0.000 N 
ATOM      6  O   UNL     1     -12.075  55.720  46.294  0.00  0.00    +0.000 OA
ATOM      7  C   UNL     1     -10.010  54.324  46.640  0.00  0.00    +0.000 C 
ENDROOT
BRANCH   1  13
ATOM      8  S   UNL     1     -13.566  56.249  51.378  0.00  0.00    +0.000 S 
ATOM      9  O   UNL     1     -12.803  56.509  52.580  0.00  0.00    +0.000 OA
ATOM     10  O   UNL     1     -14.801  55.498  51.437  0.00  0.00    +0.000 OA
ATOM     11  N   UNL     1     -12.592  55.510  50.311  0.00  0.00    +0.000 N 
ATOM     12  C   UNL     1     -13.988  57.829  50.720  0.00  0.00    +0.000 A 
ATOM     13  C   UNL     1     -12.053  56.187  49.342  0.00  0.00    +0.000 C 
ATOM     14  C   UNL     1     -13.276  58.284  49.623  0.00  0.00    +0.000 A 
ATOM     15  C   UNL     1     -15.016  58.576  51.302  0.00  0.00    +0.000 A 
ATOM     16  N   UNL     1     -12.272  57.512  49.051  0.00  0.00    +0.000 N 
ATOM     17  C   UNL     1     -13.610  59.528  49.083  0.00  0.00    +0.000 A 
ATOM     18  C   UNL     1     -15.333  59.818  50.758  0.00  0.00    +0.000 A 
ATOM     19  C   UNL     1     -14.635  60.293  49.647  0.00  0.00    +0.000 A 
ATOM     20  H   UNL     1     -12.410  54.547  50.397  0.00  0.00    +0.000 HD
ATOM     21  H   UNL     1     -11.678  57.942  48.394  0.00  0.00    +0.000 HD
ENDBRANCH   1  13
BRANCH   7  22
ATOM     22  C   UNL     1     -10.501  53.016  45.903  0.00  0.00    +0.000 C 
ATOM     23  C   UNL     1      -9.313  52.127  45.453  0.00  0.00    +0.000 C 
ATOM     24  C   UNL     1     -11.341  52.109  46.829  0.00  0.00    +0.000 C 
ATOM     25  C   UNL     1     -11.330  53.346  44.647  0.00  0.00    +0.000 C 
ENDBRANCH   7  22
BRANCH   5  26
ATOM     26  C   UNL     1      -8.046  53.402  48.103  0.00  0.00    +0.000 C 
BRANCH  26  27
ATOM     27  C   UNL     1      -6.799  54.192  47.718  0.00  0.00    +0.000 C 
BRANCH  27  28
ATOM     28  C   UNL     1      -5.576  53.838  48.581  0.00  0.00    +0.000 C 
ATOM     29  C   UNL     1      -4.383  53.358  47.748  0.00  0.00    +0.000 C 
ATOM     30  C   UNL     1      -5.174  55.059  49.409  0.00  0.00    +0.000 C 
ENDBRANCH  27  28
ENDBRANCH  26  27
ENDBRANCH   5  26
TORSDOF 5
ENDMDL
