MODEL 1
REMARK VINA RESULT:      -8.4      0.000      0.000
REMARK  Name = 
REMARK  7 active torsions:
REMARK  status: ('A' for Active; 'I' for Inactive)
REMARK    1  A    between atoms: C_6  and  C_10
REMARK    2  A    between atoms: N_17  and  C_20
REMARK    3  A    between atoms: C_19  and  C_21
REMARK    4  A    between atoms: C_20  and  C_22
REMARK    5  A    between atoms: C_21  and  C_23
REMARK    6  A    between atoms: C_21  and  C_24
REMARK    7  A    between atoms: C_21  and  C_25
REMARK                            x       y       z     vdW  Elec       q    Type
REMARK                         _______ _______ _______ _____ _____    ______ ____
ROOT
ATOM      1  C   UNL     1     -12.182  54.552  50.154  0.00  0.00    +0.000 C 
ATOM      2  C   UNL     1     -11.932  54.181  48.760  0.00  0.00    +0.000 C 
ATOM      3  C   UNL     1     -11.603  53.599  50.894  0.00  0.00    +0.000 C 
ATOM      4  O   UNL     1     -12.449  54.754  47.812  0.00  0.00    +0.000 OA
ATOM      5  N   UNL     1     -11.070  53.103  48.741  0.00  0.00    +0.000 N 
ATOM      6  O   UNL     1     -11.660  53.527  52.265  0.00  0.00    +0.000 OA
ATOM      7  C   UNL     1     -10.820  52.564  50.090  0.00  0.00    +0.000 C 
ENDROOT
BRANCH   1  13
ATOM      8  S   UNL     1     -14.398  56.930  52.300  0.00  0.00    +0.000 S 
ATOM      9  O   UNL     1     -13.595  57.438  53.396  0.00  0.00    +0.000 OA
ATOM     10  O   UNL     1     -15.783  56.559  52.516  0.00  0.00    +0.000 OA
ATOM     11  N   UNL     1     -13.638  55.641  51.673  0.00  0.00    +0.000 N 
ATOM     12  C   UNL     1     -14.417  58.200  51.084  0.00  0.00    +0.000 A 
ATOM     13  C   UNL     1     -12.946  55.757  50.579  0.00  0.00    +0.000 C 
ATOM     14  C   UNL     1     -13.612  58.033  49.967  0.00  0.00    +0.000 A 
ATOM     15  C   UNL     1     -15.224  59.327  51.259  0.00  0.00    +0.000 A 
ATOM     16  N   UNL     1     -12.843  56.887  49.801  0.00  0.00    +0.000 N 
ATOM     17  C   UNL     1     -13.616  59.039  48.996  0.00  0.00    +0.000 A 
ATOM     18  C   UNL     1     -15.223  60.319  50.280  0.00  0.00    +0.000 A 
ATOM     19  C   UNL     1     -14.419  60.175  49.149  0.00  0.00    +0.000 A 
ATOM     20  H   UNL     1     -13.701  54.768  52.123  0.00  0.00    +0.000 HD
ATOM     21  H   UNL     1     -12.178  56.885  49.075  0.00  0.00    +0.000 HD
ENDBRANCH   1  13
BRANCH   7  22
ATOM     22  C   UNL     1      -9.305  52.421  50.513  0.00  0.00    +0.000 C 
ATOM     23  C   UNL     1      -9.158  51.730  51.893  0.00  0.00    +0.000 C 
ATOM     24  C   UNL     1      -8.514  51.515  49.548  0.00  0.00    +0.000 C 
ATOM     25  C   UNL     1      -8.611  53.795  50.584  0.00  0.00    +0.000 C 
ENDBRANCH   7  22
BRANCH   5  26
ATOM     26  C   UNL     1     -10.774  52.447  47.476  0.00  0.00    +0.000 C 
BRANCH  26  27
ATOM     27  C   UNL     1      -9.839  53.219  46.584  0.00  0.00    +0.000 A 
ATOM     28  C   UNL     1      -9.088  54.289  47.100  0.00  0.00    +0.000 A 
ATOM     29  C   UNL     1      -9.663  52.848  45.241  0.00  0.00    +0.000 A 
ATOM     30  C   UNL     1      -8.191  54.984  46.289  0.00  0.00    +0.000 A 
ATOM     31  C   UNL     1      -8.771  53.545  44.428  0.00  0.00    +0.000 A 
ATOM     32  C   UNL     1      -8.049  54.611  44.957  0.00  0.00    +0.000 A 
ATOM     33  F   UNL     1      -7.191  55.276  44.175  0.00  0.00    +0.000 F 
ENDBRANCH  26  27
ENDBRANCH   5  26
TORSDOF 4
ENDMDL
MODEL 2
REMARK VINA RESULT:      -8.2      2.102      2.765
REMARK  Name = 
REMARK  7 active torsions:
REMARK  status: ('A' for Active; 'I' for Inactive)
REMARK    1  A    between atoms: C_6  and  C_10
REMARK    2  A    between atoms: N_17  and  C_20
REMARK    3  A    between atoms: C_19  and  C_21
REMARK    4  A    between atoms: C_20  and  C_22
REMARK    5  A    between atoms: C_21  and  C_23
REMARK    6  A    between atoms: C_21  and  C_24
REMARK    7  A    between atoms: C_21  and  C_25
REMARK                            x       y       z     vdW  Elec       q    Type
REMARK                         _______ _______ _______ _____ _____    ______ ____
ROOT
ATOM      1  C   UNL     1     -11.114  54.775  49.783  0.00  0.00    +0.000 C 
ATOM      2  C   UNL     1     -11.154  53.715  48.773  0.00  0.00    +0.000 C 
ATOM      3  C   UNL     1      -9.944  54.632  50.416  0.00  0.00    +0.000 C 
ATOM      4  O   UNL     1     -12.149  53.459  48.112  0.00  0.00    +0.000 OA
ATOM      5  N   UNL     1      -9.924  53.090  48.746  0.00  0.00    +0.000 N 
ATOM      6  O   UNL     1      -9.534  55.387  51.488  0.00  0.00    +0.000 OA
ATOM      7  C   UNL     1      -9.039  53.550  49.832  0.00  0.00    +0.000 C 
ENDROOT
BRANCH   1  13
ATOM      8  S   UNL     1     -13.947  57.347  49.055  0.00  0.00    +0.000 S 
ATOM      9  O   UNL     1     -15.123  56.620  48.616  0.00  0.00    +0.000 OA
ATOM     10  O   UNL     1     -13.583  58.602  48.425  0.00  0.00    +0.000 OA
ATOM     11  N   UNL     1     -12.669  56.353  48.945  0.00  0.00    +0.000 N 
ATOM     12  C   UNL     1     -14.211  57.714  50.755  0.00  0.00    +0.000 A 
ATOM     13  C   UNL     1     -12.204  55.765  50.006  0.00  0.00    +0.000 C 
ATOM     14  C   UNL     1     -13.526  56.954  51.691  0.00  0.00    +0.000 A 
ATOM     15  C   UNL     1     -15.083  58.742  51.124  0.00  0.00    +0.000 A 
ATOM     16  N   UNL     1     -12.639  55.958  51.297  0.00  0.00    +0.000 N 
ATOM     17  C   UNL     1     -13.732  57.234  53.045  0.00  0.00    +0.000 A 
ATOM     18  C   UNL     1     -15.273  59.014  52.477  0.00  0.00    +0.000 A 
ATOM     19  C   UNL     1     -14.598  58.260  53.437  0.00  0.00    +0.000 A 
ATOM     20  H   UNL     1     -12.246  56.196  48.071  0.00  0.00    +0.000 HD
ATOM     21  H   UNL     1     -12.299  55.349  51.991  0.00  0.00    +0.000 HD
ENDBRANCH   1  13
BRANCH   7  22
ATOM     22  C   UNL     1      -7.609  54.060  49.397  0.00  0.00    +0.000 C 
ATOM     23  C   UNL     1      -6.767  54.514  50.616  0.00  0.00    +0.000 C 
ATOM     24  C   UNL     1      -6.766  52.945  48.747  0.00  0.00    +0.000 C 
ATOM     25  C   UNL     1      -7.711  55.241  48.412  0.00  0.00    +0.000 C 
ENDBRANCH   7  22
BRANCH   5  26
ATOM     26  C   UNL     1      -9.745  51.902  47.925  0.00  0.00    +0.000 C 
BRANCH  26  27
ATOM     27  C   UNL     1      -9.843  52.154  46.444  0.00  0.00    +0.000 A 
ATOM     28  C   UNL     1      -8.994  53.088  45.825  0.00  0.00    +0.000 A 
ATOM     29  C   UNL     1     -10.744  51.423  45.653  0.00  0.00    +0.000 A 
ATOM     30  C   UNL     1      -9.054  53.298  44.447  0.00  0.00    +0.000 A 
ATOM     31  C   UNL     1     -10.808  51.637  44.277  0.00  0.00    +0.000 A 
ATOM     32  C   UNL     1      -9.968  52.578  43.688  0.00  0.00    +0.000 A 
ATOM     33  F   UNL     1     -10.029  52.778  42.367  0.00  0.00    +0.000 F 
ENDBRANCH  26  27
ENDBRANCH   5  26
TORSDOF 4
ENDMDL
MODEL 3
REMARK VINA RESULT:      -8.1      3.558      4.841
REMARK  Name = 
REMARK  7 active torsions:
REMARK  status: ('A' for Active; 'I' for Inactive)
REMARK    1  A    between atoms: C_6  and  C_10
REMARK    2  A    between atoms: N_17  and  C_20
REMARK    3  A    between atoms: C_19  and  C_21
REMARK    4  A    between atoms: C_20  and  C_22
REMARK    5  A    between atoms: C_21  and  C_23
REMARK    6  A    between atoms: C_21  and  C_24
REMARK    7  A    between atoms: C_21  and  C_25
REMARK                            x       y       z     vdW  Elec       q    Type
REMARK                         _______ _______ _______ _____ _____    ______ ____
ROOT
ATOM      1  C   UNL     1     -10.886  54.954  50.594  0.00  0.00    +0.000 C 
ATOM      2  C   UNL     1      -9.477  55.318  50.427  0.00  0.00    +0.000 C 
ATOM      3  C   UNL     1     -10.904  53.623  50.734  0.00  0.00    +0.000 C 
ATOM      4  O   UNL     1      -9.110  56.443  50.124  0.00  0.00    +0.000 OA
ATOM      5  N   UNL     1      -8.706  54.193  50.640  0.00  0.00    +0.000 N 
ATOM      6  O   UNL     1     -12.042  52.862  50.848  0.00  0.00    +0.000 OA
ATOM      7  C   UNL     1      -9.523  52.975  50.787  0.00  0.00    +0.000 C 
ENDROOT
BRANCH   1  13
ATOM      8  S   UNL     1     -13.566  57.461  49.290  0.00  0.00    +0.000 S 
ATOM      9  O   UNL     1     -14.627  56.706  48.652  0.00  0.00    +0.000 OA
ATOM     10  O   UNL     1     -13.107  58.710  48.715  0.00  0.00    +0.000 OA
ATOM     11  N   UNL     1     -12.276  56.489  49.445  0.00  0.00    +0.000 N 
ATOM     12  C   UNL     1     -14.152  57.852  50.901  0.00  0.00    +0.000 A 
ATOM     13  C   UNL     1     -12.012  55.927  50.587  0.00  0.00    +0.000 C 
ATOM     14  C   UNL     1     -13.646  57.122  51.966  0.00  0.00    +0.000 A 
ATOM     15  C   UNL     1     -15.093  58.871  51.078  0.00  0.00    +0.000 A 
ATOM     16  N   UNL     1     -12.687  56.135  51.768  0.00  0.00    +0.000 N 
ATOM     17  C   UNL     1     -14.109  57.422  53.251  0.00  0.00    +0.000 A 
ATOM     18  C   UNL     1     -15.540  59.164  52.365  0.00  0.00    +0.000 A 
ATOM     19  C   UNL     1     -15.048  58.439  53.450  0.00  0.00    +0.000 A 
ATOM     20  H   UNL     1     -11.693  56.323  48.670  0.00  0.00    +0.000 HD
ATOM     21  H   UNL     1     -12.475  55.545  52.526  0.00  0.00    +0.000 HD
ENDBRANCH   1  13
BRANCH   7  22
ATOM     22  C   UNL     1      -9.257  52.111  52.082  0.00  0.00    +0.000 C 
ATOM     23  C   UNL     1     -10.143  50.839  52.114  0.00  0.00    +0.000 C 
ATOM     24  C   UNL     1      -7.814  51.571  52.135  0.00  0.00    +0.000 C 
ATOM     25  C   UNL     1      -9.529  52.923  53.363  0.00  0.00    +0.000 C 
ENDBRANCH   7  22
BRANCH   5  26
ATOM     26  C   UNL     1      -7.273  54.253  50.390  0.00  0.00    +0.000 C 
BRANCH  26  27
ATOM     27  C   UNL     1      -6.447  54.564  51.610  0.00  0.00    +0.000 A 
ATOM     28  C   UNL     1      -7.006  55.281  52.682  0.00  0.00    +0.000 A 
ATOM     29  C   UNL     1      -5.128  54.096  51.718  0.00  0.00    +0.000 A 
ATOM     30  C   UNL     1      -6.259  55.540  53.831  0.00  0.00    +0.000 A 
ATOM     31  C   UNL     1      -4.378  54.358  52.863  0.00  0.00    +0.000 A 
ATOM     32  C   UNL     1      -4.948  55.085  53.906  0.00  0.00    +0.000 A 
ATOM     33  F   UNL     1      -4.227  55.331  55.005  0.00  0.00    +0.000 F 
ENDBRANCH  26  27
ENDBRANCH   5  26
TORSDOF 4
ENDMDL
MODEL 4
REMARK VINA RESULT:      -8.1      2.473      3.923
REMARK  Name = 
REMARK  7 active torsions:
REMARK  status: ('A' for Active; 'I' for Inactive)
REMARK    1  A    between atoms: C_6  and  C_10
REMARK    2  A    between atoms: N_17  and  C_20
REMARK    3  A    between atoms: C_19  and  C_21
REMARK    4  A    between atoms: C_20  and  C_22
REMARK    5  A    between atoms: C_21  and  C_23
REMARK    6  A    between atoms: C_21  and  C_24
REMARK    7  A    between atoms: C_21  and  C_25
REMARK                            x       y       z     vdW  Elec       q    Type
REMARK                         _______ _______ _______ _____ _____    ______ ____
ROOT
ATOM      1  C   UNL     1     -11.605  55.669  48.900  0.00  0.00    +0.000 C 
ATOM      2  C   UNL     1     -10.759  54.757  49.673  0.00  0.00    +0.000 C 
ATOM      3  C   UNL     1     -11.393  55.361  47.615  0.00  0.00    +0.000 C 
ATOM      4  O   UNL     1     -10.593  54.861  50.879  0.00  0.00    +0.000 OA
ATOM      5  N   UNL     1     -10.204  53.835  48.809  0.00  0.00    +0.000 N 
ATOM      6  O   UNL     1     -11.943  56.028  46.547  0.00  0.00    +0.000 OA
ATOM      7  C   UNL     1     -10.482  54.155  47.397  0.00  0.00    +0.000 C 
ENDROOT
BRANCH   1  13
ATOM      8  S   UNL     1     -13.486  59.042  49.409  0.00  0.00    +0.000 S 
ATOM      9  O   UNL     1     -14.588  59.098  48.467  0.00  0.00    +0.000 OA
ATOM     10  O   UNL     1     -12.697  60.226  49.686  0.00  0.00    +0.000 OA
ATOM     11  N   UNL     1     -12.467  57.875  48.925  0.00  0.00    +0.000 N 
ATOM     12  C   UNL     1     -14.188  58.552  50.945  0.00  0.00    +0.000 A 
ATOM     13  C   UNL     1     -12.486  56.709  49.498  0.00  0.00    +0.000 C 
ATOM     14  C   UNL     1     -13.999  57.239  51.350  0.00  0.00    +0.000 A 
ATOM     15  C   UNL     1     -14.905  59.473  51.714  0.00  0.00    +0.000 A 
ATOM     16  N   UNL     1     -13.254  56.351  50.582  0.00  0.00    +0.000 N 
ATOM     17  C   UNL     1     -14.556  56.838  52.568  0.00  0.00    +0.000 A 
ATOM     18  C   UNL     1     -15.449  59.061  52.929  0.00  0.00    +0.000 A 
ATOM     19  C   UNL     1     -15.275  57.744  53.355  0.00  0.00    +0.000 A 
ATOM     20  H   UNL     1     -11.832  58.053  48.194  0.00  0.00    +0.000 HD
ATOM     21  H   UNL     1     -13.278  55.399  50.832  0.00  0.00    +0.000 HD
ENDBRANCH   1  13
BRANCH   7  22
ATOM     22  C   UNL     1     -11.127  52.999  46.535  0.00  0.00    +0.000 C 
ATOM     23  C   UNL     1     -11.677  53.529  45.186  0.00  0.00    +0.000 C 
ATOM     24  C   UNL     1     -10.094  51.929  46.130  0.00  0.00    +0.000 C 
ATOM     25  C   UNL     1     -12.281  52.313  47.292  0.00  0.00    +0.000 C 
ENDBRANCH   7  22
BRANCH   5  26
ATOM     26  C   UNL     1      -9.205  52.902  49.306  0.00  0.00    +0.000 C 
BRANCH  26  27
ATOM     27  C   UNL     1      -7.782  53.339  49.075  0.00  0.00    +0.000 A 
ATOM     28  C   UNL     1      -7.125  54.142  50.022  0.00  0.00    +0.000 A 
ATOM     29  C   UNL     1      -7.077  52.906  47.941  0.00  0.00    +0.000 A 
ATOM     30  C   UNL     1      -5.795  54.519  49.833  0.00  0.00    +0.000 A 
ATOM     31  C   UNL     1      -5.750  53.286  47.749  0.00  0.00    +0.000 A 
ATOM     32  C   UNL     1      -5.123  54.096  48.693  0.00  0.00    +0.000 A 
ATOM     33  F   UNL     1      -3.849  54.456  48.507  0.00  0.00    +0.000 F 
ENDBRANCH  26  27
ENDBRANCH   5  26
TORSDOF 4
ENDMDL
MODEL 5
REMARK VINA RESULT:      -8.1      1.632      2.145
REMARK  Name = 
REMARK  7 active torsions:
REMARK  status: ('A' for Active; 'I' for Inactive)
REMARK    1  A    between atoms: C_6  and  C_10
REMARK    2  A    between atoms: N_17  and  C_20
REMARK    3  A    between atoms: C_19  and  C_21
REMARK    4  A    between atoms: C_20  and  C_22
REMARK    5  A    between atoms: C_21  and  C_23
REMARK    6  A    between atoms: C_21  and  C_24
REMARK    7  A    between atoms: C_21  and  C_25
REMARK                            x       y       z     vdW  Elec       q    Type
REMARK                         _______ _______ _______ _____ _____    ______ ____
ROOT
ATOM      1  C   UNL     1     -11.320  55.149  49.987  0.00  0.00    +0.000 C 
ATOM      2  C   UNL     1     -11.622  54.012  49.115  0.00  0.00    +0.000 C 
ATOM      3  C   UNL     1     -10.011  55.068  50.250  0.00  0.00    +0.000 C 
ATOM      4  O   UNL     1     -12.759  53.694  48.801  0.00  0.00    +0.000 OA
ATOM      5  N   UNL     1     -10.435  53.399  48.767  0.00  0.00    +0.000 N 
ATOM      6  O   UNL     1      -9.327  55.910  51.094  0.00  0.00    +0.000 OA
ATOM      7  C   UNL     1      -9.284  53.952  49.504  0.00  0.00    +0.000 C 
ENDROOT
BRANCH   1  13
ATOM      8  S   UNL     1     -14.091  56.839  52.141  0.00  0.00    +0.000 S 
ATOM      9  O   UNL     1     -13.476  57.366  53.344  0.00  0.00    +0.000 OA
ATOM     10  O   UNL     1     -15.391  56.201  52.200  0.00  0.00    +0.000 OA
ATOM     11  N   UNL     1     -13.057  55.786  51.466  0.00  0.00    +0.000 N 
ATOM     12  C   UNL     1     -14.268  58.206  51.049  0.00  0.00    +0.000 A 
ATOM     13  C   UNL     1     -12.327  56.142  50.452  0.00  0.00    +0.000 C 
ATOM     14  C   UNL     1     -13.372  58.309  49.995  0.00  0.00    +0.000 A 
ATOM     15  C   UNL     1     -15.286  59.142  51.255  0.00  0.00    +0.000 A 
ATOM     16  N   UNL     1     -12.388  57.348  49.793  0.00  0.00    +0.000 N 
ATOM     17  C   UNL     1     -13.502  59.395  49.124  0.00  0.00    +0.000 A 
ATOM     18  C   UNL     1     -15.407  60.215  50.375  0.00  0.00    +0.000 A 
ATOM     19  C   UNL     1     -14.515  60.342  49.310  0.00  0.00    +0.000 A 
ATOM     20  H   UNL     1     -12.983  54.873  51.828  0.00  0.00    +0.000 HD
ATOM     21  H   UNL     1     -11.687  57.544  49.131  0.00  0.00    +0.000 HD
ENDBRANCH   1  13
BRANCH   7  22
ATOM     22  C   UNL     1      -8.065  54.441  48.626  0.00  0.00    +0.000 C 
ATOM     23  C   UNL     1      -7.081  55.313  49.447  0.00  0.00    +0.000 C 
ATOM     24  C   UNL     1      -7.203  53.266  48.123  0.00  0.00    +0.000 C 
ATOM     25  C   UNL     1      -8.542  55.261  47.412  0.00  0.00    +0.000 C 
ENDBRANCH   7  22
BRANCH   5  26
ATOM     26  C   UNL     1     -10.468  52.151  48.019  0.00  0.00    +0.000 C 
BRANCH  26  27
ATOM     27  C   UNL     1     -10.350  52.322  46.528  0.00  0.00    +0.000 A 
ATOM     28  C   UNL     1      -9.375  51.611  45.807  0.00  0.00    +0.000 A 
ATOM     29  C   UNL     1     -11.246  53.148  45.831  0.00  0.00    +0.000 A 
ATOM     30  C   UNL     1      -9.286  51.735  44.421  0.00  0.00    +0.000 A 
ATOM     31  C   UNL     1     -11.154  53.277  44.446  0.00  0.00    +0.000 A 
ATOM     32  C   UNL     1     -10.170  52.575  43.754  0.00  0.00    +0.000 A 
ATOM     33  F   UNL     1     -10.086  52.698  42.425  0.00  0.00    +0.000 F 
ENDBRANCH  26  27
ENDBRANCH   5  26
TORSDOF 4
ENDMDL
MODEL 6
REMARK VINA RESULT:      -8.0      1.764      2.443
REMARK  Name = 
REMARK  7 active torsions:
REMARK  status: ('A' for Active; 'I' for Inactive)
REMARK    1  A    between atoms: C_6  and  C_10
REMARK    2  A    between atoms: N_17  and  C_20
REMARK    3  A    between atoms: C_19  and  C_21
REMARK    4  A    between atoms: C_20  and  C_22
REMARK    5  A    between atoms: C_21  and  C_23
REMARK    6  A    between atoms: C_21  and  C_24
REMARK    7  A    between atoms: C_21  and  C_25
REMARK                            x       y       z     vdW  Elec       q    Type
REMARK                         _______ _______ _______ _____ _____    ______ ____
ROOT
ATOM      1  C   UNL     1     -11.258  55.027  50.135  0.00  0.00    +0.000 C 
ATOM      2  C   UNL     1     -11.122  54.227  48.916  0.00  0.00    +0.000 C 
ATOM      3  C   UNL     1     -10.368  54.527  51.000  0.00  0.00    +0.000 C 
ATOM      4  O   UNL     1     -11.890  54.316  47.969  0.00  0.00    +0.000 OA
ATOM      5  N   UNL     1     -10.036  53.388  49.061  0.00  0.00    +0.000 N 
ATOM      6  O   UNL     1     -10.215  54.948  52.299  0.00  0.00    +0.000 OA
ATOM      7  C   UNL     1      -9.477  53.428  50.425  0.00  0.00    +0.000 C 
ENDROOT
BRANCH   1  13
ATOM      8  S   UNL     1     -13.315  58.248  49.382  0.00  0.00    +0.000 S 
ATOM      9  O   UNL     1     -14.345  57.917  48.417  0.00  0.00    +0.000 OA
ATOM     10  O   UNL     1     -12.600  59.506  49.291  0.00  0.00    +0.000 OA
ATOM     11  N   UNL     1     -12.213  57.056  49.374  0.00  0.00    +0.000 N 
ATOM     12  C   UNL     1     -14.106  58.250  50.953  0.00  0.00    +0.000 A 
ATOM     13  C   UNL     1     -12.225  56.147  50.302  0.00  0.00    +0.000 C 
ATOM     14  C   UNL     1     -13.891  57.160  51.783  0.00  0.00    +0.000 A 
ATOM     15  C   UNL     1     -14.917  59.324  51.329  0.00  0.00    +0.000 A 
ATOM     16  N   UNL     1     -13.054  56.118  51.399  0.00  0.00    +0.000 N 
ATOM     17  C   UNL     1     -14.519  57.149  53.032  0.00  0.00    +0.000 A 
ATOM     18  C   UNL     1     -15.531  59.303  52.580  0.00  0.00    +0.000 A 
ATOM     19  C   UNL     1     -15.332  58.216  53.431  0.00  0.00    +0.000 A 
ATOM     20  H   UNL     1     -11.535  57.023  48.661  0.00  0.00    +0.000 HD
ATOM     21  H   UNL     1     -13.056  55.304  51.951  0.00  0.00    +0.000 HD
ENDBRANCH   1  13
BRANCH   7  22
ATOM     22  C   UNL     1      -7.929  53.721  50.535  0.00  0.00    +0.000 C 
ATOM     23  C   UNL     1      -7.094  52.710  49.708  0.00  0.00    +0.000 C 
ATOM     24  C   UNL     1      -7.554  55.096  49.945  0.00  0.00    +0.000 C 
ATOM     25  C   UNL     1      -7.450  53.663  51.998  0.00  0.00    +0.000 C 
ENDBRANCH   7  22
BRANCH   5  26
ATOM     26  C   UNL     1      -9.770  52.382  48.044  0.00  0.00    +0.000 C 
BRANCH  26  27
ATOM     27  C   UNL     1      -9.293  52.943  46.731  0.00  0.00    +0.000 A 
ATOM     28  C   UNL     1      -8.431  54.052  46.705  0.00  0.00    +0.000 A 
ATOM     29  C   UNL     1      -9.659  52.335  45.519  0.00  0.00    +0.000 A 
ATOM     30  C   UNL     1      -7.955  54.554  45.493  0.00  0.00    +0.000 A 
ATOM     31  C   UNL     1      -9.188  52.838  44.308  0.00  0.00    +0.000 A 
ATOM     32  C   UNL     1      -8.347  53.948  44.305  0.00  0.00    +0.000 A 
ATOM     33  F   UNL     1      -7.894  54.427  43.141  0.00  0.00    +0.000 F 
ENDBRANCH  26  27
ENDBRANCH   5  26
TORSDOF 4
ENDMDL
MODEL 7
REMARK VINA RESULT:      -7.9      3.673      7.662
REMARK  Name = 
REMARK  7 active torsions:
REMARK  status: ('A' for Active; 'I' for Inactive)
REMARK    1  A    between atoms: C_6  and  C_10
REMARK    2  A    between atoms: N_17  and  C_20
REMARK    3  A    between atoms: C_19  and  C_21
REMARK    4  A    between atoms: C_20  and  C_22
REMARK    5  A    between atoms: C_21  and  C_23
REMARK    6  A    between atoms: C_21  and  C_24
REMARK    7  A    between atoms: C_21  and  C_25
REMARK                            x       y       z     vdW  Elec       q    Type
REMARK                         _______ _______ _______ _____ _____    ______ ____
ROOT
ATOM      1  C   UNL     1     -10.105  54.519  48.720  0.00  0.00    +0.000 C 
ATOM      2  C   UNL     1     -11.472  54.344  49.216  0.00  0.00    +0.000 C 
ATOM      3  C   UNL     1      -9.439  55.139  49.701  0.00  0.00    +0.000 C 
ATOM      4  O   UNL     1     -12.390  53.944  48.515  0.00  0.00    +0.000 OA
ATOM      5  N   UNL     1     -11.510  54.725  50.542  0.00  0.00    +0.000 N 
ATOM      6  O   UNL     1      -8.132  55.556  49.621  0.00  0.00    +0.000 OA
ATOM      7  C   UNL     1     -10.245  55.341  50.982  0.00  0.00    +0.000 C 
ENDROOT
BRANCH   1  13
ATOM      8  S   UNL     1      -7.853  54.110  45.568  0.00  0.00    +0.000 S 
ATOM      9  O   UNL     1      -6.763  53.212  45.898  0.00  0.00    +0.000 OA
ATOM     10  O   UNL     1      -7.616  55.279  44.744  0.00  0.00    +0.000 OA
ATOM     11  N   UNL     1      -8.529  54.615  46.955  0.00  0.00    +0.000 N 
ATOM     12  C   UNL     1      -9.038  53.138  44.706  0.00  0.00    +0.000 A 
ATOM     13  C   UNL     1      -9.634  54.080  47.378  0.00  0.00    +0.000 C 
ATOM     14  C   UNL     1     -10.176  52.749  45.395  0.00  0.00    +0.000 A 
ATOM     15  C   UNL     1      -8.818  52.785  43.371  0.00  0.00    +0.000 A 
ATOM     16  N   UNL     1     -10.387  53.140  46.712  0.00  0.00    +0.000 N 
ATOM     17  C   UNL     1     -11.122  51.972  44.719  0.00  0.00    +0.000 A 
ATOM     18  C   UNL     1      -9.772  52.016  42.709  0.00  0.00    +0.000 A 
ATOM     19  C   UNL     1     -10.924  51.609  43.383  0.00  0.00    +0.000 A 
ATOM     20  H   UNL     1      -8.097  55.330  47.477  0.00  0.00    +0.000 HD
ATOM     21  H   UNL     1     -11.127  52.714  47.202  0.00  0.00    +0.000 HD
ENDBRANCH   1  13
BRANCH   7  22
ATOM     22  C   UNL     1      -9.581  54.721  52.274  0.00  0.00    +0.000 C 
ATOM     23  C   UNL     1      -8.250  55.430  52.632  0.00  0.00    +0.000 C 
ATOM     24  C   UNL     1     -10.461  54.909  53.527  0.00  0.00    +0.000 C 
ATOM     25  C   UNL     1      -9.295  53.218  52.091  0.00  0.00    +0.000 C 
ENDBRANCH   7  22
BRANCH   5  26
ATOM     26  C   UNL     1     -12.790  54.783  51.231  0.00  0.00    +0.000 C 
BRANCH  26  27
ATOM     27  C   UNL     1     -13.397  56.160  51.291  0.00  0.00    +0.000 A 
ATOM     28  C   UNL     1     -13.856  56.784  50.118  0.00  0.00    +0.000 A 
ATOM     29  C   UNL     1     -13.562  56.816  52.521  0.00  0.00    +0.000 A 
ATOM     30  C   UNL     1     -14.455  58.043  50.171  0.00  0.00    +0.000 A 
ATOM     31  C   UNL     1     -14.155  58.076  52.575  0.00  0.00    +0.000 A 
ATOM     32  C   UNL     1     -14.589  58.681  51.398  0.00  0.00    +0.000 A 
ATOM     33  F   UNL     1     -15.161  59.889  51.453  0.00  0.00    +0.000 F 
ENDBRANCH  26  27
ENDBRANCH   5  26
TORSDOF 4
ENDMDL
MODEL 8
REMARK VINA RESULT:      -7.9      3.137      5.140
REMARK  Name = 
REMARK  7 active torsions:
REMARK  status: ('A' for Active; 'I' for Inactive)
REMARK    1  A    between atoms: C_6  and  C_10
REMARK    2  A    between atoms: N_17  and  C_20
REMARK    3  A    between atoms: C_19  and  C_21
REMARK    4  A    between atoms: C_20  and  C_22
REMARK    5  A    between atoms: C_21  and  C_23
REMARK    6  A    between atoms: C_21  and  C_24
REMARK    7  A    between atoms: C_21  and  C_25
REMARK                            x       y       z     vdW  Elec       q    Type
REMARK                         _______ _______ _______ _____ _____    ______ ____
ROOT
ATOM      1  C   UNL     1     -10.697  55.195  50.475  0.00  0.00    +0.000 C 
ATOM      2  C   UNL     1     -10.299  54.322  51.581  0.00  0.00    +0.000 C 
ATOM      3  C   UNL     1      -9.760  55.039  49.533  0.00  0.00    +0.000 C 
ATOM      4  O   UNL     1     -10.853  54.329  52.671  0.00  0.00    +0.000 OA
ATOM      5  N   UNL     1      -9.224  53.560  51.173  0.00  0.00    +0.000 N 
ATOM      6  O   UNL     1      -9.716  55.734  48.349  0.00  0.00    +0.000 OA
ATOM      7  C   UNL     1      -8.712  53.977  49.855  0.00  0.00    +0.000 C 
ENDROOT
BRANCH   1  13
ATOM      8  S   UNL     1     -13.665  57.372  49.199  0.00  0.00    +0.000 S 
ATOM      9  O   UNL     1     -14.682  56.489  48.662  0.00  0.00    +0.000 OA
ATOM     10  O   UNL     1     -13.355  58.623  48.535  0.00  0.00    +0.000 OA
ATOM     11  N   UNL     1     -12.283  56.531  49.330  0.00  0.00    +0.000 N 
ATOM     12  C   UNL     1     -14.200  57.799  50.819  0.00  0.00    +0.000 A 
ATOM     13  C   UNL     1     -11.909  56.060  50.482  0.00  0.00    +0.000 C 
ATOM     14  C   UNL     1     -13.573  57.178  51.889  0.00  0.00    +0.000 A 
ATOM     15  C   UNL     1     -15.222  58.736  50.996  0.00  0.00    +0.000 A 
ATOM     16  N   UNL     1     -12.537  56.273  51.687  0.00  0.00    +0.000 N 
ATOM     17  C   UNL     1     -13.994  57.506  53.181  0.00  0.00    +0.000 A 
ATOM     18  C   UNL     1     -15.626  59.059  52.290  0.00  0.00    +0.000 A 
ATOM     19  C   UNL     1     -15.013  58.444  53.382  0.00  0.00    +0.000 A 
ATOM     20  H   UNL     1     -11.728  56.376  48.532  0.00  0.00    +0.000 HD
ATOM     21  H   UNL     1     -12.232  55.747  52.462  0.00  0.00    +0.000 HD
ENDBRANCH   1  13
BRANCH   7  22
ATOM     22  C   UNL     1      -8.581  52.840  48.767  0.00  0.00    +0.000 C 
ATOM     23  C   UNL     1      -8.226  53.418  47.373  0.00  0.00    +0.000 C 
ATOM     24  C   UNL     1      -7.427  51.866  49.079  0.00  0.00    +0.000 C 
ATOM     25  C   UNL     1      -9.888  52.033  48.638  0.00  0.00    +0.000 C 
ENDBRANCH   7  22
BRANCH   5  26
ATOM     26  C   UNL     1      -8.543  52.709  52.138  0.00  0.00    +0.000 C 
BRANCH  26  27
ATOM     27  C   UNL     1      -7.386  53.372  52.837  0.00  0.00    +0.000 A 
ATOM     28  C   UNL     1      -6.085  53.259  52.317  0.00  0.00    +0.000 A 
ATOM     29  C   UNL     1      -7.596  54.154  53.983  0.00  0.00    +0.000 A 
ATOM     30  C   UNL     1      -5.013  53.902  52.937  0.00  0.00    +0.000 A 
ATOM     31  C   UNL     1      -6.525  54.793  54.607  0.00  0.00    +0.000 A 
ATOM     32  C   UNL     1      -5.243  54.654  54.083  0.00  0.00    +0.000 A 
ATOM     33  F   UNL     1      -4.218  55.271  54.681  0.00  0.00    +0.000 F 
ENDBRANCH  26  27
ENDBRANCH   5  26
TORSDOF 4
ENDMDL
MODEL 9
REMARK VINA RESULT:      -7.9      2.925      4.759
REMARK  Name = 
REMARK  7 active torsions:
REMARK  status: ('A' for Active; 'I' for Inactive)
REMARK    1  A    between atoms: C_6  and  C_10
REMARK    2  A    between atoms: N_17  and  C_20
REMARK    3  A    between atoms: C_19  and  C_21
REMARK    4  A    between atoms: C_20  and  C_22
REMARK    5  A    between atoms: C_21  and  C_23
REMARK    6  A    between atoms: C_21  and  C_24
REMARK    7  A    between atoms: C_21  and  C_25
REMARK                            x       y       z     vdW  Elec       q    Type
REMARK                         _______ _______ _______ _____ _____    ______ ____
ROOT
ATOM      1  C   UNL     1     -11.438  56.006  48.799  0.00  0.00    +0.000 C 
ATOM      2  C   UNL     1     -10.343  55.325  49.494  0.00  0.00    +0.000 C 
ATOM      3  C   UNL     1     -11.377  55.590  47.529  0.00  0.00    +0.000 C 
ATOM      4  O   UNL     1     -10.014  55.589  50.641  0.00  0.00    +0.000 OA
ATOM      5  N   UNL     1      -9.781  54.405  48.632  0.00  0.00    +0.000 N 
ATOM      6  O   UNL     1     -12.188  56.042  46.516  0.00  0.00    +0.000 OA
ATOM      7  C   UNL     1     -10.323  54.518  47.266  0.00  0.00    +0.000 C 
ENDROOT
BRANCH   1  13
ATOM      8  S   UNL     1     -13.530  59.226  49.454  0.00  0.00    +0.000 S 
ATOM      9  O   UNL     1     -14.644  59.244  48.526  0.00  0.00    +0.000 OA
ATOM     10  O   UNL     1     -12.817  60.449  49.767  0.00  0.00    +0.000 OA
ATOM     11  N   UNL     1     -12.442  58.148  48.916  0.00  0.00    +0.000 N 
ATOM     12  C   UNL     1     -14.178  58.635  50.978  0.00  0.00    +0.000 A 
ATOM     13  C   UNL     1     -12.377  56.963  49.445  0.00  0.00    +0.000 C 
ATOM     14  C   UNL     1     -13.898  57.324  51.331  0.00  0.00    +0.000 A 
ATOM     15  C   UNL     1     -14.944  59.478  51.788  0.00  0.00    +0.000 A 
ATOM     16  N   UNL     1     -13.106  56.516  50.523  0.00  0.00    +0.000 N 
ATOM     17  C   UNL     1     -14.412  56.843  52.539  0.00  0.00    +0.000 A 
ATOM     18  C   UNL     1     -15.444  58.987  52.992  0.00  0.00    +0.000 A 
ATOM     19  C   UNL     1     -15.179  57.670  53.367  0.00  0.00    +0.000 A 
ATOM     20  H   UNL     1     -11.830  58.394  48.185  0.00  0.00    +0.000 HD
ATOM     21  H   UNL     1     -13.065  55.556  50.738  0.00  0.00    +0.000 HD
ENDBRANCH   1  13
BRANCH   7  22
ATOM     22  C   UNL     1     -10.891  53.188  46.630  0.00  0.00    +0.000 C 
ATOM     23  C   UNL     1     -11.371  53.408  45.173  0.00  0.00    +0.000 C 
ATOM     24  C   UNL     1      -9.812  52.092  46.512  0.00  0.00    +0.000 C 
ATOM     25  C   UNL     1     -12.071  52.634  47.451  0.00  0.00    +0.000 C 
ENDBRANCH   7  22
BRANCH   5  26
ATOM     26  C   UNL     1      -8.576  53.695  49.032  0.00  0.00    +0.000 C 
BRANCH  26  27
ATOM     27  C   UNL     1      -8.773  52.746  50.185  0.00  0.00    +0.000 A 
ATOM     28  C   UNL     1      -7.944  52.824  51.317  0.00  0.00    +0.000 A 
ATOM     29  C   UNL     1      -9.818  51.809  50.168  0.00  0.00    +0.000 A 
ATOM     30  C   UNL     1      -8.145  51.973  52.405  0.00  0.00    +0.000 A 
ATOM     31  C   UNL     1     -10.017  50.955  51.252  0.00  0.00    +0.000 A 
ATOM     32  C   UNL     1      -9.173  51.039  52.357  0.00  0.00    +0.000 A 
ATOM     33  F   UNL     1      -9.369  50.221  53.397  0.00  0.00    +0.000 F 
ENDBRANCH  26  27
ENDBRANCH   5  26
TORSDOF 4
ENDMDL
