MODEL 1
REMARK VINA RESULT:      -7.5      0.000      0.000
REMARK  Name = 
REMARK  9 active torsions:
REMARK  status: ('A' for Active; 'I' for Inactive)
REMARK    1  A    between atoms: C_6  and  C_10
REMARK    2  A    between atoms: N_17  and  C_20
REMARK    3  A    between atoms: C_19  and  C_21
REMARK    4  A    between atoms: C_20  and  C_22
REMARK    5  A    between atoms: C_21  and  C_23
REMARK    6  A    between atoms: C_21  and  C_24
REMARK    7  A    between atoms: C_22  and  C_25
REMARK    8  A    between atoms: C_25  and  C_26
REMARK    9  A    between atoms: C_25  and  C_27
REMARK                            x       y       z     vdW  Elec       q    Type
REMARK                         _______ _______ _______ _____ _____    ______ ____
ROOT
ATOM      1  C   UNL     1     -10.854  55.223  47.951  0.00  0.00    +0.000 C 
ATOM      2  C   UNL     1     -12.169  55.863  47.804  0.00  0.00    +0.000 C 
ATOM      3  C   UNL     1     -10.499  55.385  49.232  0.00  0.00    +0.000 C 
ATOM      4  O   UNL     1     -12.775  55.925  46.746  0.00  0.00    +0.000 OA
ATOM      5  N   UNL     1     -12.539  56.354  49.036  0.00  0.00    +0.000 N 
ATOM      6  O   UNL     1      -9.311  54.993  49.796  0.00  0.00    +0.000 OA
ATOM      7  C   UNL     1     -11.544  56.076  50.070  0.00  0.00    +0.000 C 
ENDROOT
BRANCH   1  13
ATOM      8  S   UNL     1      -7.963  54.338  45.513  0.00  0.00    +0.000 S 
ATOM      9  O   UNL     1      -6.995  53.497  46.188  0.00  0.00    +0.000 OA
ATOM     10  O   UNL     1      -7.521  55.387  44.615  0.00  0.00    +0.000 OA
ATOM     11  N   UNL     1      -8.908  55.023  46.636  0.00  0.00    +0.000 N 
ATOM     12  C   UNL     1      -8.958  53.260  44.549  0.00  0.00    +0.000 A 
ATOM     13  C   UNL     1     -10.104  54.567  46.853  0.00  0.00    +0.000 C 
ATOM     14  C   UNL     1     -10.237  52.977  45.005  0.00  0.00    +0.000 A 
ATOM     15  C   UNL     1      -8.453  52.721  43.362  0.00  0.00    +0.000 A 
ATOM     16  N   UNL     1     -10.728  53.551  46.172  0.00  0.00    +0.000 N 
ATOM     17  C   UNL     1     -11.031  52.111  44.248  0.00  0.00    +0.000 A 
ATOM     18  C   UNL     1      -9.258  51.866  42.616  0.00  0.00    +0.000 A 
ATOM     19  C   UNL     1     -10.545  51.561  43.058  0.00  0.00    +0.000 A 
ATOM     20  H   UNL     1      -8.574  55.789  47.156  0.00  0.00    +0.000 HD
ATOM     21  H   UNL     1     -11.577  53.208  46.532  0.00  0.00    +0.000 HD
ENDBRANCH   1  13
BRANCH   7  22
ATOM     22  C   UNL     1     -12.088  55.250  51.264  0.00  0.00    +0.000 C 
ATOM     23  C   UNL     1     -11.199  55.376  52.508  0.00  0.00    +0.000 C 
ATOM     24  C   UNL     1     -12.299  53.766  50.940  0.00  0.00    +0.000 C 
ENDBRANCH   7  22
BRANCH   5  25
ATOM     25  C   UNL     1     -13.814  57.007  49.270  0.00  0.00    +0.000 C 
BRANCH  25  26
ATOM     26  C   UNL     1     -13.737  58.101  50.329  0.00  0.00    +0.000 C 
BRANCH  26  27
ATOM     27  C   UNL     1     -14.819  57.958  51.414  0.00  0.00    +0.000 C 
ATOM     28  C   UNL     1     -15.679  56.709  51.211  0.00  0.00    +0.000 C 
ATOM     29  C   UNL     1     -14.160  57.915  52.793  0.00  0.00    +0.000 C 
ENDBRANCH  26  27
ENDBRANCH  25  26
ENDBRANCH   5  25
TORSDOF 5
ENDMDL
MODEL 2
REMARK VINA RESULT:      -7.5      2.697      4.255
REMARK  Name = 
REMARK  9 active torsions:
REMARK  status: ('A' for Active; 'I' for Inactive)
REMARK    1  A    between atoms: C_6  and  C_10
REMARK    2  A    between atoms: N_17  and  C_20
REMARK    3  A    between atoms: C_19  and  C_21
REMARK    4  A    between atoms: C_20  and  C_22
REMARK    5  A    between atoms: C_21  and  C_23
REMARK    6  A    between atoms: C_21  and  C_24
REMARK    7  A    between atoms: C_22  and  C_25
REMARK    8  A    between atoms: C_25  and  C_26
REMARK    9  A    between atoms: C_25  and  C_27
REMARK                            x       y       z     vdW  Elec       q    Type
REMARK                         _______ _______ _______ _____ _____    ______ ____
ROOT
ATOM      1  C   UNL     1     -10.978  55.252  48.680  0.00  0.00    +0.000 C 
ATOM      2  C   UNL     1     -11.506  55.104  50.043  0.00  0.00    +0.000 C 
ATOM      3  C   UNL     1     -11.993  55.703  47.931  0.00  0.00    +0.000 C 
ATOM      4  O   UNL     1     -10.847  54.682  50.980  0.00  0.00    +0.000 OA
ATOM      5  N   UNL     1     -12.822  55.510  50.032  0.00  0.00    +0.000 N 
ATOM      6  O   UNL     1     -11.960  55.926  46.578  0.00  0.00    +0.000 OA
ATOM      7  C   UNL     1     -13.256  55.960  48.712  0.00  0.00    +0.000 C 
ENDROOT
BRANCH   1  13
ATOM      8  S   UNL     1      -8.007  53.939  46.552  0.00  0.00    +0.000 S 
ATOM      9  O   UNL     1      -7.712  54.881  45.490  0.00  0.00    +0.000 OA
ATOM     10  O   UNL     1      -7.966  52.513  46.296  0.00  0.00    +0.000 OA
ATOM     11  N   UNL     1      -9.473  54.287  47.144  0.00  0.00    +0.000 N 
ATOM     12  C   UNL     1      -6.825  54.241  47.814  0.00  0.00    +0.000 A 
ATOM     13  C   UNL     1      -9.592  54.925  48.268  0.00  0.00    +0.000 C 
ATOM     14  C   UNL     1      -7.247  54.917  48.949  0.00  0.00    +0.000 A 
ATOM     15  C   UNL     1      -5.509  53.799  47.655  0.00  0.00    +0.000 A 
ATOM     16  N   UNL     1      -8.570  55.317  49.098  0.00  0.00    +0.000 N 
ATOM     17  C   UNL     1      -6.309  55.169  49.954  0.00  0.00    +0.000 A 
ATOM     18  C   UNL     1      -4.588  54.052  48.667  0.00  0.00    +0.000 A 
ATOM     19  C   UNL     1      -4.987  54.737  49.814  0.00  0.00    +0.000 A 
ATOM     20  H   UNL     1     -10.279  54.014  46.648  0.00  0.00    +0.000 HD
ATOM     21  H   UNL     1      -8.788  55.919  49.845  0.00  0.00    +0.000 HD
ENDBRANCH   1  13
BRANCH   7  22
ATOM     22  C   UNL     1     -13.769  57.423  48.681  0.00  0.00    +0.000 C 
ATOM     23  C   UNL     1     -14.227  57.847  47.279  0.00  0.00    +0.000 C 
ATOM     24  C   UNL     1     -12.753  58.441  49.212  0.00  0.00    +0.000 C 
ENDBRANCH   7  22
BRANCH   5  25
ATOM     25  C   UNL     1     -13.643  55.543  51.229  0.00  0.00    +0.000 C 
BRANCH  25  26
ATOM     26  C   UNL     1     -13.256  56.666  52.185  0.00  0.00    +0.000 C 
BRANCH  26  27
ATOM     27  C   UNL     1     -14.475  57.423  52.740  0.00  0.00    +0.000 C 
ATOM     28  C   UNL     1     -14.384  58.930  52.488  0.00  0.00    +0.000 C 
ATOM     29  C   UNL     1     -15.754  56.868  52.111  0.00  0.00    +0.000 C 
ENDBRANCH  26  27
ENDBRANCH  25  26
ENDBRANCH   5  25
TORSDOF 5
ENDMDL
MODEL 3
REMARK VINA RESULT:      -7.2      3.741      5.993
REMARK  Name = 
REMARK  9 active torsions:
REMARK  status: ('A' for Active; 'I' for Inactive)
REMARK    1  A    between atoms: C_6  and  C_10
REMARK    2  A    between atoms: N_17  and  C_20
REMARK    3  A    between atoms: C_19  and  C_21
REMARK    4  A    between atoms: C_20  and  C_22
REMARK    5  A    between atoms: C_21  and  C_23
REMARK    6  A    between atoms: C_21  and  C_24
REMARK    7  A    between atoms: C_22  and  C_25
REMARK    8  A    between atoms: C_25  and  C_26
REMARK    9  A    between atoms: C_25  and  C_27
REMARK                            x       y       z     vdW  Elec       q    Type
REMARK                         _______ _______ _______ _____ _____    ______ ____
ROOT
ATOM      1  C   UNL     1     -10.216  55.265  50.448  0.00  0.00    +0.000 C 
ATOM      2  C   UNL     1     -11.343  55.319  51.389  0.00  0.00    +0.000 C 
ATOM      3  C   UNL     1     -10.743  55.388  49.223  0.00  0.00    +0.000 C 
ATOM      4  O   UNL     1     -11.219  55.207  52.598  0.00  0.00    +0.000 OA
ATOM      5  N   UNL     1     -12.496  55.501  50.657  0.00  0.00    +0.000 N 
ATOM      6  O   UNL     1     -10.053  55.330  48.038  0.00  0.00    +0.000 OA
ATOM      7  C   UNL     1     -12.236  55.597  49.222  0.00  0.00    +0.000 C 
ENDROOT
BRANCH   1  13
ATOM      8  S   UNL     1      -6.424  54.467  50.184  0.00  0.00    +0.000 S 
ATOM      9  O   UNL     1      -5.733  55.578  49.563  0.00  0.00    +0.000 OA
ATOM     10  O   UNL     1      -6.065  53.103  49.849  0.00  0.00    +0.000 OA
ATOM     11  N   UNL     1      -8.010  54.637  49.904  0.00  0.00    +0.000 N 
ATOM     12  C   UNL     1      -6.157  54.630  51.912  0.00  0.00    +0.000 A 
ATOM     13  C   UNL     1      -8.796  55.083  50.836  0.00  0.00    +0.000 C 
ATOM     14  C   UNL     1      -7.207  55.094  52.689  0.00  0.00    +0.000 A 
ATOM     15  C   UNL     1      -4.916  54.291  52.459  0.00  0.00    +0.000 A 
ATOM     16  N   UNL     1      -8.442  55.394  52.126  0.00  0.00    +0.000 N 
ATOM     17  C   UNL     1      -6.998  55.236  54.064  0.00  0.00    +0.000 A 
ATOM     18  C   UNL     1      -4.725  54.431  53.830  0.00  0.00    +0.000 A 
ATOM     19  C   UNL     1      -5.764  54.904  54.631  0.00  0.00    +0.000 A 
ATOM     20  H   UNL     1      -8.379  54.402  49.022  0.00  0.00    +0.000 HD
ATOM     21  H   UNL     1      -9.104  55.858  52.686  0.00  0.00    +0.000 HD
ENDBRANCH   1  13
BRANCH   7  22
ATOM     22  C   UNL     1     -12.719  56.923  48.580  0.00  0.00    +0.000 C 
ATOM     23  C   UNL     1     -12.478  58.131  49.496  0.00  0.00    +0.000 C 
ATOM     24  C   UNL     1     -14.192  56.898  48.153  0.00  0.00    +0.000 C 
ENDBRANCH   7  22
BRANCH   5  25
ATOM     25  C   UNL     1     -13.801  55.650  51.273  0.00  0.00    +0.000 C 
BRANCH  25  26
ATOM     26  C   UNL     1     -13.854  56.785  52.290  0.00  0.00    +0.000 C 
BRANCH  26  27
ATOM     27  C   UNL     1     -15.214  57.504  52.311  0.00  0.00    +0.000 C 
ATOM     28  C   UNL     1     -15.078  59.006  52.046  0.00  0.00    +0.000 C 
ATOM     29  C   UNL     1     -16.142  56.877  51.271  0.00  0.00    +0.000 C 
ENDBRANCH  26  27
ENDBRANCH  25  26
ENDBRANCH   5  25
TORSDOF 5
ENDMDL
MODEL 4
REMARK VINA RESULT:      -7.0      2.717      7.799
REMARK  Name = 
REMARK  9 active torsions:
REMARK  status: ('A' for Active; 'I' for Inactive)
REMARK    1  A    between atoms: C_6  and  C_10
REMARK    2  A    between atoms: N_17  and  C_20
REMARK    3  A    between atoms: C_19  and  C_21
REMARK    4  A    between atoms: C_20  and  C_22
REMARK    5  A    between atoms: C_21  and  C_23
REMARK    6  A    between atoms: C_21  and  C_24
REMARK    7  A    between atoms: C_22  and  C_25
REMARK    8  A    between atoms: C_25  and  C_26
REMARK    9  A    between atoms: C_25  and  C_27
REMARK                            x       y       z     vdW  Elec       q    Type
REMARK                         _______ _______ _______ _____ _____    ______ ____
ROOT
ATOM      1  C   UNL     1     -12.374  55.074  48.720  0.00  0.00    +0.000 C 
ATOM      2  C   UNL     1     -12.010  54.971  47.300  0.00  0.00    +0.000 C 
ATOM      3  C   UNL     1     -12.023  53.911  49.283  0.00  0.00    +0.000 C 
ATOM      4  O   UNL     1     -12.221  55.854  46.483  0.00  0.00    +0.000 OA
ATOM      5  N   UNL     1     -11.429  53.739  47.102  0.00  0.00    +0.000 N 
ATOM      6  O   UNL     1     -12.236  53.550  50.590  0.00  0.00    +0.000 OA
ATOM      7  C   UNL     1     -11.345  52.957  48.334  0.00  0.00    +0.000 C 
ENDROOT
BRANCH   1  13
ATOM      8  S   UNL     1     -13.496  58.743  49.325  0.00  0.00    +0.000 S 
ATOM      9  O   UNL     1     -14.585  59.075  48.428  0.00  0.00    +0.000 OA
ATOM     10  O   UNL     1     -12.450  59.710  49.595  0.00  0.00    +0.000 OA
ATOM     11  N   UNL     1     -12.784  57.395  48.779  0.00  0.00    +0.000 N 
ATOM     12  C   UNL     1     -14.234  58.378  50.875  0.00  0.00    +0.000 A 
ATOM     13  C   UNL     1     -13.024  56.252  49.345  0.00  0.00    +0.000 C 
ATOM     14  C   UNL     1     -14.318  57.048  51.256  0.00  0.00    +0.000 A 
ATOM     15  C   UNL     1     -14.710  59.417  51.681  0.00  0.00    +0.000 A 
ATOM     16  N   UNL     1     -13.808  56.035  50.452  0.00  0.00    +0.000 N 
ATOM     17  C   UNL     1     -14.913  56.750  52.485  0.00  0.00    +0.000 A 
ATOM     18  C   UNL     1     -15.294  59.105  52.904  0.00  0.00    +0.000 A 
ATOM     19  C   UNL     1     -15.397  57.773  53.306  0.00  0.00    +0.000 A 
ATOM     20  H   UNL     1     -12.168  57.442  48.013  0.00  0.00    +0.000 HD
ATOM     21  H   UNL     1     -14.021  55.105  50.690  0.00  0.00    +0.000 HD
ENDBRANCH   1  13
BRANCH   7  22
ATOM     22  C   UNL     1      -9.902  52.546  48.724  0.00  0.00    +0.000 C 
ATOM     23  C   UNL     1      -9.879  51.339  49.671  0.00  0.00    +0.000 C 
ATOM     24  C   UNL     1      -9.084  53.688  49.340  0.00  0.00    +0.000 C 
ENDBRANCH   7  22
BRANCH   5  25
ATOM     25  C   UNL     1     -10.901  53.318  45.818  0.00  0.00    +0.000 C 
BRANCH  25  26
ATOM     26  C   UNL     1      -9.540  53.931  45.503  0.00  0.00    +0.000 C 
BRANCH  26  27
ATOM     27  C   UNL     1      -8.553  52.917  44.900  0.00  0.00    +0.000 C 
ATOM     28  C   UNL     1      -8.811  51.493  45.400  0.00  0.00    +0.000 C 
ATOM     29  C   UNL     1      -8.646  52.955  43.374  0.00  0.00    +0.000 C 
ENDBRANCH  26  27
ENDBRANCH  25  26
ENDBRANCH   5  25
TORSDOF 5
ENDMDL
MODEL 5
REMARK VINA RESULT:      -6.9      2.988      7.878
REMARK  Name = 
REMARK  9 active torsions:
REMARK  status: ('A' for Active; 'I' for Inactive)
REMARK    1  A    between atoms: C_6  and  C_10
REMARK    2  A    between atoms: N_17  and  C_20
REMARK    3  A    between atoms: C_19  and  C_21
REMARK    4  A    between atoms: C_20  and  C_22
REMARK    5  A    between atoms: C_21  and  C_23
REMARK    6  A    between atoms: C_21  and  C_24
REMARK    7  A    between atoms: C_22  and  C_25
REMARK    8  A    between atoms: C_25  and  C_26
REMARK    9  A    between atoms: C_25  and  C_27
REMARK                            x       y       z     vdW  Elec       q    Type
REMARK                         _______ _______ _______ _____ _____    ______ ____
ROOT
ATOM      1  C   UNL     1     -11.440  55.948  48.882  0.00  0.00    +0.000 C 
ATOM      2  C   UNL     1     -10.402  55.221  49.626  0.00  0.00    +0.000 C 
ATOM      3  C   UNL     1     -11.307  55.585  47.600  0.00  0.00    +0.000 C 
ATOM      4  O   UNL     1     -10.222  55.343  50.827  0.00  0.00    +0.000 OA
ATOM      5  N   UNL     1      -9.717  54.431  48.730  0.00  0.00    +0.000 N 
ATOM      6  O   UNL     1     -12.037  56.071  46.544  0.00  0.00    +0.000 OA
ATOM      7  C   UNL     1     -10.235  54.552  47.369  0.00  0.00    +0.000 C 
ENDROOT
BRANCH   1  13
ATOM      8  S   UNL     1     -13.523  59.178  49.441  0.00  0.00    +0.000 S 
ATOM      9  O   UNL     1     -14.633  59.211  48.510  0.00  0.00    +0.000 OA
ATOM     10  O   UNL     1     -12.784  60.389  49.742  0.00  0.00    +0.000 OA
ATOM     11  N   UNL     1     -12.459  58.073  48.922  0.00  0.00    +0.000 N 
ATOM     12  C   UNL     1     -14.184  58.620  50.969  0.00  0.00    +0.000 A 
ATOM     13  C   UNL     1     -12.401  56.905  49.483  0.00  0.00    +0.000 C 
ATOM     14  C   UNL     1     -13.920  57.313  51.351  0.00  0.00    +0.000 A 
ATOM     15  C   UNL     1     -14.946  59.488  51.756  0.00  0.00    +0.000 A 
ATOM     16  N   UNL     1     -13.132  56.479  50.565  0.00  0.00    +0.000 N 
ATOM     17  C   UNL     1     -14.451  56.859  52.561  0.00  0.00    +0.000 A 
ATOM     18  C   UNL     1     -15.463  59.023  52.961  0.00  0.00    +0.000 A 
ATOM     19  C   UNL     1     -15.217  57.710  53.363  0.00  0.00    +0.000 A 
ATOM     20  H   UNL     1     -11.855  58.289  48.175  0.00  0.00    +0.000 HD
ATOM     21  H   UNL     1     -13.096  55.525  50.799  0.00  0.00    +0.000 HD
ENDBRANCH   1  13
BRANCH   7  22
ATOM     22  C   UNL     1     -10.724  53.212  46.759  0.00  0.00    +0.000 C 
ATOM     23  C   UNL     1     -10.853  53.285  45.232  0.00  0.00    +0.000 C 
ATOM     24  C   UNL     1     -12.046  52.713  47.356  0.00  0.00    +0.000 C 
ENDBRANCH   7  22
BRANCH   5  25
ATOM     25  C   UNL     1      -8.649  53.534  49.132  0.00  0.00    +0.000 C 
BRANCH  25  26
ATOM     26  C   UNL     1      -7.281  53.969  48.618  0.00  0.00    +0.000 C 
BRANCH  26  27
ATOM     27  C   UNL     1      -6.210  53.999  49.723  0.00  0.00    +0.000 C 
ATOM     28  C   UNL     1      -4.999  54.849  49.331  0.00  0.00    +0.000 C 
ATOM     29  C   UNL     1      -6.824  54.536  51.017  0.00  0.00    +0.000 C 
ENDBRANCH  26  27
ENDBRANCH  25  26
ENDBRANCH   5  25
TORSDOF 5
ENDMDL
MODEL 6
REMARK VINA RESULT:      -6.9      3.609      6.565
REMARK  Name = 
REMARK  9 active torsions:
REMARK  status: ('A' for Active; 'I' for Inactive)
REMARK    1  A    between atoms: C_6  and  C_10
REMARK    2  A    between atoms: N_17  and  C_20
REMARK    3  A    between atoms: C_19  and  C_21
REMARK    4  A    between atoms: C_20  and  C_22
REMARK    5  A    between atoms: C_21  and  C_23
REMARK    6  A    between atoms: C_21  and  C_24
REMARK    7  A    between atoms: C_22  and  C_25
REMARK    8  A    between atoms: C_25  and  C_26
REMARK    9  A    between atoms: C_25  and  C_27
REMARK                            x       y       z     vdW  Elec       q    Type
REMARK                         _______ _______ _______ _____ _____    ______ ____
ROOT
ATOM      1  C   UNL     1     -10.786  54.068  50.354  0.00  0.00    +0.000 C 
ATOM      2  C   UNL     1     -11.777  55.120  50.622  0.00  0.00    +0.000 C 
ATOM      3  C   UNL     1     -11.042  53.617  49.119  0.00  0.00    +0.000 C 
ATOM      4  O   UNL     1     -11.848  55.727  51.678  0.00  0.00    +0.000 OA
ATOM      5  N   UNL     1     -12.563  55.254  49.499  0.00  0.00    +0.000 N 
ATOM      6  O   UNL     1     -10.393  52.586  48.486  0.00  0.00    +0.000 OA
ATOM      7  C   UNL     1     -12.162  54.348  48.425  0.00  0.00    +0.000 C 
ENDROOT
BRANCH   1  13
ATOM      8  S   UNL     1      -8.669  51.740  52.630  0.00  0.00    +0.000 S 
ATOM      9  O   UNL     1      -7.732  50.987  51.822  0.00  0.00    +0.000 OA
ATOM     10  O   UNL     1      -9.359  51.102  53.735  0.00  0.00    +0.000 OA
ATOM     11  N   UNL     1      -9.795  52.366  51.649  0.00  0.00    +0.000 N 
ATOM     12  C   UNL     1      -7.756  53.067  53.327  0.00  0.00    +0.000 A 
ATOM     13  C   UNL     1      -9.747  53.618  51.312  0.00  0.00    +0.000 C 
ATOM     14  C   UNL     1      -7.941  54.333  52.791  0.00  0.00    +0.000 A 
ATOM     15  C   UNL     1      -6.881  52.828  54.390  0.00  0.00    +0.000 A 
ATOM     16  N   UNL     1      -8.841  54.551  51.755  0.00  0.00    +0.000 N 
ATOM     17  C   UNL     1      -7.210  55.393  53.334  0.00  0.00    +0.000 A 
ATOM     18  C   UNL     1      -6.165  53.894  54.925  0.00  0.00    +0.000 A 
ATOM     19  C   UNL     1      -6.328  55.175  54.397  0.00  0.00    +0.000 A 
ATOM     20  H   UNL     1     -10.518  51.793  51.305  0.00  0.00    +0.000 HD
ATOM     21  H   UNL     1      -8.829  55.428  51.310  0.00  0.00    +0.000 HD
ENDBRANCH   1  13
BRANCH   7  22
ATOM     22  C   UNL     1     -11.770  55.065  47.107  0.00  0.00    +0.000 C 
ATOM     23  C   UNL     1     -11.928  54.153  45.883  0.00  0.00    +0.000 C 
ATOM     24  C   UNL     1     -10.353  55.649  47.125  0.00  0.00    +0.000 C 
ENDBRANCH   7  22
BRANCH   5  25
ATOM     25  C   UNL     1     -13.618  56.244  49.395  0.00  0.00    +0.000 C 
BRANCH  25  26
ATOM     26  C   UNL     1     -13.090  57.674  49.336  0.00  0.00    +0.000 C 
BRANCH  26  27
ATOM     27  C   UNL     1     -14.052  58.692  49.975  0.00  0.00    +0.000 C 
ATOM     28  C   UNL     1     -14.333  58.376  51.446  0.00  0.00    +0.000 C 
ATOM     29  C   UNL     1     -13.467  60.099  49.850  0.00  0.00    +0.000 C 
ENDBRANCH  26  27
ENDBRANCH  25  26
ENDBRANCH   5  25
TORSDOF 5
ENDMDL
MODEL 7
REMARK VINA RESULT:      -6.8      3.049      7.706
REMARK  Name = 
REMARK  9 active torsions:
REMARK  status: ('A' for Active; 'I' for Inactive)
REMARK    1  A    between atoms: C_6  and  C_10
REMARK    2  A    between atoms: N_17  and  C_20
REMARK    3  A    between atoms: C_19  and  C_21
REMARK    4  A    between atoms: C_20  and  C_22
REMARK    5  A    between atoms: C_21  and  C_23
REMARK    6  A    between atoms: C_21  and  C_24
REMARK    7  A    between atoms: C_22  and  C_25
REMARK    8  A    between atoms: C_25  and  C_26
REMARK    9  A    between atoms: C_25  and  C_27
REMARK                            x       y       z     vdW  Elec       q    Type
REMARK                         _______ _______ _______ _____ _____    ______ ____
ROOT
ATOM      1  C   UNL     1     -11.804  54.896  49.709  0.00  0.00    +0.000 C 
ATOM      2  C   UNL     1     -11.796  54.495  48.295  0.00  0.00    +0.000 C 
ATOM      3  C   UNL     1     -10.949  54.079  50.336  0.00  0.00    +0.000 C 
ATOM      4  O   UNL     1     -12.492  55.020  47.440  0.00  0.00    +0.000 OA
ATOM      5  N   UNL     1     -10.899  53.459  48.156  0.00  0.00    +0.000 N 
ATOM      6  O   UNL     1     -10.691  54.060  51.684  0.00  0.00    +0.000 OA
ATOM      7  C   UNL     1     -10.248  53.112  49.417  0.00  0.00    +0.000 C 
ENDROOT
BRANCH   1  13
ATOM      8  S   UNL     1     -14.150  56.826  52.128  0.00  0.00    +0.000 S 
ATOM      9  O   UNL     1     -13.390  57.311  53.263  0.00  0.00    +0.000 OA
ATOM     10  O   UNL     1     -15.482  56.286  52.317  0.00  0.00    +0.000 OA
ATOM     11  N   UNL     1     -13.268  55.698  51.373  0.00  0.00    +0.000 N 
ATOM     12  C   UNL     1     -14.329  58.193  51.042  0.00  0.00    +0.000 A 
ATOM     13  C   UNL     1     -12.637  55.984  50.276  0.00  0.00    +0.000 C 
ATOM     14  C   UNL     1     -13.547  58.218  49.897  0.00  0.00    +0.000 A 
ATOM     15  C   UNL     1     -15.242  59.207  51.344  0.00  0.00    +0.000 A 
ATOM     16  N   UNL     1     -12.670  57.180  49.602  0.00  0.00    +0.000 N 
ATOM     17  C   UNL     1     -13.678  59.308  49.032  0.00  0.00    +0.000 A 
ATOM     18  C   UNL     1     -15.365  60.283  50.470  0.00  0.00    +0.000 A 
ATOM     19  C   UNL     1     -14.584  60.334  49.316  0.00  0.00    +0.000 A 
ATOM     20  H   UNL     1     -13.209  54.789  51.750  0.00  0.00    +0.000 HD
ATOM     21  H   UNL     1     -12.033  57.311  48.864  0.00  0.00    +0.000 HD
ENDBRANCH   1  13
BRANCH   7  22
ATOM     22  C   UNL     1      -8.702  53.231  49.383  0.00  0.00    +0.000 C 
ATOM     23  C   UNL     1      -8.039  52.487  50.551  0.00  0.00    +0.000 C 
ATOM     24  C   UNL     1      -8.198  54.678  49.353  0.00  0.00    +0.000 C 
ENDBRANCH   7  22
BRANCH   5  25
ATOM     25  C   UNL     1     -10.599  52.848  46.875  0.00  0.00    +0.000 C 
BRANCH  25  26
ATOM     26  C   UNL     1     -10.068  53.844  45.849  0.00  0.00    +0.000 C 
BRANCH  26  27
ATOM     27  C   UNL     1      -8.654  53.495  45.354  0.00  0.00    +0.000 C 
ATOM     28  C   UNL     1      -8.650  53.026  43.897  0.00  0.00    +0.000 C 
ATOM     29  C   UNL     1      -7.741  54.711  45.510  0.00  0.00    +0.000 C 
ENDBRANCH  26  27
ENDBRANCH  25  26
ENDBRANCH   5  25
TORSDOF 5
ENDMDL
MODEL 8
REMARK VINA RESULT:      -6.6      3.534      7.779
REMARK  Name = 
REMARK  9 active torsions:
REMARK  status: ('A' for Active; 'I' for Inactive)
REMARK    1  A    between atoms: C_6  and  C_10
REMARK    2  A    between atoms: N_17  and  C_20
REMARK    3  A    between atoms: C_19  and  C_21
REMARK    4  A    between atoms: C_20  and  C_22
REMARK    5  A    between atoms: C_21  and  C_23
REMARK    6  A    between atoms: C_21  and  C_24
REMARK    7  A    between atoms: C_22  and  C_25
REMARK    8  A    between atoms: C_25  and  C_26
REMARK    9  A    between atoms: C_25  and  C_27
REMARK                            x       y       z     vdW  Elec       q    Type
REMARK                         _______ _______ _______ _____ _____    ______ ____
ROOT
ATOM      1  C   UNL     1      -7.768  54.623  48.497  0.00  0.00    +0.000 C 
ATOM      2  C   UNL     1      -7.300  54.219  47.164  0.00  0.00    +0.000 C 
ATOM      3  C   UNL     1      -8.912  55.292  48.306  0.00  0.00    +0.000 C 
ATOM      4  O   UNL     1      -6.259  53.611  46.970  0.00  0.00    +0.000 OA
ATOM      5  N   UNL     1      -8.223  54.657  46.241  0.00  0.00    +0.000 N 
ATOM      6  O   UNL     1      -9.663  55.902  49.280  0.00  0.00    +0.000 OA
ATOM      7  C   UNL     1      -9.350  55.348  46.865  0.00  0.00    +0.000 C 
ENDROOT
BRANCH   1  13
ATOM      8  S   UNL     1      -5.338  52.979  51.042  0.00  0.00    +0.000 S 
ATOM      9  O   UNL     1      -3.994  53.476  50.825  0.00  0.00    +0.000 OA
ATOM     10  O   UNL     1      -5.559  51.579  51.347  0.00  0.00    +0.000 OA
ATOM     11  N   UNL     1      -6.227  53.342  49.738  0.00  0.00    +0.000 N 
ATOM     12  C   UNL     1      -5.978  53.882  52.404  0.00  0.00    +0.000 A 
ATOM     13  C   UNL     1      -7.058  54.338  49.767  0.00  0.00    +0.000 C 
ATOM     14  C   UNL     1      -6.905  54.880  52.143  0.00  0.00    +0.000 A 
ATOM     15  C   UNL     1      -5.552  53.580  53.701  0.00  0.00    +0.000 A 
ATOM     16  N   UNL     1      -7.337  55.140  50.848  0.00  0.00    +0.000 N 
ATOM     17  C   UNL     1      -7.411  55.609  53.222  0.00  0.00    +0.000 A 
ATOM     18  C   UNL     1      -6.070  54.310  54.766  0.00  0.00    +0.000 A 
ATOM     19  C   UNL     1      -6.998  55.324  54.527  0.00  0.00    +0.000 A 
ATOM     20  H   UNL     1      -6.137  52.803  48.919  0.00  0.00    +0.000 HD
ATOM     21  H   UNL     1      -7.876  55.948  50.695  0.00  0.00    +0.000 HD
ENDBRANCH   1  13
BRANCH   7  22
ATOM     22  C   UNL     1     -10.729  54.704  46.565  0.00  0.00    +0.000 C 
ATOM     23  C   UNL     1     -11.879  55.711  46.699  0.00  0.00    +0.000 C 
ATOM     24  C   UNL     1     -11.032  53.472  47.426  0.00  0.00    +0.000 C 
ENDBRANCH   7  22
BRANCH   5  25
ATOM     25  C   UNL     1      -8.103  54.386  44.821  0.00  0.00    +0.000 C 
BRANCH  25  26
ATOM     26  C   UNL     1      -8.423  52.939  44.461  0.00  0.00    +0.000 C 
BRANCH  26  27
ATOM     27  C   UNL     1      -9.509  52.820  43.378  0.00  0.00    +0.000 C 
ATOM     28  C   UNL     1      -9.015  52.059  42.145  0.00  0.00    +0.000 C 
ATOM     29  C   UNL     1     -10.739  52.122  43.959  0.00  0.00    +0.000 C 
ENDBRANCH  26  27
ENDBRANCH  25  26
ENDBRANCH   5  25
TORSDOF 5
ENDMDL
MODEL 9
REMARK VINA RESULT:      -6.6      3.647      6.108
REMARK  Name = 
REMARK  9 active torsions:
REMARK  status: ('A' for Active; 'I' for Inactive)
REMARK    1  A    between atoms: C_6  and  C_10
REMARK    2  A    between atoms: N_17  and  C_20
REMARK    3  A    between atoms: C_19  and  C_21
REMARK    4  A    between atoms: C_20  and  C_22
REMARK    5  A    between atoms: C_21  and  C_23
REMARK    6  A    between atoms: C_21  and  C_24
REMARK    7  A    between atoms: C_22  and  C_25
REMARK    8  A    between atoms: C_25  and  C_26
REMARK    9  A    between atoms: C_25  and  C_27
REMARK                            x       y       z     vdW  Elec       q    Type
REMARK                         _______ _______ _______ _____ _____    ______ ____
ROOT
ATOM      1  C   UNL     1      -9.567  54.234  49.996  0.00  0.00    +0.000 C 
ATOM      2  C   UNL     1     -10.743  54.887  50.587  0.00  0.00    +0.000 C 
ATOM      3  C   UNL     1     -10.009  53.565  48.923  0.00  0.00    +0.000 C 
ATOM      4  O   UNL     1     -10.701  55.560  51.604  0.00  0.00    +0.000 OA
ATOM      5  N   UNL     1     -11.833  54.585  49.801  0.00  0.00    +0.000 N 
ATOM      6  O   UNL     1      -9.254  52.762  48.105  0.00  0.00    +0.000 OA
ATOM      7  C   UNL     1     -11.480  53.750  48.655  0.00  0.00    +0.000 C 
ENDROOT
BRANCH   1  13
ATOM      8  S   UNL     1      -5.690  54.103  50.173  0.00  0.00    +0.000 S 
ATOM      9  O   UNL     1      -5.132  55.299  49.573  0.00  0.00    +0.000 OA
ATOM     10  O   UNL     1      -5.068  52.812  49.945  0.00  0.00    +0.000 OA
ATOM     11  N   UNL     1      -7.240  53.985  49.719  0.00  0.00    +0.000 N 
ATOM     12  C   UNL     1      -5.650  54.362  51.908  0.00  0.00    +0.000 A 
ATOM     13  C   UNL     1      -8.190  54.314  50.539  0.00  0.00    +0.000 C 
ATOM     14  C   UNL     1      -6.844  54.660  52.547  0.00  0.00    +0.000 A 
ATOM     15  C   UNL     1      -4.439  54.262  52.599  0.00  0.00    +0.000 A 
ATOM     16  N   UNL     1      -8.041  54.722  51.842  0.00  0.00    +0.000 N 
ATOM     17  C   UNL     1      -6.818  54.878  53.927  0.00  0.00    +0.000 A 
ATOM     18  C   UNL     1      -4.430  54.475  53.974  0.00  0.00    +0.000 A 
ATOM     19  C   UNL     1      -5.617  54.784  54.637  0.00  0.00    +0.000 A 
ATOM     20  H   UNL     1      -7.462  53.662  48.816  0.00  0.00    +0.000 HD
ATOM     21  H   UNL     1      -8.831  55.080  52.306  0.00  0.00    +0.000 HD
ENDBRANCH   1  13
BRANCH   7  22
ATOM     22  C   UNL     1     -11.830  54.383  47.283  0.00  0.00    +0.000 C 
ATOM     23  C   UNL     1     -11.812  53.350  46.148  0.00  0.00    +0.000 C 
ATOM     24  C   UNL     1     -10.932  55.566  46.905  0.00  0.00    +0.000 C 
ENDBRANCH   7  22
BRANCH   5  25
ATOM     25  C   UNL     1     -13.160  55.109  50.065  0.00  0.00    +0.000 C 
BRANCH  25  26
ATOM     26  C   UNL     1     -13.238  56.627  49.931  0.00  0.00    +0.000 C 
BRANCH  26  27
ATOM     27  C   UNL     1     -14.287  57.255  50.865  0.00  0.00    +0.000 C 
ATOM     28  C   UNL     1     -15.676  56.643  50.669  0.00  0.00    +0.000 C 
ATOM     29  C   UNL     1     -13.847  57.085  52.319  0.00  0.00    +0.000 C 
ENDBRANCH  26  27
ENDBRANCH  25  26
ENDBRANCH   5  25
TORSDOF 5
ENDMDL
