MODEL 1
REMARK VINA RESULT:      -8.0      0.000      0.000
REMARK  Name = 
REMARK  11 active torsions:
REMARK  status: ('A' for Active; 'I' for Inactive)
REMARK    1  A    between atoms: C_6  and  C_10
REMARK    2  A    between atoms: N_17  and  C_20
REMARK    3  A    between atoms: C_19  and  C_21
REMARK    4  A    between atoms: C_20  and  C_22
REMARK    5  A    between atoms: C_21  and  C_23
REMARK    6  A    between atoms: C_21  and  C_24
REMARK    7  A    between atoms: C_21  and  C_25
REMARK    8  A    between atoms: C_22  and  C_26
REMARK    9  A    between atoms: C_26  and  C_27
REMARK   10  A    between atoms: C_26  and  C_28
REMARK   11  A    between atoms: C_26  and  C_29
REMARK                            x       y       z     vdW  Elec       q    Type
REMARK                         _______ _______ _______ _____ _____    ______ ____
ROOT
ATOM      1  C   UNL     1     -10.796  55.385  47.928  0.00  0.00    +0.000 C 
ATOM      2  C   UNL     1     -12.134  55.950  47.776  0.00  0.00    +0.000 C 
ATOM      3  C   UNL     1     -10.427  55.648  49.190  0.00  0.00    +0.000 C 
ATOM      4  O   UNL     1     -12.755  55.924  46.723  0.00  0.00    +0.000 OA
ATOM      5  N   UNL     1     -12.520  56.491  48.986  0.00  0.00    +0.000 N 
ATOM      6  O   UNL     1      -9.207  55.333  49.733  0.00  0.00    +0.000 OA
ATOM      7  C   UNL     1     -11.496  56.337  50.030  0.00  0.00    +0.000 C 
ENDROOT
BRANCH   1  13
ATOM      8  S   UNL     1      -7.933  54.335  45.512  0.00  0.00    +0.000 S 
ATOM      9  O   UNL     1      -6.987  53.514  46.248  0.00  0.00    +0.000 OA
ATOM     10  O   UNL     1      -7.463  55.312  44.557  0.00  0.00    +0.000 OA
ATOM     11  N   UNL     1      -8.865  55.107  46.591  0.00  0.00    +0.000 N 
ATOM     12  C   UNL     1      -8.946  53.215  44.613  0.00  0.00    +0.000 A 
ATOM     13  C   UNL     1     -10.062  54.673  46.848  0.00  0.00    +0.000 C 
ATOM     14  C   UNL     1     -10.228  52.979  45.088  0.00  0.00    +0.000 A 
ATOM     15  C   UNL     1      -8.459  52.610  43.451  0.00  0.00    +0.000 A 
ATOM     16  N   UNL     1     -10.699  53.620  46.229  0.00  0.00    +0.000 N 
ATOM     17  C   UNL     1     -11.050  52.109  44.366  0.00  0.00    +0.000 A 
ATOM     18  C   UNL     1      -9.291  51.746  42.740  0.00  0.00    +0.000 A 
ATOM     19  C   UNL     1     -10.586  51.500  43.194  0.00  0.00    +0.000 A 
ATOM     20  H   UNL     1      -8.523  55.907  47.052  0.00  0.00    +0.000 HD
ATOM     21  H   UNL     1     -11.545  53.301  46.620  0.00  0.00    +0.000 HD
ENDBRANCH   1  13
BRANCH   7  22
ATOM     22  C   UNL     1     -11.925  55.550  51.332  0.00  0.00    +0.000 C 
ATOM     23  C   UNL     1     -10.719  55.316  52.278  0.00  0.00    +0.000 C 
ATOM     24  C   UNL     1     -12.938  56.340  52.190  0.00  0.00    +0.000 C 
ATOM     25  C   UNL     1     -12.530  54.175  50.994  0.00  0.00    +0.000 C 
ENDBRANCH   7  22
BRANCH   5  26
ATOM     26  C   UNL     1     -13.825  57.112  49.123  0.00  0.00    +0.000 C 
BRANCH  26  27
ATOM     27  C   UNL     1     -13.957  58.487  48.466  0.00  0.00    +0.000 C 
BRANCH  27  28
ATOM     28  C   UNL     1     -14.134  59.651  49.480  0.00  0.00    +0.000 C 
ATOM     29  C   UNL     1     -14.888  59.196  50.743  0.00  0.00    +0.000 C 
ATOM     30  C   UNL     1     -12.745  60.156  49.908  0.00  0.00    +0.000 C 
ATOM     31  C   UNL     1     -14.902  60.811  48.823  0.00  0.00    +0.000 C 
ENDBRANCH  27  28
ENDBRANCH  26  27
ENDBRANCH   5  26
TORSDOF 5
ENDMDL
MODEL 2
REMARK VINA RESULT:      -7.9      3.511      6.061
REMARK  Name = 
REMARK  11 active torsions:
REMARK  status: ('A' for Active; 'I' for Inactive)
REMARK    1  A    between atoms: C_6  and  C_10
REMARK    2  A    between atoms: N_17  and  C_20
REMARK    3  A    between atoms: C_19  and  C_21
REMARK    4  A    between atoms: C_20  and  C_22
REMARK    5  A    between atoms: C_21  and  C_23
REMARK    6  A    between atoms: C_21  and  C_24
REMARK    7  A    between atoms: C_21  and  C_25
REMARK    8  A    between atoms: C_22  and  C_26
REMARK    9  A    between atoms: C_26  and  C_27
REMARK   10  A    between atoms: C_26  and  C_28
REMARK   11  A    between atoms: C_26  and  C_29
REMARK                            x       y       z     vdW  Elec       q    Type
REMARK                         _______ _______ _______ _____ _____    ______ ____
ROOT
ATOM      1  C   UNL     1     -10.119  54.978  50.582  0.00  0.00    +0.000 C 
ATOM      2  C   UNL     1     -11.166  55.250  51.563  0.00  0.00    +0.000 C 
ATOM      3  C   UNL     1     -10.737  54.911  49.394  0.00  0.00    +0.000 C 
ATOM      4  O   UNL     1     -10.952  55.332  52.764  0.00  0.00    +0.000 OA
ATOM      5  N   UNL     1     -12.368  55.378  50.895  0.00  0.00    +0.000 N 
ATOM      6  O   UNL     1     -10.120  54.618  48.204  0.00  0.00    +0.000 OA
ATOM      7  C   UNL     1     -12.232  55.207  49.441  0.00  0.00    +0.000 C 
ENDROOT
BRANCH   1  13
ATOM      8  S   UNL     1      -6.324  54.212  50.202  0.00  0.00    +0.000 S 
ATOM      9  O   UNL     1      -5.702  55.310  49.482  0.00  0.00    +0.000 OA
ATOM     10  O   UNL     1      -5.935  52.848  49.930  0.00  0.00    +0.000 OA
ATOM     11  N   UNL     1      -7.927  54.321  49.985  0.00  0.00    +0.000 N 
ATOM     12  C   UNL     1      -5.979  54.493  51.902  0.00  0.00    +0.000 A 
ATOM     13  C   UNL     1      -8.679  54.824  50.918  0.00  0.00    +0.000 C 
ATOM     14  C   UNL     1      -7.004  54.986  52.697  0.00  0.00    +0.000 A 
ATOM     15  C   UNL     1      -4.711  54.205  52.415  0.00  0.00    +0.000 A 
ATOM     16  N   UNL     1      -8.267  55.233  52.167  0.00  0.00    +0.000 N 
ATOM     17  C   UNL     1      -6.747  55.188  54.056  0.00  0.00    +0.000 A 
ATOM     18  C   UNL     1      -4.470  54.411  53.773  0.00  0.00    +0.000 A 
ATOM     19  C   UNL     1      -5.487  54.897  54.592  0.00  0.00    +0.000 A 
ATOM     20  H   UNL     1      -8.332  54.005  49.145  0.00  0.00    +0.000 HD
ATOM     21  H   UNL     1      -8.908  55.732  52.722  0.00  0.00    +0.000 HD
ENDBRANCH   1  13
BRANCH   7  22
ATOM     22  C   UNL     1     -12.697  56.419  48.539  0.00  0.00    +0.000 C 
ATOM     23  C   UNL     1     -12.306  56.204  47.053  0.00  0.00    +0.000 C 
ATOM     24  C   UNL     1     -14.233  56.577  48.512  0.00  0.00    +0.000 C 
ATOM     25  C   UNL     1     -12.070  57.747  49.001  0.00  0.00    +0.000 C 
ENDBRANCH   7  22
BRANCH   5  26
ATOM     26  C   UNL     1     -13.584  55.666  51.633  0.00  0.00    +0.000 C 
BRANCH  26  27
ATOM     27  C   UNL     1     -13.606  57.026  52.332  0.00  0.00    +0.000 C 
BRANCH  27  28
ATOM     28  C   UNL     1     -14.961  57.777  52.200  0.00  0.00    +0.000 C 
ATOM     29  C   UNL     1     -14.853  58.981  51.247  0.00  0.00    +0.000 C 
ATOM     30  C   UNL     1     -16.014  56.810  51.631  0.00  0.00    +0.000 C 
ATOM     31  C   UNL     1     -15.432  58.264  53.581  0.00  0.00    +0.000 C 
ENDBRANCH  27  28
ENDBRANCH  26  27
ENDBRANCH   5  26
TORSDOF 5
ENDMDL
MODEL 3
REMARK VINA RESULT:      -7.6      3.043      7.934
REMARK  Name = 
REMARK  11 active torsions:
REMARK  status: ('A' for Active; 'I' for Inactive)
REMARK    1  A    between atoms: C_6  and  C_10
REMARK    2  A    between atoms: N_17  and  C_20
REMARK    3  A    between atoms: C_19  and  C_21
REMARK    4  A    between atoms: C_20  and  C_22
REMARK    5  A    between atoms: C_21  and  C_23
REMARK    6  A    between atoms: C_21  and  C_24
REMARK    7  A    between atoms: C_21  and  C_25
REMARK    8  A    between atoms: C_22  and  C_26
REMARK    9  A    between atoms: C_26  and  C_27
REMARK   10  A    between atoms: C_26  and  C_28
REMARK   11  A    between atoms: C_26  and  C_29
REMARK                            x       y       z     vdW  Elec       q    Type
REMARK                         _______ _______ _______ _____ _____    ______ ____
ROOT
ATOM      1  C   UNL     1     -11.484  55.897  48.841  0.00  0.00    +0.000 C 
ATOM      2  C   UNL     1     -10.513  55.106  49.591  0.00  0.00    +0.000 C 
ATOM      3  C   UNL     1     -11.333  55.542  47.557  0.00  0.00    +0.000 C 
ATOM      4  O   UNL     1     -10.353  55.214  50.799  0.00  0.00    +0.000 OA
ATOM      5  N   UNL     1      -9.853  54.274  48.710  0.00  0.00    +0.000 N 
ATOM      6  O   UNL     1     -12.022  56.090  46.504  0.00  0.00    +0.000 OA
ATOM      7  C   UNL     1     -10.315  54.432  47.323  0.00  0.00    +0.000 C 
ENDROOT
BRANCH   1  13
ATOM      8  S   UNL     1     -13.509  59.166  49.430  0.00  0.00    +0.000 S 
ATOM      9  O   UNL     1     -14.613  59.201  48.486  0.00  0.00    +0.000 OA
ATOM     10  O   UNL     1     -12.772  60.370  49.736  0.00  0.00    +0.000 OA
ATOM     11  N   UNL     1     -12.447  58.055  48.912  0.00  0.00    +0.000 N 
ATOM     12  C   UNL     1     -14.192  58.606  50.950  0.00  0.00    +0.000 A 
ATOM     13  C   UNL     1     -12.418  56.876  49.456  0.00  0.00    +0.000 C 
ATOM     14  C   UNL     1     -13.947  57.293  51.323  0.00  0.00    +0.000 A 
ATOM     15  C   UNL     1     -14.938  59.481  51.745  0.00  0.00    +0.000 A 
ATOM     16  N   UNL     1     -13.173  56.453  50.528  0.00  0.00    +0.000 N 
ATOM     17  C   UNL     1     -14.465  56.845  52.543  0.00  0.00    +0.000 A 
ATOM     18  C   UNL     1     -15.446  59.020  52.959  0.00  0.00    +0.000 A 
ATOM     19  C   UNL     1     -15.206  57.707  53.359  0.00  0.00    +0.000 A 
ATOM     20  H   UNL     1     -11.823  58.276  48.183  0.00  0.00    +0.000 HD
ATOM     21  H   UNL     1     -13.164  55.493  50.746  0.00  0.00    +0.000 HD
ENDBRANCH   1  13
BRANCH   7  22
ATOM     22  C   UNL     1     -10.892  53.140  46.618  0.00  0.00    +0.000 C 
ATOM     23  C   UNL     1     -11.403  53.454  45.188  0.00  0.00    +0.000 C 
ATOM     24  C   UNL     1      -9.815  52.053  46.410  0.00  0.00    +0.000 C 
ATOM     25  C   UNL     1     -12.063  52.532  47.411  0.00  0.00    +0.000 C 
ENDBRANCH   7  22
BRANCH   5  26
ATOM     26  C   UNL     1      -8.834  53.360  49.195  0.00  0.00    +0.000 C 
BRANCH  26  27
ATOM     27  C   UNL     1      -7.394  53.798  48.926  0.00  0.00    +0.000 C 
BRANCH  27  28
ATOM     28  C   UNL     1      -6.664  54.357  50.179  0.00  0.00    +0.000 C 
ATOM     29  C   UNL     1      -5.146  54.105  50.112  0.00  0.00    +0.000 C 
ATOM     30  C   UNL     1      -6.893  55.877  50.254  0.00  0.00    +0.000 C 
ATOM     31  C   UNL     1      -7.229  53.707  51.453  0.00  0.00    +0.000 C 
ENDBRANCH  27  28
ENDBRANCH  26  27
ENDBRANCH   5  26
TORSDOF 5
ENDMDL
MODEL 4
REMARK VINA RESULT:      -7.5      2.620      7.944
REMARK  Name = 
REMARK  11 active torsions:
REMARK  status: ('A' for Active; 'I' for Inactive)
REMARK    1  A    between atoms: C_6  and  C_10
REMARK    2  A    between atoms: N_17  and  C_20
REMARK    3  A    between atoms: C_19  and  C_21
REMARK    4  A    between atoms: C_20  and  C_22
REMARK    5  A    between atoms: C_21  and  C_23
REMARK    6  A    between atoms: C_21  and  C_24
REMARK    7  A    between atoms: C_21  and  C_25
REMARK    8  A    between atoms: C_22  and  C_26
REMARK    9  A    between atoms: C_26  and  C_27
REMARK   10  A    between atoms: C_26  and  C_28
REMARK   11  A    between atoms: C_26  and  C_29
REMARK                            x       y       z     vdW  Elec       q    Type
REMARK                         _______ _______ _______ _____ _____    ______ ____
ROOT
ATOM      1  C   UNL     1     -11.665  55.672  48.860  0.00  0.00    +0.000 C 
ATOM      2  C   UNL     1     -11.459  55.504  47.424  0.00  0.00    +0.000 C 
ATOM      3  C   UNL     1     -10.917  54.730  49.451  0.00  0.00    +0.000 C 
ATOM      4  O   UNL     1     -12.031  56.181  46.582  0.00  0.00    +0.000 OA
ATOM      5  N   UNL     1     -10.551  54.482  47.230  0.00  0.00    +0.000 N 
ATOM      6  O   UNL     1     -10.863  54.505  50.804  0.00  0.00    +0.000 OA
ATOM      7  C   UNL     1     -10.080  53.892  48.492  0.00  0.00    +0.000 C 
ENDROOT
BRANCH   1  13
ATOM      8  S   UNL     1     -13.501  59.058  49.404  0.00  0.00    +0.000 S 
ATOM      9  O   UNL     1     -14.602  59.143  48.459  0.00  0.00    +0.000 OA
ATOM     10  O   UNL     1     -12.697  60.223  49.694  0.00  0.00    +0.000 OA
ATOM     11  N   UNL     1     -12.504  57.882  48.901  0.00  0.00    +0.000 N 
ATOM     12  C   UNL     1     -14.214  58.559  50.931  0.00  0.00    +0.000 A 
ATOM     13  C   UNL     1     -12.542  56.711  49.461  0.00  0.00    +0.000 C 
ATOM     14  C   UNL     1     -14.044  57.239  51.322  0.00  0.00    +0.000 A 
ATOM     15  C   UNL     1     -14.909  59.485  51.714  0.00  0.00    +0.000 A 
ATOM     16  N   UNL     1     -13.319  56.346  50.539  0.00  0.00    +0.000 N 
ATOM     17  C   UNL     1     -14.585  56.838  52.548  0.00  0.00    +0.000 A 
ATOM     18  C   UNL     1     -15.442  59.071  52.934  0.00  0.00    +0.000 A 
ATOM     19  C   UNL     1     -15.275  57.752  53.352  0.00  0.00    +0.000 A 
ATOM     20  H   UNL     1     -11.869  58.057  48.170  0.00  0.00    +0.000 HD
ATOM     21  H   UNL     1     -13.363  55.390  50.770  0.00  0.00    +0.000 HD
ENDBRANCH   1  13
BRANCH   7  22
ATOM     22  C   UNL     1      -8.522  53.938  48.757  0.00  0.00    +0.000 C 
ATOM     23  C   UNL     1      -8.158  53.295  50.120  0.00  0.00    +0.000 C 
ATOM     24  C   UNL     1      -7.724  53.117  47.720  0.00  0.00    +0.000 C 
ATOM     25  C   UNL     1      -7.987  55.383  48.762  0.00  0.00    +0.000 C 
ENDBRANCH   7  22
BRANCH   5  26
ATOM     26  C   UNL     1     -10.151  54.109  45.885  0.00  0.00    +0.000 C 
BRANCH  26  27
ATOM     27  C   UNL     1     -10.697  52.767  45.398  0.00  0.00    +0.000 C 
BRANCH  27  28
ATOM     28  C   UNL     1      -9.737  52.009  44.440  0.00  0.00    +0.000 C 
ATOM     29  C   UNL     1     -10.467  51.514  43.178  0.00  0.00    +0.000 C 
ATOM     30  C   UNL     1      -8.615  52.966  43.998  0.00  0.00    +0.000 C 
ATOM     31  C   UNL     1      -9.105  50.808  45.164  0.00  0.00    +0.000 C 
ENDBRANCH  27  28
ENDBRANCH  26  27
ENDBRANCH   5  26
TORSDOF 5
ENDMDL
MODEL 5
REMARK VINA RESULT:      -7.4      3.626      6.525
REMARK  Name = 
REMARK  11 active torsions:
REMARK  status: ('A' for Active; 'I' for Inactive)
REMARK    1  A    between atoms: C_6  and  C_10
REMARK    2  A    between atoms: N_17  and  C_20
REMARK    3  A    between atoms: C_19  and  C_21
REMARK    4  A    between atoms: C_20  and  C_22
REMARK    5  A    between atoms: C_21  and  C_23
REMARK    6  A    between atoms: C_21  and  C_24
REMARK    7  A    between atoms: C_21  and  C_25
REMARK    8  A    between atoms: C_22  and  C_26
REMARK    9  A    between atoms: C_26  and  C_27
REMARK   10  A    between atoms: C_26  and  C_28
REMARK   11  A    between atoms: C_26  and  C_29
REMARK                            x       y       z     vdW  Elec       q    Type
REMARK                         _______ _______ _______ _____ _____    ______ ____
ROOT
ATOM      1  C   UNL     1     -10.722  53.749  50.503  0.00  0.00    +0.000 C 
ATOM      2  C   UNL     1     -11.786  54.675  50.880  0.00  0.00    +0.000 C 
ATOM      3  C   UNL     1     -10.935  53.448  49.214  0.00  0.00    +0.000 C 
ATOM      4  O   UNL     1     -11.916  55.120  52.011  0.00  0.00    +0.000 OA
ATOM      5  N   UNL     1     -12.567  54.918  49.768  0.00  0.00    +0.000 N 
ATOM      6  O   UNL     1     -10.188  52.562  48.480  0.00  0.00    +0.000 OA
ATOM      7  C   UNL     1     -12.103  54.192  48.576  0.00  0.00    +0.000 C 
ENDROOT
BRANCH   1  13
ATOM      8  S   UNL     1      -8.403  51.380  52.539  0.00  0.00    +0.000 S 
ATOM      9  O   UNL     1      -7.416  50.812  51.636  0.00  0.00    +0.000 OA
ATOM     10  O   UNL     1      -9.006  50.564  53.567  0.00  0.00    +0.000 OA
ATOM     11  N   UNL     1      -9.598  52.006  51.640  0.00  0.00    +0.000 N 
ATOM     12  C   UNL     1      -7.591  52.699  53.371  0.00  0.00    +0.000 A 
ATOM     13  C   UNL     1      -9.651  53.287  51.426  0.00  0.00    +0.000 C 
ATOM     14  C   UNL     1      -7.889  53.994  52.972  0.00  0.00    +0.000 A 
ATOM     15  C   UNL     1      -6.694  52.426  54.407  0.00  0.00    +0.000 A 
ATOM     16  N   UNL     1      -8.811  54.239  51.958  0.00  0.00    +0.000 N 
ATOM     17  C   UNL     1      -7.269  55.052  53.644  0.00  0.00    +0.000 A 
ATOM     18  C   UNL     1      -6.085  53.491  55.069  0.00  0.00    +0.000 A 
ATOM     19  C   UNL     1      -6.375  54.800  54.692  0.00  0.00    +0.000 A 
ATOM     20  H   UNL     1     -10.284  51.415  51.255  0.00  0.00    +0.000 HD
ATOM     21  H   UNL     1      -8.867  55.154  51.599  0.00  0.00    +0.000 HD
ENDBRANCH   1  13
BRANCH   7  22
ATOM     22  C   UNL     1     -11.722  55.069  47.317  0.00  0.00    +0.000 C 
ATOM     23  C   UNL     1     -11.769  54.236  46.010  0.00  0.00    +0.000 C 
ATOM     24  C   UNL     1     -12.725  56.218  47.076  0.00  0.00    +0.000 C 
ATOM     25  C   UNL     1     -10.308  55.664  47.443  0.00  0.00    +0.000 C 
ENDBRANCH   7  22
BRANCH   5  26
ATOM     26  C   UNL     1     -13.699  55.822  49.857  0.00  0.00    +0.000 C 
BRANCH  26  27
ATOM     27  C   UNL     1     -13.389  57.184  50.479  0.00  0.00    +0.000 C 
BRANCH  27  28
ATOM     28  C   UNL     1     -14.500  57.706  51.432  0.00  0.00    +0.000 C 
ATOM     29  C   UNL     1     -14.030  57.724  52.898  0.00  0.00    +0.000 C 
ATOM     30  C   UNL     1     -14.867  59.145  51.030  0.00  0.00    +0.000 C 
ATOM     31  C   UNL     1     -15.755  56.824  51.314  0.00  0.00    +0.000 C 
ENDBRANCH  27  28
ENDBRANCH  26  27
ENDBRANCH   5  26
TORSDOF 5
ENDMDL
MODEL 6
REMARK VINA RESULT:      -7.4      3.262      7.603
REMARK  Name = 
REMARK  11 active torsions:
REMARK  status: ('A' for Active; 'I' for Inactive)
REMARK    1  A    between atoms: C_6  and  C_10
REMARK    2  A    between atoms: N_17  and  C_20
REMARK    3  A    between atoms: C_19  and  C_21
REMARK    4  A    between atoms: C_20  and  C_22
REMARK    5  A    between atoms: C_21  and  C_23
REMARK    6  A    between atoms: C_21  and  C_24
REMARK    7  A    between atoms: C_21  and  C_25
REMARK    8  A    between atoms: C_22  and  C_26
REMARK    9  A    between atoms: C_26  and  C_27
REMARK   10  A    between atoms: C_26  and  C_28
REMARK   11  A    between atoms: C_26  and  C_29
REMARK                            x       y       z     vdW  Elec       q    Type
REMARK                         _______ _______ _______ _____ _____    ______ ____
ROOT
ATOM      1  C   UNL     1     -12.337  54.379  50.162  0.00  0.00    +0.000 C 
ATOM      2  C   UNL     1     -12.069  54.019  48.773  0.00  0.00    +0.000 C 
ATOM      3  C   UNL     1     -11.841  53.379  50.904  0.00  0.00    +0.000 C 
ATOM      4  O   UNL     1     -12.430  54.699  47.823  0.00  0.00    +0.000 OA
ATOM      5  N   UNL     1     -11.377  52.824  48.757  0.00  0.00    +0.000 N 
ATOM      6  O   UNL     1     -11.931  53.296  52.271  0.00  0.00    +0.000 OA
ATOM      7  C   UNL     1     -11.126  52.294  50.106  0.00  0.00    +0.000 C 
ENDROOT
BRANCH   1  13
ATOM      8  S   UNL     1     -14.404  56.889  52.298  0.00  0.00    +0.000 S 
ATOM      9  O   UNL     1     -13.563  57.376  53.379  0.00  0.00    +0.000 OA
ATOM     10  O   UNL     1     -15.796  56.586  52.537  0.00  0.00    +0.000 OA
ATOM     11  N   UNL     1     -13.706  55.559  51.687  0.00  0.00    +0.000 N 
ATOM     12  C   UNL     1     -14.376  58.141  51.065  0.00  0.00    +0.000 A 
ATOM     13  C   UNL     1     -13.025  55.628  50.583  0.00  0.00    +0.000 C 
ATOM     14  C   UNL     1     -13.597  57.921  49.939  0.00  0.00    +0.000 A 
ATOM     15  C   UNL     1     -15.138  59.302  51.229  0.00  0.00    +0.000 A 
ATOM     16  N   UNL     1     -12.874  56.741  49.785  0.00  0.00    +0.000 N 
ATOM     17  C   UNL     1     -13.588  58.899  48.939  0.00  0.00    +0.000 A 
ATOM     18  C   UNL     1     -15.120  60.267  50.224  0.00  0.00    +0.000 A 
ATOM     19  C   UNL     1     -14.351  60.064  49.080  0.00  0.00    +0.000 A 
ATOM     20  H   UNL     1     -13.799  54.697  52.153  0.00  0.00    +0.000 HD
ATOM     21  H   UNL     1     -12.213  56.699  49.057  0.00  0.00    +0.000 HD
ENDBRANCH   1  13
BRANCH   7  22
ATOM     22  C   UNL     1      -9.615  52.063  50.507  0.00  0.00    +0.000 C 
ATOM     23  C   UNL     1      -9.475  51.688  52.005  0.00  0.00    +0.000 C 
ATOM     24  C   UNL     1      -8.981  50.873  49.753  0.00  0.00    +0.000 C 
ATOM     25  C   UNL     1      -8.760  53.320  50.256  0.00  0.00    +0.000 C 
ENDBRANCH   7  22
BRANCH   5  26
ATOM     26  C   UNL     1     -10.967  52.236  47.495  0.00  0.00    +0.000 C 
BRANCH  26  27
ATOM     27  C   UNL     1      -9.589  52.676  46.996  0.00  0.00    +0.000 C 
BRANCH  27  28
ATOM     28  C   UNL     1      -9.642  53.663  45.798  0.00  0.00    +0.000 C 
ATOM     29  C   UNL     1     -11.007  53.622  45.086  0.00  0.00    +0.000 C 
ATOM     30  C   UNL     1      -9.418  55.094  46.320  0.00  0.00    +0.000 C 
ATOM     31  C   UNL     1      -8.533  53.327  44.786  0.00  0.00    +0.000 C 
ENDBRANCH  27  28
ENDBRANCH  26  27
ENDBRANCH   5  26
TORSDOF 5
ENDMDL
MODEL 7
REMARK VINA RESULT:      -7.2      3.588      6.453
REMARK  Name = 
REMARK  11 active torsions:
REMARK  status: ('A' for Active; 'I' for Inactive)
REMARK    1  A    between atoms: C_6  and  C_10
REMARK    2  A    between atoms: N_17  and  C_20
REMARK    3  A    between atoms: C_19  and  C_21
REMARK    4  A    between atoms: C_20  and  C_22
REMARK    5  A    between atoms: C_21  and  C_23
REMARK    6  A    between atoms: C_21  and  C_24
REMARK    7  A    between atoms: C_21  and  C_25
REMARK    8  A    between atoms: C_22  and  C_26
REMARK    9  A    between atoms: C_26  and  C_27
REMARK   10  A    between atoms: C_26  and  C_28
REMARK   11  A    between atoms: C_26  and  C_29
REMARK                            x       y       z     vdW  Elec       q    Type
REMARK                         _______ _______ _______ _____ _____    ______ ____
ROOT
ATOM      1  C   UNL     1     -10.460  53.945  50.664  0.00  0.00    +0.000 C 
ATOM      2  C   UNL     1     -11.606  54.805  50.948  0.00  0.00    +0.000 C 
ATOM      3  C   UNL     1     -10.598  53.558  49.388  0.00  0.00    +0.000 C 
ATOM      4  O   UNL     1     -11.815  55.300  52.046  0.00  0.00    +0.000 OA
ATOM      5  N   UNL     1     -12.357  54.926  49.795  0.00  0.00    +0.000 N 
ATOM      6  O   UNL     1      -9.756  52.694  48.734  0.00  0.00    +0.000 OA
ATOM      7  C   UNL     1     -11.791  54.174  48.665  0.00  0.00    +0.000 C 
ENDROOT
BRANCH   1  13
ATOM      8  S   UNL     1      -6.999  53.868  52.438  0.00  0.00    +0.000 S 
ATOM      9  O   UNL     1      -6.818  55.122  53.150  0.00  0.00    +0.000 OA
ATOM     10  O   UNL     1      -5.893  53.264  51.733  0.00  0.00    +0.000 OA
ATOM     11  N   UNL     1      -8.210  54.069  51.378  0.00  0.00    +0.000 N 
ATOM     12  C   UNL     1      -7.513  52.699  53.645  0.00  0.00    +0.000 A 
ATOM     13  C   UNL     1      -9.397  53.618  51.651  0.00  0.00    +0.000 C 
ATOM     14  C   UNL     1      -8.854  52.344  53.671  0.00  0.00    +0.000 A 
ATOM     15  C   UNL     1      -6.579  52.146  54.526  0.00  0.00    +0.000 A 
ATOM     16  N   UNL     1      -9.757  52.885  52.760  0.00  0.00    +0.000 N 
ATOM     17  C   UNL     1      -9.269  51.395  54.610  0.00  0.00    +0.000 A 
ATOM     18  C   UNL     1      -7.007  51.200  55.456  0.00  0.00    +0.000 A 
ATOM     19  C   UNL     1      -8.348  50.822  55.494  0.00  0.00    +0.000 A 
ATOM     20  H   UNL     1      -8.045  54.534  50.526  0.00  0.00    +0.000 HD
ATOM     21  H   UNL     1     -10.717  52.734  52.919  0.00  0.00    +0.000 HD
ENDBRANCH   1  13
BRANCH   7  22
ATOM     22  C   UNL     1     -11.425  55.008  47.373  0.00  0.00    +0.000 C 
ATOM     23  C   UNL     1     -11.377  54.107  46.111  0.00  0.00    +0.000 C 
ATOM     24  C   UNL     1     -12.491  56.075  47.041  0.00  0.00    +0.000 C 
ATOM     25  C   UNL     1     -10.057  55.700  47.508  0.00  0.00    +0.000 C 
ENDBRANCH   7  22
BRANCH   5  26
ATOM     26  C   UNL     1     -13.556  55.743  49.791  0.00  0.00    +0.000 C 
BRANCH  26  27
ATOM     27  C   UNL     1     -13.369  57.166  50.320  0.00  0.00    +0.000 C 
BRANCH  27  28
ATOM     28  C   UNL     1     -14.579  57.694  51.140  0.00  0.00    +0.000 C 
ATOM     29  C   UNL     1     -14.918  59.151  50.778  0.00  0.00    +0.000 C 
ATOM     30  C   UNL     1     -15.810  56.825  50.829  0.00  0.00    +0.000 C 
ATOM     31  C   UNL     1     -14.277  57.603  52.645  0.00  0.00    +0.000 C 
ENDBRANCH  27  28
ENDBRANCH  26  27
ENDBRANCH   5  26
TORSDOF 5
ENDMDL
MODEL 8
REMARK VINA RESULT:      -7.2      2.597      7.884
REMARK  Name = 
REMARK  11 active torsions:
REMARK  status: ('A' for Active; 'I' for Inactive)
REMARK    1  A    between atoms: C_6  and  C_10
REMARK    2  A    between atoms: N_17  and  C_20
REMARK    3  A    between atoms: C_19  and  C_21
REMARK    4  A    between atoms: C_20  and  C_22
REMARK    5  A    between atoms: C_21  and  C_23
REMARK    6  A    between atoms: C_21  and  C_24
REMARK    7  A    between atoms: C_21  and  C_25
REMARK    8  A    between atoms: C_22  and  C_26
REMARK    9  A    between atoms: C_26  and  C_27
REMARK   10  A    between atoms: C_26  and  C_28
REMARK   11  A    between atoms: C_26  and  C_29
REMARK                            x       y       z     vdW  Elec       q    Type
REMARK                         _______ _______ _______ _____ _____    ______ ____
ROOT
ATOM      1  C   UNL     1     -11.290  55.182  48.720  0.00  0.00    +0.000 C 
ATOM      2  C   UNL     1     -11.232  55.164  47.262  0.00  0.00    +0.000 C 
ATOM      3  C   UNL     1     -10.366  54.303  49.136  0.00  0.00    +0.000 C 
ATOM      4  O   UNL     1     -11.978  55.825  46.554  0.00  0.00    +0.000 OA
ATOM      5  N   UNL     1     -10.232  54.294  46.875  0.00  0.00    +0.000 N 
ATOM      6  O   UNL     1     -10.128  53.976  50.447  0.00  0.00    +0.000 OA
ATOM      7  C   UNL     1      -9.547  53.670  48.017  0.00  0.00    +0.000 C 
ENDROOT
BRANCH   1  13
ATOM      8  S   UNL     1     -13.752  56.330  51.505  0.00  0.00    +0.000 S 
ATOM      9  O   UNL     1     -12.988  56.614  52.708  0.00  0.00    +0.000 OA
ATOM     10  O   UNL     1     -15.029  55.661  51.594  0.00  0.00    +0.000 OA
ATOM     11  N   UNL     1     -12.809  55.463  50.510  0.00  0.00    +0.000 N 
ATOM     12  C   UNL     1     -14.062  57.887  50.751  0.00  0.00    +0.000 A 
ATOM     13  C   UNL     1     -12.214  56.039  49.509  0.00  0.00    +0.000 C 
ATOM     14  C   UNL     1     -13.309  58.226  49.636  0.00  0.00    +0.000 A 
ATOM     15  C   UNL     1     -15.051  58.729  51.266  0.00  0.00    +0.000 A 
ATOM     16  N   UNL     1     -12.353  57.354  49.124  0.00  0.00    +0.000 N 
ATOM     17  C   UNL     1     -13.566  59.451  49.013  0.00  0.00    +0.000 A 
ATOM     18  C   UNL     1     -15.297  59.946  50.634  0.00  0.00    +0.000 A 
ATOM     19  C   UNL     1     -14.559  60.304  49.507  0.00  0.00    +0.000 A 
ATOM     20  H   UNL     1     -12.686  54.499  50.666  0.00  0.00    +0.000 HD
ATOM     21  H   UNL     1     -11.734  57.700  48.440  0.00  0.00    +0.000 HD
ENDBRANCH   1  13
BRANCH   7  22
ATOM     22  C   UNL     1      -7.987  53.904  48.122  0.00  0.00    +0.000 C 
ATOM     23  C   UNL     1      -7.339  54.045  46.721  0.00  0.00    +0.000 C 
ATOM     24  C   UNL     1      -7.638  55.226  48.841  0.00  0.00    +0.000 C 
ATOM     25  C   UNL     1      -7.284  52.744  48.851  0.00  0.00    +0.000 C 
ENDBRANCH   7  22
BRANCH   5  26
ATOM     26  C   UNL     1      -9.946  54.092  45.466  0.00  0.00    +0.000 C 
BRANCH  26  27
ATOM     27  C   UNL     1     -10.450  52.768  44.889  0.00  0.00    +0.000 C 
BRANCH  27  28
ATOM     28  C   UNL     1      -9.447  52.086  43.918  0.00  0.00    +0.000 C 
ATOM     29  C   UNL     1      -8.530  53.115  43.232  0.00  0.00    +0.000 C 
ATOM     30  C   UNL     1      -8.562  51.112  44.716  0.00  0.00    +0.000 C 
ATOM     31  C   UNL     1     -10.210  51.293  42.843  0.00  0.00    +0.000 C 
ENDBRANCH  27  28
ENDBRANCH  26  27
ENDBRANCH   5  26
TORSDOF 5
ENDMDL
MODEL 9
REMARK VINA RESULT:      -7.2      3.876      6.166
REMARK  Name = 
REMARK  11 active torsions:
REMARK  status: ('A' for Active; 'I' for Inactive)
REMARK    1  A    between atoms: C_6  and  C_10
REMARK    2  A    between atoms: N_17  and  C_20
REMARK    3  A    between atoms: C_19  and  C_21
REMARK    4  A    between atoms: C_20  and  C_22
REMARK    5  A    between atoms: C_21  and  C_23
REMARK    6  A    between atoms: C_21  and  C_24
REMARK    7  A    between atoms: C_21  and  C_25
REMARK    8  A    between atoms: C_22  and  C_26
REMARK    9  A    between atoms: C_26  and  C_27
REMARK   10  A    between atoms: C_26  and  C_28
REMARK   11  A    between atoms: C_26  and  C_29
REMARK                            x       y       z     vdW  Elec       q    Type
REMARK                         _______ _______ _______ _____ _____    ______ ____
ROOT
ATOM      1  C   UNL     1     -10.012  54.311  50.454  0.00  0.00    +0.000 C 
ATOM      2  C   UNL     1     -11.197  55.082  50.821  0.00  0.00    +0.000 C 
ATOM      3  C   UNL     1     -10.277  53.779  49.252  0.00  0.00    +0.000 C 
ATOM      4  O   UNL     1     -11.309  55.670  51.887  0.00  0.00    +0.000 OA
ATOM      5  N   UNL     1     -12.105  55.007  49.784  0.00  0.00    +0.000 N 
ATOM      6  O   UNL     1      -9.441  52.936  48.566  0.00  0.00    +0.000 OA
ATOM      7  C   UNL     1     -11.617  54.197  48.657  0.00  0.00    +0.000 C 
ENDROOT
BRANCH   1  13
ATOM      8  S   UNL     1      -7.736  54.165  53.605  0.00  0.00    +0.000 S 
ATOM      9  O   UNL     1      -7.896  52.862  54.229  0.00  0.00    +0.000 OA
ATOM     10  O   UNL     1      -7.631  55.354  54.418  0.00  0.00    +0.000 OA
ATOM     11  N   UNL     1      -8.971  54.377  52.576  0.00  0.00    +0.000 N 
ATOM     12  C   UNL     1      -6.250  54.073  52.671  0.00  0.00    +0.000 A 
ATOM     13  C   UNL     1      -8.796  54.196  51.301  0.00  0.00    +0.000 C 
ATOM     14  C   UNL     1      -6.360  53.941  51.294  0.00  0.00    +0.000 A 
ATOM     15  C   UNL     1      -5.012  54.151  53.316  0.00  0.00    +0.000 A 
ATOM     16  N   UNL     1      -7.606  53.899  50.675  0.00  0.00    +0.000 N 
ATOM     17  C   UNL     1      -5.184  53.894  50.539  0.00  0.00    +0.000 A 
ATOM     18  C   UNL     1      -3.849  54.104  52.550  0.00  0.00    +0.000 A 
ATOM     19  C   UNL     1      -3.935  53.980  51.164  0.00  0.00    +0.000 A 
ATOM     20  H   UNL     1      -9.855  54.643  52.917  0.00  0.00    +0.000 HD
ATOM     21  H   UNL     1      -7.638  53.641  49.725  0.00  0.00    +0.000 HD
ENDBRANCH   1  13
BRANCH   7  22
ATOM     22  C   UNL     1     -11.524  54.919  47.254  0.00  0.00    +0.000 C 
ATOM     23  C   UNL     1     -10.137  55.580  47.046  0.00  0.00    +0.000 C 
ATOM     24  C   UNL     1     -11.659  53.931  46.074  0.00  0.00    +0.000 C 
ATOM     25  C   UNL     1     -12.594  56.017  47.106  0.00  0.00    +0.000 C 
ENDBRANCH   7  22
BRANCH   5  26
ATOM     26  C   UNL     1     -13.377  55.699  49.878  0.00  0.00    +0.000 C 
BRANCH  26  27
ATOM     27  C   UNL     1     -13.285  57.159  50.324  0.00  0.00    +0.000 C 
BRANCH  27  28
ATOM     28  C   UNL     1     -14.464  57.615  51.228  0.00  0.00    +0.000 C 
ATOM     29  C   UNL     1     -14.110  57.507  52.722  0.00  0.00    +0.000 C 
ATOM     30  C   UNL     1     -14.791  59.087  50.918  0.00  0.00    +0.000 C 
ATOM     31  C   UNL     1     -15.711  56.761  50.940  0.00  0.00    +0.000 C 
ENDBRANCH  27  28
ENDBRANCH  26  27
ENDBRANCH   5  26
TORSDOF 5
ENDMDL
