MODEL 1
REMARK VINA RESULT:      -8.1      0.000      0.000
REMARK  Name = 
REMARK  10 active torsions:
REMARK  status: ('A' for Active; 'I' for Inactive)
REMARK    1  A    between atoms: C_6  and  C_10
REMARK    2  A    between atoms: N_17  and  C_20
REMARK    3  A    between atoms: C_19  and  C_21
REMARK    4  A    between atoms: C_20  and  C_22
REMARK    5  A    between atoms: C_21  and  C_23
REMARK    6  A    between atoms: C_21  and  C_24
REMARK    7  A    between atoms: C_21  and  C_25
REMARK    8  A    between atoms: C_22  and  C_26
REMARK    9  A    between atoms: C_26  and  C_27
REMARK   10  A    between atoms: C_26  and  C_28
REMARK                            x       y       z     vdW  Elec       q    Type
REMARK                         _______ _______ _______ _____ _____    ______ ____
ROOT
ATOM      1  C   UNL     1     -10.819  55.370  47.951  0.00  0.00    +0.000 C 
ATOM      2  C   UNL     1     -12.174  55.914  47.815  0.00  0.00    +0.000 C 
ATOM      3  C   UNL     1     -10.425  55.670  49.195  0.00  0.00    +0.000 C 
ATOM      4  O   UNL     1     -12.812  55.869  46.774  0.00  0.00    +0.000 OA
ATOM      5  N   UNL     1     -12.539  56.477  49.021  0.00  0.00    +0.000 N 
ATOM      6  O   UNL     1      -9.178  55.414  49.712  0.00  0.00    +0.000 OA
ATOM      7  C   UNL     1     -11.488  56.354  50.046  0.00  0.00    +0.000 C 
ENDROOT
BRANCH   1  13
ATOM      8  S   UNL     1      -7.944  54.341  45.530  0.00  0.00    +0.000 S 
ATOM      9  O   UNL     1      -6.990  53.519  46.245  0.00  0.00    +0.000 OA
ATOM     10  O   UNL     1      -7.491  55.337  44.579  0.00  0.00    +0.000 OA
ATOM     11  N   UNL     1      -8.881  55.093  46.623  0.00  0.00    +0.000 N 
ATOM     12  C   UNL     1      -8.954  53.225  44.619  0.00  0.00    +0.000 A 
ATOM     13  C   UNL     1     -10.081  54.664  46.865  0.00  0.00    +0.000 C 
ATOM     14  C   UNL     1     -10.237  52.984  45.088  0.00  0.00    +0.000 A 
ATOM     15  C   UNL     1      -8.456  52.615  43.464  0.00  0.00    +0.000 A 
ATOM     16  N   UNL     1     -10.720  53.627  46.223  0.00  0.00    +0.000 N 
ATOM     17  C   UNL     1     -11.043  52.095  44.373  0.00  0.00    +0.000 A 
ATOM     18  C   UNL     1      -9.273  51.735  42.758  0.00  0.00    +0.000 A 
ATOM     19  C   UNL     1     -10.566  51.476  43.213  0.00  0.00    +0.000 A 
ATOM     20  H   UNL     1      -8.536  55.880  47.104  0.00  0.00    +0.000 HD
ATOM     21  H   UNL     1     -11.579  53.319  46.593  0.00  0.00    +0.000 HD
ENDBRANCH   1  13
BRANCH   7  22
ATOM     22  C   UNL     1     -11.872  55.573  51.365  0.00  0.00    +0.000 C 
ATOM     23  C   UNL     1     -12.468  54.180  51.035  0.00  0.00    +0.000 C 
ATOM     24  C   UNL     1     -10.647  55.260  52.250  0.00  0.00    +0.000 C 
ATOM     25  C   UNL     1     -12.898  56.351  52.209  0.00  0.00    +0.000 C 
ENDBRANCH   7  22
BRANCH   5  26
ATOM     26  C   UNL     1     -13.826  57.140  49.169  0.00  0.00    +0.000 C 
BRANCH  26  27
ATOM     27  C   UNL     1     -13.893  58.527  48.535  0.00  0.00    +0.000 C 
BRANCH  27  28
ATOM     28  C   UNL     1     -14.306  59.629  49.531  0.00  0.00    +0.000 C 
ATOM     29  C   UNL     1     -14.838  59.067  50.851  0.00  0.00    +0.000 C 
ATOM     30  C   UNL     1     -13.108  60.540  49.811  0.00  0.00    +0.000 C 
ENDBRANCH  27  28
ENDBRANCH  26  27
ENDBRANCH   5  26
TORSDOF 5
ENDMDL
MODEL 2
REMARK VINA RESULT:      -7.6      3.566      6.071
REMARK  Name = 
REMARK  10 active torsions:
REMARK  status: ('A' for Active; 'I' for Inactive)
REMARK    1  A    between atoms: C_6  and  C_10
REMARK    2  A    between atoms: N_17  and  C_20
REMARK    3  A    between atoms: C_19  and  C_21
REMARK    4  A    between atoms: C_20  and  C_22
REMARK    5  A    between atoms: C_21  and  C_23
REMARK    6  A    between atoms: C_21  and  C_24
REMARK    7  A    between atoms: C_21  and  C_25
REMARK    8  A    between atoms: C_22  and  C_26
REMARK    9  A    between atoms: C_26  and  C_27
REMARK   10  A    between atoms: C_26  and  C_28
REMARK                            x       y       z     vdW  Elec       q    Type
REMARK                         _______ _______ _______ _____ _____    ______ ____
ROOT
ATOM      1  C   UNL     1     -10.218  55.078  50.621  0.00  0.00    +0.000 C 
ATOM      2  C   UNL     1     -11.272  55.348  51.603  0.00  0.00    +0.000 C 
ATOM      3  C   UNL     1     -10.831  55.004  49.433  0.00  0.00    +0.000 C 
ATOM      4  O   UNL     1     -11.066  55.415  52.806  0.00  0.00    +0.000 OA
ATOM      5  N   UNL     1     -12.471  55.469  50.930  0.00  0.00    +0.000 N 
ATOM      6  O   UNL     1     -10.217  54.683  48.246  0.00  0.00    +0.000 OA
ATOM      7  C   UNL     1     -12.324  55.304  49.474  0.00  0.00    +0.000 C 
ENDROOT
BRANCH   1  13
ATOM      8  S   UNL     1      -6.418  54.311  50.223  0.00  0.00    +0.000 S 
ATOM      9  O   UNL     1      -5.774  55.425  49.558  0.00  0.00    +0.000 OA
ATOM     10  O   UNL     1      -6.048  52.947  49.900  0.00  0.00    +0.000 OA
ATOM     11  N   UNL     1      -8.021  54.452  50.005  0.00  0.00    +0.000 N 
ATOM     12  C   UNL     1      -6.079  54.513  51.938  0.00  0.00    +0.000 A 
ATOM     13  C   UNL     1      -8.777  54.902  50.959  0.00  0.00    +0.000 C 
ATOM     14  C   UNL     1      -7.105  54.971  52.749  0.00  0.00    +0.000 A 
ATOM     15  C   UNL     1      -4.809  54.213  52.439  0.00  0.00    +0.000 A 
ATOM     16  N   UNL     1      -8.370  55.233  52.232  0.00  0.00    +0.000 N 
ATOM     17  C   UNL     1      -6.842  55.139  54.112  0.00  0.00    +0.000 A 
ATOM     18  C   UNL     1      -4.563  54.380  53.801  0.00  0.00    +0.000 A 
ATOM     19  C   UNL     1      -5.580  54.842  54.636  0.00  0.00    +0.000 A 
ATOM     20  H   UNL     1      -8.422  54.193  49.143  0.00  0.00    +0.000 HD
ATOM     21  H   UNL     1      -9.019  55.687  52.817  0.00  0.00    +0.000 HD
ENDBRANCH   1  13
BRANCH   7  22
ATOM     22  C   UNL     1     -12.772  56.522  48.573  0.00  0.00    +0.000 C 
ATOM     23  C   UNL     1     -12.336  56.315  47.099  0.00  0.00    +0.000 C 
ATOM     24  C   UNL     1     -14.307  56.673  48.496  0.00  0.00    +0.000 C 
ATOM     25  C   UNL     1     -12.175  57.850  49.072  0.00  0.00    +0.000 C 
ENDBRANCH   7  22
BRANCH   5  26
ATOM     26  C   UNL     1     -13.710  55.693  51.660  0.00  0.00    +0.000 C 
BRANCH  26  27
ATOM     27  C   UNL     1     -13.782  57.039  52.375  0.00  0.00    +0.000 C 
BRANCH  27  28
ATOM     28  C   UNL     1     -15.132  57.758  52.179  0.00  0.00    +0.000 C 
ATOM     29  C   UNL     1     -15.011  59.029  51.334  0.00  0.00    +0.000 C 
ATOM     30  C   UNL     1     -16.130  56.803  51.520  0.00  0.00    +0.000 C 
ENDBRANCH  27  28
ENDBRANCH  26  27
ENDBRANCH   5  26
TORSDOF 5
ENDMDL
MODEL 3
REMARK VINA RESULT:      -7.5      2.816      7.751
REMARK  Name = 
REMARK  10 active torsions:
REMARK  status: ('A' for Active; 'I' for Inactive)
REMARK    1  A    between atoms: C_6  and  C_10
REMARK    2  A    between atoms: N_17  and  C_20
REMARK    3  A    between atoms: C_19  and  C_21
REMARK    4  A    between atoms: C_20  and  C_22
REMARK    5  A    between atoms: C_21  and  C_23
REMARK    6  A    between atoms: C_21  and  C_24
REMARK    7  A    between atoms: C_21  and  C_25
REMARK    8  A    between atoms: C_22  and  C_26
REMARK    9  A    between atoms: C_26  and  C_27
REMARK   10  A    between atoms: C_26  and  C_28
REMARK                            x       y       z     vdW  Elec       q    Type
REMARK                         _______ _______ _______ _____ _____    ______ ____
ROOT
ATOM      1  C   UNL     1     -12.049  54.760  48.435  0.00  0.00    +0.000 C 
ATOM      2  C   UNL     1     -11.510  54.996  47.092  0.00  0.00    +0.000 C 
ATOM      3  C   UNL     1     -11.629  53.539  48.792  0.00  0.00    +0.000 C 
ATOM      4  O   UNL     1     -11.756  55.999  46.440  0.00  0.00    +0.000 OA
ATOM      5  N   UNL     1     -10.745  53.905  46.734  0.00  0.00    +0.000 N 
ATOM      6  O   UNL     1     -11.977  52.891  49.951  0.00  0.00    +0.000 OA
ATOM      7  C   UNL     1     -10.700  52.873  47.784  0.00  0.00    +0.000 C 
ENDROOT
BRANCH   1  13
ATOM      8  S   UNL     1     -14.817  56.138  50.807  0.00  0.00    +0.000 S 
ATOM      9  O   UNL     1     -14.382  55.995  52.181  0.00  0.00    +0.000 OA
ATOM     10  O   UNL     1     -16.194  55.876  50.439  0.00  0.00    +0.000 OA
ATOM     11  N   UNL     1     -13.871  55.199  49.878  0.00  0.00    +0.000 N 
ATOM     12  C   UNL     1     -14.512  57.817  50.378  0.00  0.00    +0.000 A 
ATOM     13  C   UNL     1     -12.912  55.722  49.178  0.00  0.00    +0.000 C 
ATOM     14  C   UNL     1     -13.425  58.087  49.560  0.00  0.00    +0.000 A 
ATOM     15  C   UNL     1     -15.351  58.826  50.859  0.00  0.00    +0.000 A 
ATOM     16  N   UNL     1     -12.621  57.063  49.069  0.00  0.00    +0.000 N 
ATOM     17  C   UNL     1     -13.172  59.419  49.219  0.00  0.00    +0.000 A 
ATOM     18  C   UNL     1     -15.091  60.148  50.506  0.00  0.00    +0.000 A 
ATOM     19  C   UNL     1     -14.002  60.443  49.686  0.00  0.00    +0.000 A 
ATOM     20  H   UNL     1     -14.028  54.227  49.845  0.00  0.00    +0.000 HD
ATOM     21  H   UNL     1     -11.787  57.315  48.612  0.00  0.00    +0.000 HD
ENDBRANCH   1  13
BRANCH   7  22
ATOM     22  C   UNL     1      -9.274  52.502  48.353  0.00  0.00    +0.000 C 
ATOM     23  C   UNL     1      -9.352  51.271  49.294  0.00  0.00    +0.000 C 
ATOM     24  C   UNL     1      -8.284  52.073  47.249  0.00  0.00    +0.000 C 
ATOM     25  C   UNL     1      -8.652  53.672  49.138  0.00  0.00    +0.000 C 
ENDBRANCH   7  22
BRANCH   5  26
ATOM     26  C   UNL     1     -10.118  53.839  45.422  0.00  0.00    +0.000 C 
BRANCH  26  27
ATOM     27  C   UNL     1     -10.885  53.002  44.402  0.00  0.00    +0.000 C 
BRANCH  27  28
ATOM     28  C   UNL     1     -10.032  52.606  43.180  0.00  0.00    +0.000 C 
ATOM     29  C   UNL     1      -8.564  53.018  43.322  0.00  0.00    +0.000 C 
ATOM     30  C   UNL     1     -10.117  51.093  42.965  0.00  0.00    +0.000 C 
ENDBRANCH  27  28
ENDBRANCH  26  27
ENDBRANCH   5  26
TORSDOF 5
ENDMDL
MODEL 4
REMARK VINA RESULT:      -7.4      2.808      7.582
REMARK  Name = 
REMARK  10 active torsions:
REMARK  status: ('A' for Active; 'I' for Inactive)
REMARK    1  A    between atoms: C_6  and  C_10
REMARK    2  A    between atoms: N_17  and  C_20
REMARK    3  A    between atoms: C_19  and  C_21
REMARK    4  A    between atoms: C_20  and  C_22
REMARK    5  A    between atoms: C_21  and  C_23
REMARK    6  A    between atoms: C_21  and  C_24
REMARK    7  A    between atoms: C_21  and  C_25
REMARK    8  A    between atoms: C_22  and  C_26
REMARK    9  A    between atoms: C_26  and  C_27
REMARK   10  A    between atoms: C_26  and  C_28
REMARK                            x       y       z     vdW  Elec       q    Type
REMARK                         _______ _______ _______ _____ _____    ______ ____
ROOT
ATOM      1  C   UNL     1     -11.747  55.594  48.697  0.00  0.00    +0.000 C 
ATOM      2  C   UNL     1     -11.637  55.404  47.247  0.00  0.00    +0.000 C 
ATOM      3  C   UNL     1     -10.984  54.645  49.253  0.00  0.00    +0.000 C 
ATOM      4  O   UNL     1     -12.262  56.069  46.435  0.00  0.00    +0.000 OA
ATOM      5  N   UNL     1     -10.761  54.364  47.012  0.00  0.00    +0.000 N 
ATOM      6  O   UNL     1     -10.868  54.413  50.602  0.00  0.00    +0.000 OA
ATOM      7  C   UNL     1     -10.216  53.788  48.253  0.00  0.00    +0.000 C 
ENDROOT
BRANCH   1  13
ATOM      8  S   UNL     1     -13.496  59.012  49.368  0.00  0.00    +0.000 S 
ATOM      9  O   UNL     1     -14.618  59.159  48.463  0.00  0.00    +0.000 OA
ATOM     10  O   UNL     1     -12.643  60.143  49.672  0.00  0.00    +0.000 OA
ATOM     11  N   UNL     1     -12.549  57.817  48.807  0.00  0.00    +0.000 N 
ATOM     12  C   UNL     1     -14.180  58.493  50.903  0.00  0.00    +0.000 A 
ATOM     13  C   UNL     1     -12.588  56.639  49.348  0.00  0.00    +0.000 C 
ATOM     14  C   UNL     1     -14.028  57.162  51.261  0.00  0.00    +0.000 A 
ATOM     15  C   UNL     1     -14.850  59.411  51.716  0.00  0.00    +0.000 A 
ATOM     16  N   UNL     1     -13.330  56.273  50.448  0.00  0.00    +0.000 N 
ATOM     17  C   UNL     1     -14.573  56.740  52.476  0.00  0.00    +0.000 A 
ATOM     18  C   UNL     1     -15.384  58.978  52.928  0.00  0.00    +0.000 A 
ATOM     19  C   UNL     1     -15.244  57.643  53.307  0.00  0.00    +0.000 A 
ATOM     20  H   UNL     1     -11.940  57.989  48.051  0.00  0.00    +0.000 HD
ATOM     21  H   UNL     1     -13.370  55.316  50.676  0.00  0.00    +0.000 HD
ENDBRANCH   1  13
BRANCH   7  22
ATOM     22  C   UNL     1      -8.646  53.830  48.426  0.00  0.00    +0.000 C 
ATOM     23  C   UNL     1      -8.211  53.136  49.743  0.00  0.00    +0.000 C 
ATOM     24  C   UNL     1      -7.904  53.046  47.322  0.00  0.00    +0.000 C 
ATOM     25  C   UNL     1      -8.113  55.274  48.441  0.00  0.00    +0.000 C 
ENDBRANCH   7  22
BRANCH   5  26
ATOM     26  C   UNL     1     -10.491  53.916  45.654  0.00  0.00    +0.000 C 
BRANCH  26  27
ATOM     27  C   UNL     1     -11.671  53.229  44.974  0.00  0.00    +0.000 C 
BRANCH  27  28
ATOM     28  C   UNL     1     -11.729  51.712  45.247  0.00  0.00    +0.000 C 
ATOM     29  C   UNL     1     -10.347  51.101  45.494  0.00  0.00    +0.000 C 
ATOM     30  C   UNL     1     -12.628  51.444  46.456  0.00  0.00    +0.000 C 
ENDBRANCH  27  28
ENDBRANCH  26  27
ENDBRANCH   5  26
TORSDOF 5
ENDMDL
MODEL 5
REMARK VINA RESULT:      -7.4      2.981      7.770
REMARK  Name = 
REMARK  10 active torsions:
REMARK  status: ('A' for Active; 'I' for Inactive)
REMARK    1  A    between atoms: C_6  and  C_10
REMARK    2  A    between atoms: N_17  and  C_20
REMARK    3  A    between atoms: C_19  and  C_21
REMARK    4  A    between atoms: C_20  and  C_22
REMARK    5  A    between atoms: C_21  and  C_23
REMARK    6  A    between atoms: C_21  and  C_24
REMARK    7  A    between atoms: C_21  and  C_25
REMARK    8  A    between atoms: C_22  and  C_26
REMARK    9  A    between atoms: C_26  and  C_27
REMARK   10  A    between atoms: C_26  and  C_28
REMARK                            x       y       z     vdW  Elec       q    Type
REMARK                         _______ _______ _______ _____ _____    ______ ____
ROOT
ATOM      1  C   UNL     1     -11.507  55.822  48.866  0.00  0.00    +0.000 C 
ATOM      2  C   UNL     1     -10.551  55.006  49.622  0.00  0.00    +0.000 C 
ATOM      3  C   UNL     1     -11.336  55.492  47.579  0.00  0.00    +0.000 C 
ATOM      4  O   UNL     1     -10.397  55.103  50.830  0.00  0.00    +0.000 OA
ATOM      5  N   UNL     1      -9.884  54.186  48.735  0.00  0.00    +0.000 N 
ATOM      6  O   UNL     1     -11.980  56.083  46.520  0.00  0.00    +0.000 OA
ATOM      7  C   UNL     1     -10.331  54.370  47.344  0.00  0.00    +0.000 C 
ENDROOT
BRANCH   1  13
ATOM      8  S   UNL     1     -13.498  59.125  49.420  0.00  0.00    +0.000 S 
ATOM      9  O   UNL     1     -14.609  59.173  48.492  0.00  0.00    +0.000 OA
ATOM     10  O   UNL     1     -12.730  60.320  49.711  0.00  0.00    +0.000 OA
ATOM     11  N   UNL     1     -12.460  57.986  48.906  0.00  0.00    +0.000 N 
ATOM     12  C   UNL     1     -14.175  58.597  50.955  0.00  0.00    +0.000 A 
ATOM     13  C   UNL     1     -12.429  56.821  49.476  0.00  0.00    +0.000 C 
ATOM     14  C   UNL     1     -13.938  57.288  51.349  0.00  0.00    +0.000 A 
ATOM     15  C   UNL     1     -14.922  59.486  51.733  0.00  0.00    +0.000 A 
ATOM     16  N   UNL     1     -13.166  56.431  50.571  0.00  0.00    +0.000 N 
ATOM     17  C   UNL     1     -14.477  56.859  52.565  0.00  0.00    +0.000 A 
ATOM     18  C   UNL     1     -15.447  59.046  52.946  0.00  0.00    +0.000 A 
ATOM     19  C   UNL     1     -15.224  57.733  53.361  0.00  0.00    +0.000 A 
ATOM     20  H   UNL     1     -11.851  58.181  48.157  0.00  0.00    +0.000 HD
ATOM     21  H   UNL     1     -13.145  55.479  50.822  0.00  0.00    +0.000 HD
ENDBRANCH   1  13
BRANCH   7  22
ATOM     22  C   UNL     1     -10.926  53.101  46.615  0.00  0.00    +0.000 C 
ATOM     23  C   UNL     1     -11.382  53.448  45.174  0.00  0.00    +0.000 C 
ATOM     24  C   UNL     1      -9.881  51.981  46.422  0.00  0.00    +0.000 C 
ATOM     25  C   UNL     1     -12.130  52.519  47.377  0.00  0.00    +0.000 C 
ENDBRANCH   7  22
BRANCH   5  26
ATOM     26  C   UNL     1      -8.833  53.292  49.200  0.00  0.00    +0.000 C 
BRANCH  26  27
ATOM     27  C   UNL     1      -7.421  53.850  49.047  0.00  0.00    +0.000 C 
BRANCH  27  28
ATOM     28  C   UNL     1      -6.871  54.472  50.346  0.00  0.00    +0.000 C 
ATOM     29  C   UNL     1      -5.414  54.086  50.617  0.00  0.00    +0.000 C 
ATOM     30  C   UNL     1      -6.989  55.996  50.275  0.00  0.00    +0.000 C 
ENDBRANCH  27  28
ENDBRANCH  26  27
ENDBRANCH   5  26
TORSDOF 5
ENDMDL
MODEL 6
REMARK VINA RESULT:      -7.3      3.629      6.616
REMARK  Name = 
REMARK  10 active torsions:
REMARK  status: ('A' for Active; 'I' for Inactive)
REMARK    1  A    between atoms: C_6  and  C_10
REMARK    2  A    between atoms: N_17  and  C_20
REMARK    3  A    between atoms: C_19  and  C_21
REMARK    4  A    between atoms: C_20  and  C_22
REMARK    5  A    between atoms: C_21  and  C_23
REMARK    6  A    between atoms: C_21  and  C_24
REMARK    7  A    between atoms: C_21  and  C_25
REMARK    8  A    between atoms: C_22  and  C_26
REMARK    9  A    between atoms: C_26  and  C_27
REMARK   10  A    between atoms: C_26  and  C_28
REMARK                            x       y       z     vdW  Elec       q    Type
REMARK                         _______ _______ _______ _____ _____    ______ ____
ROOT
ATOM      1  C   UNL     1     -10.754  54.069  50.553  0.00  0.00    +0.000 C 
ATOM      2  C   UNL     1     -11.672  55.177  50.837  0.00  0.00    +0.000 C 
ATOM      3  C   UNL     1     -11.081  53.624  49.333  0.00  0.00    +0.000 C 
ATOM      4  O   UNL     1     -11.690  55.774  51.903  0.00  0.00    +0.000 OA
ATOM      5  N   UNL     1     -12.479  55.366  49.734  0.00  0.00    +0.000 N 
ATOM      6  O   UNL     1     -10.519  52.535  48.712  0.00  0.00    +0.000 OA
ATOM      7  C   UNL     1     -12.173  54.430  48.639  0.00  0.00    +0.000 C 
ENDROOT
BRANCH   1  13
ATOM      8  S   UNL     1      -8.625  51.637  52.729  0.00  0.00    +0.000 S 
ATOM      9  O   UNL     1      -7.708  50.911  51.874  0.00  0.00    +0.000 OA
ATOM     10  O   UNL     1      -9.298  50.966  53.823  0.00  0.00    +0.000 OA
ATOM     11  N   UNL     1      -9.765  52.312  51.788  0.00  0.00    +0.000 N 
ATOM     12  C   UNL     1      -7.682  52.930  53.458  0.00  0.00    +0.000 A 
ATOM     13  C   UNL     1      -9.712  53.575  51.496  0.00  0.00    +0.000 C 
ATOM     14  C   UNL     1      -7.867  54.217  52.975  0.00  0.00    +0.000 A 
ATOM     15  C   UNL     1      -6.782  52.644  54.489  0.00  0.00    +0.000 A 
ATOM     16  N   UNL     1      -8.790  54.481  51.968  0.00  0.00    +0.000 N 
ATOM     17  C   UNL     1      -7.117  55.249  53.546  0.00  0.00    +0.000 A 
ATOM     18  C   UNL     1      -6.046  53.684  55.053  0.00  0.00    +0.000 A 
ATOM     19  C   UNL     1      -6.215  54.985  54.581  0.00  0.00    +0.000 A 
ATOM     20  H   UNL     1     -10.500  51.758  51.438  0.00  0.00    +0.000 HD
ATOM     21  H   UNL     1      -8.784  55.380  51.566  0.00  0.00    +0.000 HD
ENDBRANCH   1  13
BRANCH   7  22
ATOM     22  C   UNL     1     -11.738  55.069  47.260  0.00  0.00    +0.000 C 
ATOM     23  C   UNL     1     -10.261  55.538  47.305  0.00  0.00    +0.000 C 
ATOM     24  C   UNL     1     -11.780  54.057  46.096  0.00  0.00    +0.000 C 
ATOM     25  C   UNL     1     -12.619  56.276  46.889  0.00  0.00    +0.000 C 
ENDBRANCH   7  22
BRANCH   5  26
ATOM     26  C   UNL     1     -13.527  56.376  49.748  0.00  0.00    +0.000 C 
BRANCH  26  27
ATOM     27  C   UNL     1     -14.778  55.972  50.523  0.00  0.00    +0.000 C 
BRANCH  27  28
ATOM     28  C   UNL     1     -15.486  57.166  51.195  0.00  0.00    +0.000 C 
ATOM     29  C   UNL     1     -15.420  57.112  52.723  0.00  0.00    +0.000 C 
ATOM     30  C   UNL     1     -14.861  58.474  50.703  0.00  0.00    +0.000 C 
ENDBRANCH  27  28
ENDBRANCH  26  27
ENDBRANCH   5  26
TORSDOF 5
ENDMDL
MODEL 7
REMARK VINA RESULT:      -7.2      2.470      3.492
REMARK  Name = 
REMARK  10 active torsions:
REMARK  status: ('A' for Active; 'I' for Inactive)
REMARK    1  A    between atoms: C_6  and  C_10
REMARK    2  A    between atoms: N_17  and  C_20
REMARK    3  A    between atoms: C_19  and  C_21
REMARK    4  A    between atoms: C_20  and  C_22
REMARK    5  A    between atoms: C_21  and  C_23
REMARK    6  A    between atoms: C_21  and  C_24
REMARK    7  A    between atoms: C_21  and  C_25
REMARK    8  A    between atoms: C_22  and  C_26
REMARK    9  A    between atoms: C_26  and  C_27
REMARK   10  A    between atoms: C_26  and  C_28
REMARK                            x       y       z     vdW  Elec       q    Type
REMARK                         _______ _______ _______ _____ _____    ______ ____
ROOT
ATOM      1  C   UNL     1     -10.536  55.800  48.616  0.00  0.00    +0.000 C 
ATOM      2  C   UNL     1     -11.702  56.168  47.806  0.00  0.00    +0.000 C 
ATOM      3  C   UNL     1     -10.834  56.152  49.873  0.00  0.00    +0.000 C 
ATOM      4  O   UNL     1     -11.741  56.040  46.592  0.00  0.00    +0.000 OA
ATOM      5  N   UNL     1     -12.667  56.685  48.646  0.00  0.00    +0.000 N 
ATOM      6  O   UNL     1      -9.979  56.057  50.943  0.00  0.00    +0.000 OA
ATOM      7  C   UNL     1     -12.245  56.698  50.057  0.00  0.00    +0.000 C 
ENDROOT
BRANCH   1  13
ATOM      8  S   UNL     1      -8.143  53.799  46.280  0.00  0.00    +0.000 S 
ATOM      9  O   UNL     1      -7.872  54.581  45.092  0.00  0.00    +0.000 OA
ATOM     10  O   UNL     1      -8.353  52.368  46.187  0.00  0.00    +0.000 OA
ATOM     11  N   UNL     1      -9.438  54.440  47.022  0.00  0.00    +0.000 N 
ATOM     12  C   UNL     1      -6.748  54.018  47.329  0.00  0.00    +0.000 A 
ATOM     13  C   UNL     1      -9.290  55.190  48.070  0.00  0.00    +0.000 C 
ATOM     14  C   UNL     1      -6.890  54.853  48.427  0.00  0.00    +0.000 A 
ATOM     15  C   UNL     1      -5.548  53.361  47.043  0.00  0.00    +0.000 A 
ATOM     16  N   UNL     1      -8.103  55.472  48.708  0.00  0.00    +0.000 N 
ATOM     17  C   UNL     1      -5.784  55.036  49.262  0.00  0.00    +0.000 A 
ATOM     18  C   UNL     1      -4.456  53.548  47.887  0.00  0.00    +0.000 A 
ATOM     19  C   UNL     1      -4.575  54.385  48.996  0.00  0.00    +0.000 A 
ATOM     20  H   UNL     1     -10.342  54.258  46.674  0.00  0.00    +0.000 HD
ATOM     21  H   UNL     1      -8.114  56.160  49.413  0.00  0.00    +0.000 HD
ENDBRANCH   1  13
BRANCH   7  22
ATOM     22  C   UNL     1     -13.136  55.880  51.073  0.00  0.00    +0.000 C 
ATOM     23  C   UNL     1     -13.202  56.588  52.452  0.00  0.00    +0.000 C 
ATOM     24  C   UNL     1     -14.610  55.781  50.627  0.00  0.00    +0.000 C 
ATOM     25  C   UNL     1     -12.594  54.455  51.286  0.00  0.00    +0.000 C 
ENDBRANCH   7  22
BRANCH   5  26
ATOM     26  C   UNL     1     -13.926  57.181  48.111  0.00  0.00    +0.000 C 
BRANCH  26  27
ATOM     27  C   UNL     1     -14.108  58.691  48.232  0.00  0.00    +0.000 C 
BRANCH  27  28
ATOM     28  C   UNL     1     -13.818  59.225  49.649  0.00  0.00    +0.000 C 
ATOM     29  C   UNL     1     -13.073  60.562  49.638  0.00  0.00    +0.000 C 
ATOM     30  C   UNL     1     -15.133  59.381  50.416  0.00  0.00    +0.000 C 
ENDBRANCH  27  28
ENDBRANCH  26  27
ENDBRANCH   5  26
TORSDOF 5
ENDMDL
MODEL 8
REMARK VINA RESULT:      -7.2      3.258      7.503
REMARK  Name = 
REMARK  10 active torsions:
REMARK  status: ('A' for Active; 'I' for Inactive)
REMARK    1  A    between atoms: C_6  and  C_10
REMARK    2  A    between atoms: N_17  and  C_20
REMARK    3  A    between atoms: C_19  and  C_21
REMARK    4  A    between atoms: C_20  and  C_22
REMARK    5  A    between atoms: C_21  and  C_23
REMARK    6  A    between atoms: C_21  and  C_24
REMARK    7  A    between atoms: C_21  and  C_25
REMARK    8  A    between atoms: C_22  and  C_26
REMARK    9  A    between atoms: C_26  and  C_27
REMARK   10  A    between atoms: C_26  and  C_28
REMARK                            x       y       z     vdW  Elec       q    Type
REMARK                         _______ _______ _______ _____ _____    ______ ____
ROOT
ATOM      1  C   UNL     1     -12.405  54.265  49.829  0.00  0.00    +0.000 C 
ATOM      2  C   UNL     1     -11.825  54.004  48.508  0.00  0.00    +0.000 C 
ATOM      3  C   UNL     1     -12.062  53.222  50.595  0.00  0.00    +0.000 C 
ATOM      4  O   UNL     1     -12.000  54.733  47.544  0.00  0.00    +0.000 OA
ATOM      5  N   UNL     1     -11.115  52.822  48.573  0.00  0.00    +0.000 N 
ATOM      6  O   UNL     1     -12.472  53.027  51.892  0.00  0.00    +0.000 OA
ATOM      7  C   UNL     1     -11.151  52.210  49.912  0.00  0.00    +0.000 C 
ENDROOT
BRANCH   1  13
ATOM      8  S   UNL     1     -15.323  56.446  51.215  0.00  0.00    +0.000 S 
ATOM      9  O   UNL     1     -15.196  56.552  52.654  0.00  0.00    +0.000 OA
ATOM     10  O   UNL     1     -16.625  56.276  50.601  0.00  0.00    +0.000 OA
ATOM     11  N   UNL     1     -14.379  55.221  50.715  0.00  0.00    +0.000 N 
ATOM     12  C   UNL     1     -14.670  57.942  50.562  0.00  0.00    +0.000 A 
ATOM     13  C   UNL     1     -13.229  55.461  50.165  0.00  0.00    +0.000 C 
ATOM     14  C   UNL     1     -13.414  57.897  49.974  0.00  0.00    +0.000 A 
ATOM     15  C   UNL     1     -15.411  59.124  50.644  0.00  0.00    +0.000 A 
ATOM     16  N   UNL     1     -12.708  56.703  49.877  0.00  0.00    +0.000 N 
ATOM     17  C   UNL     1     -12.886  59.084  49.458  0.00  0.00    +0.000 A 
ATOM     18  C   UNL     1     -14.874  60.298  50.119  0.00  0.00    +0.000 A 
ATOM     19  C   UNL     1     -13.612  60.276  49.526  0.00  0.00    +0.000 A 
ATOM     20  H   UNL     1     -14.683  54.291  50.829  0.00  0.00    +0.000 HD
ATOM     21  H   UNL     1     -11.770  56.748  49.581  0.00  0.00    +0.000 HD
ENDBRANCH   1  13
BRANCH   7  22
ATOM     22  C   UNL     1      -9.760  51.992  50.630  0.00  0.00    +0.000 C 
ATOM     23  C   UNL     1      -8.913  53.291  50.609  0.00  0.00    +0.000 C 
ATOM     24  C   UNL     1      -9.909  51.661  52.130  0.00  0.00    +0.000 C 
ATOM     25  C   UNL     1      -8.944  50.871  49.961  0.00  0.00    +0.000 C 
ENDBRANCH   7  22
BRANCH   5  26
ATOM     26  C   UNL     1     -10.465  52.283  47.387  0.00  0.00    +0.000 C 
BRANCH  26  27
ATOM     27  C   UNL     1      -9.061  52.828  47.140  0.00  0.00    +0.000 C 
BRANCH  27  28
ATOM     28  C   UNL     1      -8.954  53.661  45.846  0.00  0.00    +0.000 C 
ATOM     29  C   UNL     1     -10.147  53.456  44.909  0.00  0.00    +0.000 C 
ATOM     30  C   UNL     1      -8.833  55.145  46.201  0.00  0.00    +0.000 C 
ENDBRANCH  27  28
ENDBRANCH  26  27
ENDBRANCH   5  26
TORSDOF 5
ENDMDL
MODEL 9
REMARK VINA RESULT:      -7.1      2.730      7.471
REMARK  Name = 
REMARK  10 active torsions:
REMARK  status: ('A' for Active; 'I' for Inactive)
REMARK    1  A    between atoms: C_6  and  C_10
REMARK    2  A    between atoms: N_17  and  C_20
REMARK    3  A    between atoms: C_19  and  C_21
REMARK    4  A    between atoms: C_20  and  C_22
REMARK    5  A    between atoms: C_21  and  C_23
REMARK    6  A    between atoms: C_21  and  C_24
REMARK    7  A    between atoms: C_21  and  C_25
REMARK    8  A    between atoms: C_22  and  C_26
REMARK    9  A    between atoms: C_26  and  C_27
REMARK   10  A    between atoms: C_26  and  C_28
REMARK                            x       y       z     vdW  Elec       q    Type
REMARK                         _______ _______ _______ _____ _____    ______ ____
ROOT
ATOM      1  C   UNL     1     -10.705  55.150  49.914  0.00  0.00    +0.000 C 
ATOM      2  C   UNL     1      -9.882  55.111  48.701  0.00  0.00    +0.000 C 
ATOM      3  C   UNL     1     -10.156  54.269  50.760  0.00  0.00    +0.000 C 
ATOM      4  O   UNL     1     -10.142  55.754  47.695  0.00  0.00    +0.000 OA
ATOM      5  N   UNL     1      -8.842  54.229  48.911  0.00  0.00    +0.000 N 
ATOM      6  O   UNL     1     -10.665  53.933  51.990  0.00  0.00    +0.000 OA
ATOM      7  C   UNL     1      -8.872  53.623  50.253  0.00  0.00    +0.000 C 
ENDROOT
BRANCH   1  13
ATOM      8  S   UNL     1     -13.764  57.402  49.045  0.00  0.00    +0.000 S 
ATOM      9  O   UNL     1     -14.839  56.572  48.540  0.00  0.00    +0.000 OA
ATOM     10  O   UNL     1     -13.487  58.693  48.447  0.00  0.00    +0.000 OA
ATOM     11  N   UNL     1     -12.392  56.533  49.000  0.00  0.00    +0.000 N 
ATOM     12  C   UNL     1     -14.155  57.722  50.730  0.00  0.00    +0.000 A 
ATOM     13  C   UNL     1     -11.916  56.002  50.084  0.00  0.00    +0.000 C 
ATOM     14  C   UNL     1     -13.439  57.037  51.700  0.00  0.00    +0.000 A 
ATOM     15  C   UNL     1     -15.157  58.641  51.053  0.00  0.00    +0.000 A 
ATOM     16  N   UNL     1     -12.425  56.149  51.354  0.00  0.00    +0.000 N 
ATOM     17  C   UNL     1     -13.747  57.282  53.042  0.00  0.00    +0.000 A 
ATOM     18  C   UNL     1     -15.449  58.880  52.395  0.00  0.00    +0.000 A 
ATOM     19  C   UNL     1     -14.743  58.200  53.387  0.00  0.00    +0.000 A 
ATOM     20  H   UNL     1     -11.919  56.409  48.145  0.00  0.00    +0.000 HD
ATOM     21  H   UNL     1     -12.046  55.587  52.068  0.00  0.00    +0.000 HD
ENDBRANCH   1  13
BRANCH   7  22
ATOM     22  C   UNL     1      -7.609  53.868  51.171  0.00  0.00    +0.000 C 
ATOM     23  C   UNL     1      -7.808  53.234  52.572  0.00  0.00    +0.000 C 
ATOM     24  C   UNL     1      -6.336  53.188  50.625  0.00  0.00    +0.000 C 
ATOM     25  C   UNL     1      -7.321  55.369  51.355  0.00  0.00    +0.000 C 
ENDBRANCH   7  22
BRANCH   5  26
ATOM     26  C   UNL     1      -7.882  53.951  47.852  0.00  0.00    +0.000 C 
BRANCH  26  27
ATOM     27  C   UNL     1      -8.320  52.858  46.881  0.00  0.00    +0.000 C 
BRANCH  27  28
ATOM     28  C   UNL     1      -8.458  53.358  45.429  0.00  0.00    +0.000 C 
ATOM     29  C   UNL     1      -9.916  53.457  44.972  0.00  0.00    +0.000 C 
ATOM     30  C   UNL     1      -7.788  54.727  45.293  0.00  0.00    +0.000 C 
ENDBRANCH  27  28
ENDBRANCH  26  27
ENDBRANCH   5  26
TORSDOF 5
ENDMDL
