MODEL 1
REMARK VINA RESULT:      -8.0      0.000      0.000
REMARK  Name = 
REMARK  7 active torsions:
REMARK  status: ('A' for Active; 'I' for Inactive)
REMARK    1  A    between atoms: C_6  and  C_10
REMARK    2  A    between atoms: N_17  and  C_20
REMARK    3  A    between atoms: C_19  and  C_21
REMARK    4  A    between atoms: C_20  and  C_22
REMARK    5  A    between atoms: C_21  and  C_23
REMARK    6  A    between atoms: C_21  and  C_24
REMARK    7  A    between atoms: C_21  and  C_25
REMARK                            x       y       z     vdW  Elec       q    Type
REMARK                         _______ _______ _______ _____ _____    ______ ____
ROOT
ATOM      1  C   UNL     1     -11.469  55.836  48.892  0.00  0.00    +0.000 C 
ATOM      2  C   UNL     1     -10.538  55.002  49.662  0.00  0.00    +0.000 C 
ATOM      3  C   UNL     1     -11.304  55.487  47.611  0.00  0.00    +0.000 C 
ATOM      4  O   UNL     1     -10.368  55.124  50.862  0.00  0.00    +0.000 OA
ATOM      5  N   UNL     1      -9.955  54.099  48.797  0.00  0.00    +0.000 N 
ATOM      6  O   UNL     1     -11.950  56.070  46.547  0.00  0.00    +0.000 OA
ATOM      7  C   UNL     1     -10.329  54.335  47.393  0.00  0.00    +0.000 C 
ENDROOT
BRANCH   1  13
ATOM      8  S   UNL     1     -13.486  59.120  49.418  0.00  0.00    +0.000 S 
ATOM      9  O   UNL     1     -14.586  59.151  48.480  0.00  0.00    +0.000 OA
ATOM     10  O   UNL     1     -12.749  60.337  49.705  0.00  0.00    +0.000 OA
ATOM     11  N   UNL     1     -12.414  58.010  48.932  0.00  0.00    +0.000 N 
ATOM     12  C   UNL     1     -14.166  58.595  50.953  0.00  0.00    +0.000 A 
ATOM     13  C   UNL     1     -12.396  56.833  49.491  0.00  0.00    +0.000 C 
ATOM     14  C   UNL     1     -13.929  57.289  51.341  0.00  0.00    +0.000 A 
ATOM     15  C   UNL     1     -14.916  59.481  51.730  0.00  0.00    +0.000 A 
ATOM     16  N   UNL     1     -13.160  56.434  50.561  0.00  0.00    +0.000 N 
ATOM     17  C   UNL     1     -14.457  56.857  52.562  0.00  0.00    +0.000 A 
ATOM     18  C   UNL     1     -15.435  59.039  52.944  0.00  0.00    +0.000 A 
ATOM     19  C   UNL     1     -15.203  57.729  53.363  0.00  0.00    +0.000 A 
ATOM     20  H   UNL     1     -11.774  58.225  48.214  0.00  0.00    +0.000 HD
ATOM     21  H   UNL     1     -13.161  55.478  50.793  0.00  0.00    +0.000 HD
ENDBRANCH   1  13
BRANCH   7  22
ATOM     22  C   UNL     1     -10.924  53.101  46.613  0.00  0.00    +0.000 C 
ATOM     23  C   UNL     1     -11.392  53.507  45.191  0.00  0.00    +0.000 C 
ATOM     24  C   UNL     1      -9.869  52.001  46.376  0.00  0.00    +0.000 C 
ATOM     25  C   UNL     1     -12.123  52.483  47.356  0.00  0.00    +0.000 C 
ENDBRANCH   7  22
BRANCH   5  26
ATOM     26  C   UNL     1      -8.925  53.192  49.286  0.00  0.00    +0.000 C 
BRANCH  26  27
ATOM     27  C   UNL     1      -7.498  53.682  49.185  0.00  0.00    +0.000 A 
ATOM     28  N   UNL     1      -6.987  54.388  50.226  0.00  0.00    +0.000 NA
ATOM     29  C   UNL     1      -6.731  53.340  48.072  0.00  0.00    +0.000 A 
ATOM     30  C   UNL     1      -5.697  54.773  50.144  0.00  0.00    +0.000 A 
ATOM     31  C   UNL     1      -5.402  53.742  48.019  0.00  0.00    +0.000 A 
ATOM     32  C   UNL     1      -4.870  54.471  49.077  0.00  0.00    +0.000 A 
ENDBRANCH  26  27
ENDBRANCH   5  26
TORSDOF 4
ENDMDL
MODEL 2
REMARK VINA RESULT:      -7.8      1.788      3.684
REMARK  Name = 
REMARK  7 active torsions:
REMARK  status: ('A' for Active; 'I' for Inactive)
REMARK    1  A    between atoms: C_6  and  C_10
REMARK    2  A    between atoms: N_17  and  C_20
REMARK    3  A    between atoms: C_19  and  C_21
REMARK    4  A    between atoms: C_20  and  C_22
REMARK    5  A    between atoms: C_21  and  C_23
REMARK    6  A    between atoms: C_21  and  C_24
REMARK    7  A    between atoms: C_21  and  C_25
REMARK                            x       y       z     vdW  Elec       q    Type
REMARK                         _______ _______ _______ _____ _____    ______ ____
ROOT
ATOM      1  C   UNL     1     -10.864  54.977  50.287  0.00  0.00    +0.000 C 
ATOM      2  C   UNL     1     -10.569  54.107  49.143  0.00  0.00    +0.000 C 
ATOM      3  C   UNL     1      -9.891  54.758  51.179  0.00  0.00    +0.000 C 
ATOM      4  O   UNL     1     -11.309  53.993  48.182  0.00  0.00    +0.000 OA
ATOM      5  N   UNL     1      -9.348  53.505  49.366  0.00  0.00    +0.000 N 
ATOM      6  O   UNL     1      -9.818  55.336  52.423  0.00  0.00    +0.000 OA
ATOM      7  C   UNL     1      -8.802  53.802  50.700  0.00  0.00    +0.000 C 
ENDROOT
BRANCH   1  13
ATOM      8  S   UNL     1     -13.725  57.371  49.185  0.00  0.00    +0.000 S 
ATOM      9  O   UNL     1     -14.811  56.586  48.642  0.00  0.00    +0.000 OA
ATOM     10  O   UNL     1     -13.361  58.629  48.558  0.00  0.00    +0.000 OA
ATOM     11  N   UNL     1     -12.392  56.455  49.237  0.00  0.00    +0.000 N 
ATOM     12  C   UNL     1     -14.186  57.769  50.835  0.00  0.00    +0.000 A 
ATOM     13  C   UNL     1     -12.023  55.907  50.360  0.00  0.00    +0.000 C 
ATOM     14  C   UNL     1     -13.574  57.065  51.855  0.00  0.00    +0.000 A 
ATOM     15  C   UNL     1     -15.139  58.761  51.078  0.00  0.00    +0.000 A 
ATOM     16  N   UNL     1     -12.612  56.099  51.587  0.00  0.00    +0.000 N 
ATOM     17  C   UNL     1     -13.924  57.373  53.173  0.00  0.00    +0.000 A 
ATOM     18  C   UNL     1     -15.477  59.061  52.396  0.00  0.00    +0.000 A 
ATOM     19  C   UNL     1     -14.868  58.370  53.443  0.00  0.00    +0.000 A 
ATOM     20  H   UNL     1     -11.859  56.313  48.421  0.00  0.00    +0.000 HD
ATOM     21  H   UNL     1     -12.333  55.513  52.327  0.00  0.00    +0.000 HD
ENDBRANCH   1  13
BRANCH   7  22
ATOM     22  C   UNL     1      -7.340  54.390  50.741  0.00  0.00    +0.000 C 
ATOM     23  C   UNL     1      -6.846  54.570  52.200  0.00  0.00    +0.000 C 
ATOM     24  C   UNL     1      -6.314  53.434  50.097  0.00  0.00    +0.000 C 
ATOM     25  C   UNL     1      -7.255  55.754  50.032  0.00  0.00    +0.000 C 
ENDBRANCH   7  22
BRANCH   5  26
ATOM     26  C   UNL     1      -8.842  52.523  48.414  0.00  0.00    +0.000 C 
BRANCH  26  27
ATOM     27  C   UNL     1      -8.600  53.019  47.007  0.00  0.00    +0.000 A 
ATOM     28  N   UNL     1      -9.185  52.349  45.981  0.00  0.00    +0.000 NA
ATOM     29  C   UNL     1      -7.850  54.178  46.806  0.00  0.00    +0.000 A 
ATOM     30  C   UNL     1      -9.002  52.833  44.736  0.00  0.00    +0.000 A 
ATOM     31  C   UNL     1      -7.688  54.659  45.512  0.00  0.00    +0.000 A 
ATOM     32  C   UNL     1      -8.276  53.977  44.453  0.00  0.00    +0.000 A 
ENDBRANCH  26  27
ENDBRANCH   5  26
TORSDOF 4
ENDMDL
MODEL 3
REMARK VINA RESULT:      -7.8      2.508      4.001
REMARK  Name = 
REMARK  7 active torsions:
REMARK  status: ('A' for Active; 'I' for Inactive)
REMARK    1  A    between atoms: C_6  and  C_10
REMARK    2  A    between atoms: N_17  and  C_20
REMARK    3  A    between atoms: C_19  and  C_21
REMARK    4  A    between atoms: C_20  and  C_22
REMARK    5  A    between atoms: C_21  and  C_23
REMARK    6  A    between atoms: C_21  and  C_24
REMARK    7  A    between atoms: C_21  and  C_25
REMARK                            x       y       z     vdW  Elec       q    Type
REMARK                         _______ _______ _______ _____ _____    ______ ____
ROOT
ATOM      1  C   UNL     1     -12.260  54.483  50.091  0.00  0.00    +0.000 C 
ATOM      2  C   UNL     1     -12.002  54.135  48.689  0.00  0.00    +0.000 C 
ATOM      3  C   UNL     1     -11.700  53.513  50.822  0.00  0.00    +0.000 C 
ATOM      4  O   UNL     1     -12.453  54.768  47.750  0.00  0.00    +0.000 OA
ATOM      5  N   UNL     1     -11.178  53.029  48.667  0.00  0.00    +0.000 N 
ATOM      6  O   UNL     1     -11.759  53.426  52.192  0.00  0.00    +0.000 OA
ATOM      7  C   UNL     1     -10.935  52.474  50.008  0.00  0.00    +0.000 C 
ENDROOT
BRANCH   1  13
ATOM      8  S   UNL     1     -14.408  56.888  52.267  0.00  0.00    +0.000 S 
ATOM      9  O   UNL     1     -13.603  57.372  53.367  0.00  0.00    +0.000 OA
ATOM     10  O   UNL     1     -15.802  56.549  52.490  0.00  0.00    +0.000 OA
ATOM     11  N   UNL     1     -13.691  55.586  51.627  0.00  0.00    +0.000 N 
ATOM     12  C   UNL     1     -14.410  58.168  51.061  0.00  0.00    +0.000 A 
ATOM     13  C   UNL     1     -12.990  55.701  50.535  0.00  0.00    +0.000 C 
ATOM     14  C   UNL     1     -13.610  57.993  49.946  0.00  0.00    +0.000 A 
ATOM     15  C   UNL     1     -15.195  59.308  51.246  0.00  0.00    +0.000 A 
ATOM     16  N   UNL     1     -12.856  56.839  49.774  0.00  0.00    +0.000 N 
ATOM     17  C   UNL     1     -13.604  58.998  48.974  0.00  0.00    +0.000 A 
ATOM     18  C   UNL     1     -15.182  60.301  50.269  0.00  0.00    +0.000 A 
ATOM     19  C   UNL     1     -14.390  60.145  49.132  0.00  0.00    +0.000 A 
ATOM     20  H   UNL     1     -13.786  54.708  52.062  0.00  0.00    +0.000 HD
ATOM     21  H   UNL     1     -12.181  56.835  49.058  0.00  0.00    +0.000 HD
ENDBRANCH   1  13
BRANCH   7  22
ATOM     22  C   UNL     1      -9.426  52.287  50.423  0.00  0.00    +0.000 C 
ATOM     23  C   UNL     1      -9.304  51.608  51.813  0.00  0.00    +0.000 C 
ATOM     24  C   UNL     1      -8.673  51.344  49.462  0.00  0.00    +0.000 C 
ATOM     25  C   UNL     1      -8.680  53.633  50.478  0.00  0.00    +0.000 C 
ENDBRANCH   7  22
BRANCH   5  26
ATOM     26  C   UNL     1     -10.820  52.420  47.392  0.00  0.00    +0.000 C 
BRANCH  26  27
ATOM     27  C   UNL     1      -9.784  53.151  46.569  0.00  0.00    +0.000 A 
ATOM     28  N   UNL     1      -9.577  52.745  45.290  0.00  0.00    +0.000 NA
ATOM     29  C   UNL     1      -9.126  54.254  47.114  0.00  0.00    +0.000 A 
ATOM     30  C   UNL     1      -8.687  53.439  44.552  0.00  0.00    +0.000 A 
ATOM     31  C   UNL     1      -8.221  54.956  46.325  0.00  0.00    +0.000 A 
ATOM     32  C   UNL     1      -7.997  54.545  45.017  0.00  0.00    +0.000 A 
ENDBRANCH  26  27
ENDBRANCH   5  26
TORSDOF 4
ENDMDL
MODEL 4
REMARK VINA RESULT:      -7.7      1.379      3.893
REMARK  Name = 
REMARK  7 active torsions:
REMARK  status: ('A' for Active; 'I' for Inactive)
REMARK    1  A    between atoms: C_6  and  C_10
REMARK    2  A    between atoms: N_17  and  C_20
REMARK    3  A    between atoms: C_19  and  C_21
REMARK    4  A    between atoms: C_20  and  C_22
REMARK    5  A    between atoms: C_21  and  C_23
REMARK    6  A    between atoms: C_21  and  C_24
REMARK    7  A    between atoms: C_21  and  C_25
REMARK                            x       y       z     vdW  Elec       q    Type
REMARK                         _______ _______ _______ _____ _____    ______ ____
ROOT
ATOM      1  C   UNL     1     -11.581  55.635  48.921  0.00  0.00    +0.000 C 
ATOM      2  C   UNL     1     -11.410  55.402  47.482  0.00  0.00    +0.000 C 
ATOM      3  C   UNL     1     -10.789  54.750  49.535  0.00  0.00    +0.000 C 
ATOM      4  O   UNL     1     -12.058  55.984  46.630  0.00  0.00    +0.000 OA
ATOM      5  N   UNL     1     -10.413  54.465  47.315  0.00  0.00    +0.000 N 
ATOM      6  O   UNL     1     -10.691  54.592  50.897  0.00  0.00    +0.000 OA
ATOM      7  C   UNL     1      -9.941  53.903  48.591  0.00  0.00    +0.000 C 
ENDROOT
BRANCH   1  13
ATOM      8  S   UNL     1     -13.447  59.013  49.403  0.00  0.00    +0.000 S 
ATOM      9  O   UNL     1     -14.541  59.085  48.460  0.00  0.00    +0.000 OA
ATOM     10  O   UNL     1     -12.656  60.199  49.681  0.00  0.00    +0.000 OA
ATOM     11  N   UNL     1     -12.425  57.850  48.933  0.00  0.00    +0.000 N 
ATOM     12  C   UNL     1     -14.157  58.537  50.941  0.00  0.00    +0.000 A 
ATOM     13  C   UNL     1     -12.464  56.680  49.504  0.00  0.00    +0.000 C 
ATOM     14  C   UNL     1     -13.981  57.225  51.344  0.00  0.00    +0.000 A 
ATOM     15  C   UNL     1     -14.868  59.465  51.705  0.00  0.00    +0.000 A 
ATOM     16  N   UNL     1     -13.250  56.328  50.576  0.00  0.00    +0.000 N 
ATOM     17  C   UNL     1     -14.533  56.831  52.566  0.00  0.00    +0.000 A 
ATOM     18  C   UNL     1     -15.411  59.060  52.922  0.00  0.00    +0.000 A 
ATOM     19  C   UNL     1     -15.242  57.745  53.355  0.00  0.00    +0.000 A 
ATOM     20  H   UNL     1     -11.774  58.028  48.216  0.00  0.00    +0.000 HD
ATOM     21  H   UNL     1     -13.296  55.375  50.818  0.00  0.00    +0.000 HD
ENDBRANCH   1  13
BRANCH   7  22
ATOM     22  C   UNL     1      -8.388  53.972  48.852  0.00  0.00    +0.000 C 
ATOM     23  C   UNL     1      -8.020  53.353  50.226  0.00  0.00    +0.000 C 
ATOM     24  C   UNL     1      -7.590  53.142  47.825  0.00  0.00    +0.000 C 
ATOM     25  C   UNL     1      -7.871  55.422  48.824  0.00  0.00    +0.000 C 
ENDBRANCH   7  22
BRANCH   5  26
ATOM     26  C   UNL     1     -10.086  53.988  45.977  0.00  0.00    +0.000 C 
BRANCH  26  27
ATOM     27  C   UNL     1     -10.529  52.582  45.640  0.00  0.00    +0.000 A 
ATOM     28  N   UNL     1      -9.600  51.712  45.168  0.00  0.00    +0.000 NA
ATOM     29  C   UNL     1     -11.847  52.199  45.888  0.00  0.00    +0.000 A 
ATOM     30  C   UNL     1      -9.999  50.447  44.923  0.00  0.00    +0.000 A 
ATOM     31  C   UNL     1     -12.227  50.886  45.635  0.00  0.00    +0.000 A 
ATOM     32  C   UNL     1     -11.285  49.988  45.145  0.00  0.00    +0.000 A 
ENDBRANCH  26  27
ENDBRANCH   5  26
TORSDOF 4
ENDMDL
MODEL 5
REMARK VINA RESULT:      -7.4      3.152      7.920
REMARK  Name = 
REMARK  7 active torsions:
REMARK  status: ('A' for Active; 'I' for Inactive)
REMARK    1  A    between atoms: C_6  and  C_10
REMARK    2  A    between atoms: N_17  and  C_20
REMARK    3  A    between atoms: C_19  and  C_21
REMARK    4  A    between atoms: C_20  and  C_22
REMARK    5  A    between atoms: C_21  and  C_23
REMARK    6  A    between atoms: C_21  and  C_24
REMARK    7  A    between atoms: C_21  and  C_25
REMARK                            x       y       z     vdW  Elec       q    Type
REMARK                         _______ _______ _______ _____ _____    ______ ____
ROOT
ATOM      1  C   UNL     1     -10.100  54.490  48.829  0.00  0.00    +0.000 C 
ATOM      2  C   UNL     1     -11.465  54.320  49.341  0.00  0.00    +0.000 C 
ATOM      3  C   UNL     1      -9.412  55.093  49.805  0.00  0.00    +0.000 C 
ATOM      4  O   UNL     1     -12.380  53.877  48.670  0.00  0.00    +0.000 OA
ATOM      5  N   UNL     1     -11.481  54.720  50.661  0.00  0.00    +0.000 N 
ATOM      6  O   UNL     1      -8.098  55.486  49.715  0.00  0.00    +0.000 OA
ATOM      7  C   UNL     1     -10.201  55.305  51.093  0.00  0.00    +0.000 C 
ENDROOT
BRANCH   1  13
ATOM      8  S   UNL     1      -7.885  54.042  45.664  0.00  0.00    +0.000 S 
ATOM      9  O   UNL     1      -6.798  53.141  45.974  0.00  0.00    +0.000 OA
ATOM     10  O   UNL     1      -7.640  55.205  44.829  0.00  0.00    +0.000 OA
ATOM     11  N   UNL     1      -8.539  54.570  47.046  0.00  0.00    +0.000 N 
ATOM     12  C   UNL     1      -9.088  53.083  44.813  0.00  0.00    +0.000 A 
ATOM     13  C   UNL     1      -9.643  54.036  47.489  0.00  0.00    +0.000 C 
ATOM     14  C   UNL     1     -10.217  52.705  45.518  0.00  0.00    +0.000 A 
ATOM     15  C   UNL     1      -8.888  52.727  43.477  0.00  0.00    +0.000 A 
ATOM     16  N   UNL     1     -10.403  53.093  46.839  0.00  0.00    +0.000 N 
ATOM     17  C   UNL     1     -11.187  51.948  44.855  0.00  0.00    +0.000 A 
ATOM     18  C   UNL     1      -9.863  51.975  42.827  0.00  0.00    +0.000 A 
ATOM     19  C   UNL     1     -11.014  51.588  43.514  0.00  0.00    +0.000 A 
ATOM     20  H   UNL     1      -8.104  55.294  47.552  0.00  0.00    +0.000 HD
ATOM     21  H   UNL     1     -11.130  52.663  47.344  0.00  0.00    +0.000 HD
ENDBRANCH   1  13
BRANCH   7  22
ATOM     22  C   UNL     1      -9.547  54.678  52.383  0.00  0.00    +0.000 C 
ATOM     23  C   UNL     1      -8.205  55.375  52.729  0.00  0.00    +0.000 C 
ATOM     24  C   UNL     1     -10.425  54.881  53.635  0.00  0.00    +0.000 C 
ATOM     25  C   UNL     1      -9.276  53.172  52.208  0.00  0.00    +0.000 C 
ENDBRANCH   7  22
BRANCH   5  26
ATOM     26  C   UNL     1     -12.737  54.727  51.399  0.00  0.00    +0.000 C 
BRANCH  26  27
ATOM     27  C   UNL     1     -13.496  56.035  51.417  0.00  0.00    +0.000 A 
ATOM     28  N   UNL     1     -14.294  56.328  50.358  0.00  0.00    +0.000 NA
ATOM     29  C   UNL     1     -13.414  56.862  52.537  0.00  0.00    +0.000 A 
ATOM     30  C   UNL     1     -15.004  57.473  50.412  0.00  0.00    +0.000 A 
ATOM     31  C   UNL     1     -14.165  58.031  52.568  0.00  0.00    +0.000 A 
ATOM     32  C   UNL     1     -14.980  58.345  51.487  0.00  0.00    +0.000 A 
ENDBRANCH  26  27
ENDBRANCH   5  26
TORSDOF 4
ENDMDL
MODEL 6
REMARK VINA RESULT:      -7.4      1.765      3.650
REMARK  Name = 
REMARK  7 active torsions:
REMARK  status: ('A' for Active; 'I' for Inactive)
REMARK    1  A    between atoms: C_6  and  C_10
REMARK    2  A    between atoms: N_17  and  C_20
REMARK    3  A    between atoms: C_19  and  C_21
REMARK    4  A    between atoms: C_20  and  C_22
REMARK    5  A    between atoms: C_21  and  C_23
REMARK    6  A    between atoms: C_21  and  C_24
REMARK    7  A    between atoms: C_21  and  C_25
REMARK                            x       y       z     vdW  Elec       q    Type
REMARK                         _______ _______ _______ _____ _____    ______ ____
ROOT
ATOM      1  C   UNL     1     -11.004  54.747  49.419  0.00  0.00    +0.000 C 
ATOM      2  C   UNL     1     -11.121  53.569  48.551  0.00  0.00    +0.000 C 
ATOM      3  C   UNL     1      -9.732  54.776  49.831  0.00  0.00    +0.000 C 
ATOM      4  O   UNL     1     -12.178  53.196  48.072  0.00  0.00    +0.000 OA
ATOM      5  N   UNL     1      -9.863  53.028  48.389  0.00  0.00    +0.000 N 
ATOM      6  O   UNL     1      -9.209  55.695  50.709  0.00  0.00    +0.000 OA
ATOM      7  C   UNL     1      -8.847  53.694  49.220  0.00  0.00    +0.000 C 
ENDROOT
BRANCH   1  13
ATOM      8  S   UNL     1     -13.960  57.219  48.896  0.00  0.00    +0.000 S 
ATOM      9  O   UNL     1     -15.135  56.472  48.506  0.00  0.00    +0.000 OA
ATOM     10  O   UNL     1     -13.680  58.499  48.270  0.00  0.00    +0.000 OA
ATOM     11  N   UNL     1     -12.654  56.287  48.693  0.00  0.00    +0.000 N 
ATOM     12  C   UNL     1     -14.140  57.553  50.614  0.00  0.00    +0.000 A 
ATOM     13  C   UNL     1     -12.118  55.686  49.717  0.00  0.00    +0.000 C 
ATOM     14  C   UNL     1     -13.383  56.797  51.491  0.00  0.00    +0.000 A 
ATOM     15  C   UNL     1     -15.021  58.545  51.050  0.00  0.00    +0.000 A 
ATOM     16  N   UNL     1     -12.496  55.832  51.031  0.00  0.00    +0.000 N 
ATOM     17  C   UNL     1     -13.508  57.053  52.860  0.00  0.00    +0.000 A 
ATOM     18  C   UNL     1     -15.135  58.791  52.416  0.00  0.00    +0.000 A 
ATOM     19  C   UNL     1     -14.377  58.049  53.321  0.00  0.00    +0.000 A 
ATOM     20  H   UNL     1     -12.264  56.174  47.795  0.00  0.00    +0.000 HD
ATOM     21  H   UNL     1     -12.111  55.212  51.691  0.00  0.00    +0.000 HD
ENDBRANCH   1  13
BRANCH   7  22
ATOM     22  C   UNL     1      -7.569  54.228  48.467  0.00  0.00    +0.000 C 
ATOM     23  C   UNL     1      -7.960  55.054  47.213  0.00  0.00    +0.000 C 
ATOM     24  C   UNL     1      -6.750  55.204  49.336  0.00  0.00    +0.000 C 
ATOM     25  C   UNL     1      -6.651  53.076  48.018  0.00  0.00    +0.000 C 
ENDBRANCH   7  22
BRANCH   5  26
ATOM     26  C   UNL     1      -9.699  51.796  47.628  0.00  0.00    +0.000 C 
BRANCH  26  27
ATOM     27  C   UNL     1      -9.396  51.954  46.155  0.00  0.00    +0.000 A 
ATOM     28  N   UNL     1      -8.402  51.201  45.620  0.00  0.00    +0.000 NA
ATOM     29  C   UNL     1     -10.183  52.806  45.379  0.00  0.00    +0.000 A 
ATOM     30  C   UNL     1      -8.178  51.315  44.295  0.00  0.00    +0.000 A 
ATOM     31  C   UNL     1      -9.936  52.895  44.014  0.00  0.00    +0.000 A 
ATOM     32  C   UNL     1      -8.915  52.133  43.457  0.00  0.00    +0.000 A 
ENDBRANCH  26  27
ENDBRANCH   5  26
TORSDOF 4
ENDMDL
MODEL 7
REMARK VINA RESULT:      -7.4      3.218      7.116
REMARK  Name = 
REMARK  7 active torsions:
REMARK  status: ('A' for Active; 'I' for Inactive)
REMARK    1  A    between atoms: C_6  and  C_10
REMARK    2  A    between atoms: N_17  and  C_20
REMARK    3  A    between atoms: C_19  and  C_21
REMARK    4  A    between atoms: C_20  and  C_22
REMARK    5  A    between atoms: C_21  and  C_23
REMARK    6  A    between atoms: C_21  and  C_24
REMARK    7  A    between atoms: C_21  and  C_25
REMARK                            x       y       z     vdW  Elec       q    Type
REMARK                         _______ _______ _______ _____ _____    ______ ____
ROOT
ATOM      1  C   UNL     1     -10.468  53.749  50.145  0.00  0.00    +0.000 C 
ATOM      2  C   UNL     1     -10.943  55.105  49.848  0.00  0.00    +0.000 C 
ATOM      3  C   UNL     1     -11.038  52.950  49.237  0.00  0.00    +0.000 C 
ATOM      4  O   UNL     1     -10.682  56.072  50.542  0.00  0.00    +0.000 OA
ATOM      5  N   UNL     1     -11.679  55.056  48.682  0.00  0.00    +0.000 N 
ATOM      6  O   UNL     1     -10.899  51.583  49.192  0.00  0.00    +0.000 OA
ATOM      7  C   UNL     1     -11.871  53.682  48.189  0.00  0.00    +0.000 C 
ENDROOT
BRANCH   1  13
ATOM      8  S   UNL     1      -8.675  51.754  52.962  0.00  0.00    +0.000 S 
ATOM      9  O   UNL     1      -7.811  50.764  52.360  0.00  0.00    +0.000 OA
ATOM     10  O   UNL     1      -9.434  51.419  54.154  0.00  0.00    +0.000 OA
ATOM     11  N   UNL     1      -9.727  52.277  51.850  0.00  0.00    +0.000 N 
ATOM     12  C   UNL     1      -7.636  53.099  53.416  0.00  0.00    +0.000 A 
ATOM     13  C   UNL     1      -9.523  53.411  51.243  0.00  0.00    +0.000 C 
ATOM     14  C   UNL     1      -7.671  54.228  52.617  0.00  0.00    +0.000 A 
ATOM     15  C   UNL     1      -6.815  53.005  54.542  0.00  0.00    +0.000 A 
ATOM     16  N   UNL     1      -8.514  54.305  51.515  0.00  0.00    +0.000 N 
ATOM     17  C   UNL     1      -6.856  55.309  52.967  0.00  0.00    +0.000 A 
ATOM     18  C   UNL     1      -6.010  54.091  54.881  0.00  0.00    +0.000 A 
ATOM     19  C   UNL     1      -6.033  55.243  54.096  0.00  0.00    +0.000 A 
ATOM     20  H   UNL     1     -10.523  51.738  51.634  0.00  0.00    +0.000 HD
ATOM     21  H   UNL     1      -8.380  55.051  50.888  0.00  0.00    +0.000 HD
ENDBRANCH   1  13
BRANCH   7  22
ATOM     22  C   UNL     1     -11.445  53.410  46.696  0.00  0.00    +0.000 C 
ATOM     23  C   UNL     1     -11.776  54.623  45.786  0.00  0.00    +0.000 C 
ATOM     24  C   UNL     1      -9.920  53.222  46.553  0.00  0.00    +0.000 C 
ATOM     25  C   UNL     1     -12.151  52.169  46.119  0.00  0.00    +0.000 C 
ENDBRANCH   7  22
BRANCH   5  26
ATOM     26  C   UNL     1     -12.338  56.259  48.192  0.00  0.00    +0.000 C 
BRANCH  26  27
ATOM     27  C   UNL     1     -13.387  56.864  49.097  0.00  0.00    +0.000 A 
ATOM     28  N   UNL     1     -14.309  56.037  49.653  0.00  0.00    +0.000 NA
ATOM     29  C   UNL     1     -13.339  58.227  49.390  0.00  0.00    +0.000 A 
ATOM     30  C   UNL     1     -15.206  56.582  50.500  0.00  0.00    +0.000 A 
ATOM     31  C   UNL     1     -14.271  58.759  50.274  0.00  0.00    +0.000 A 
ATOM     32  C   UNL     1     -15.223  57.923  50.844  0.00  0.00    +0.000 A 
ENDBRANCH  26  27
ENDBRANCH   5  26
TORSDOF 4
ENDMDL
MODEL 8
REMARK VINA RESULT:      -7.4      2.228      3.668
REMARK  Name = 
REMARK  7 active torsions:
REMARK  status: ('A' for Active; 'I' for Inactive)
REMARK    1  A    between atoms: C_6  and  C_10
REMARK    2  A    between atoms: N_17  and  C_20
REMARK    3  A    between atoms: C_19  and  C_21
REMARK    4  A    between atoms: C_20  and  C_22
REMARK    5  A    between atoms: C_21  and  C_23
REMARK    6  A    between atoms: C_21  and  C_24
REMARK    7  A    between atoms: C_21  and  C_25
REMARK                            x       y       z     vdW  Elec       q    Type
REMARK                         _______ _______ _______ _____ _____    ______ ____
ROOT
ATOM      1  C   UNL     1     -12.315  53.969  49.406  0.00  0.00    +0.000 C 
ATOM      2  C   UNL     1     -12.009  53.482  48.055  0.00  0.00    +0.000 C 
ATOM      3  C   UNL     1     -11.966  52.984  50.241  0.00  0.00    +0.000 C 
ATOM      4  O   UNL     1     -12.287  54.102  47.043  0.00  0.00    +0.000 OA
ATOM      5  N   UNL     1     -11.367  52.267  48.172  0.00  0.00    +0.000 N 
ATOM      6  O   UNL     1     -12.139  53.009  51.604  0.00  0.00    +0.000 OA
ATOM      7  C   UNL     1     -11.313  51.785  49.561  0.00  0.00    +0.000 C 
ENDROOT
BRANCH   1  13
ATOM      8  S   UNL     1     -13.165  57.751  49.085  0.00  0.00    +0.000 S 
ATOM      9  O   UNL     1     -14.176  57.921  48.065  0.00  0.00    +0.000 OA
ATOM     10  O   UNL     1     -12.078  58.708  49.189  0.00  0.00    +0.000 OA
ATOM     11  N   UNL     1     -12.502  56.283  48.927  0.00  0.00    +0.000 N 
ATOM     12  C   UNL     1     -14.010  57.812  50.627  0.00  0.00    +0.000 A 
ATOM     13  C   UNL     1     -12.879  55.312  49.708  0.00  0.00    +0.000 C 
ATOM     14  C   UNL     1     -14.218  56.615  51.287  0.00  0.00    +0.000 A 
ATOM     15  C   UNL     1     -14.446  59.035  51.142  0.00  0.00    +0.000 A 
ATOM     16  N   UNL     1     -13.753  55.414  50.765  0.00  0.00    +0.000 N 
ATOM     17  C   UNL     1     -14.882  56.646  52.517  0.00  0.00    +0.000 A 
ATOM     18  C   UNL     1     -15.105  59.052  52.369  0.00  0.00    +0.000 A 
ATOM     19  C   UNL     1     -15.320  57.860  53.058  0.00  0.00    +0.000 A 
ATOM     20  H   UNL     1     -11.813  56.126  48.241  0.00  0.00    +0.000 HD
ATOM     21  H   UNL     1     -14.069  54.581  51.181  0.00  0.00    +0.000 HD
ENDBRANCH   1  13
BRANCH   7  22
ATOM     22  C   UNL     1      -9.885  51.407  50.113  0.00  0.00    +0.000 C 
ATOM     23  C   UNL     1      -9.975  50.797  51.537  0.00  0.00    +0.000 C 
ATOM     24  C   UNL     1      -9.206  50.313  49.264  0.00  0.00    +0.000 C 
ATOM     25  C   UNL     1      -8.956  52.633  50.173  0.00  0.00    +0.000 C 
ENDBRANCH   7  22
BRANCH   5  26
ATOM     26  C   UNL     1     -11.014  51.519  46.973  0.00  0.00    +0.000 C 
BRANCH  26  27
ATOM     27  C   UNL     1     -10.062  52.198  46.015  0.00  0.00    +0.000 A 
ATOM     28  N   UNL     1     -10.343  52.149  44.688  0.00  0.00    +0.000 NA
ATOM     29  C   UNL     1      -8.973  52.910  46.517  0.00  0.00    +0.000 A 
ATOM     30  C   UNL     1      -9.514  52.805  43.850  0.00  0.00    +0.000 A 
ATOM     31  C   UNL     1      -8.141  53.585  45.631  0.00  0.00    +0.000 A 
ATOM     32  C   UNL     1      -8.416  53.535  44.269  0.00  0.00    +0.000 A 
ENDBRANCH  26  27
ENDBRANCH   5  26
TORSDOF 4
ENDMDL
MODEL 9
REMARK VINA RESULT:      -7.4      3.395      8.313
REMARK  Name = 
REMARK  7 active torsions:
REMARK  status: ('A' for Active; 'I' for Inactive)
REMARK    1  A    between atoms: C_6  and  C_10
REMARK    2  A    between atoms: N_17  and  C_20
REMARK    3  A    between atoms: C_19  and  C_21
REMARK    4  A    between atoms: C_20  and  C_22
REMARK    5  A    between atoms: C_21  and  C_23
REMARK    6  A    between atoms: C_21  and  C_24
REMARK    7  A    between atoms: C_21  and  C_25
REMARK                            x       y       z     vdW  Elec       q    Type
REMARK                         _______ _______ _______ _____ _____    ______ ____
ROOT
ATOM      1  C   UNL     1     -10.480  53.671  47.932  0.00  0.00    +0.000 C 
ATOM      2  C   UNL     1     -11.509  53.485  48.962  0.00  0.00    +0.000 C 
ATOM      3  C   UNL     1      -9.744  54.715  48.329  0.00  0.00    +0.000 C 
ATOM      4  O   UNL     1     -12.407  52.667  48.869  0.00  0.00    +0.000 OA
ATOM      5  N   UNL     1     -11.245  54.361  49.995  0.00  0.00    +0.000 N 
ATOM      6  O   UNL     1      -8.701  55.259  47.619  0.00  0.00    +0.000 OA
ATOM      7  C   UNL     1     -10.133  55.277  49.693  0.00  0.00    +0.000 C 
ENDROOT
BRANCH   1  13
ATOM      8  S   UNL     1     -10.713  50.595  45.564  0.00  0.00    +0.000 S 
ATOM      9  O   UNL     1     -12.070  50.476  45.079  0.00  0.00    +0.000 OA
ATOM     10  O   UNL     1      -9.967  49.400  45.918  0.00  0.00    +0.000 OA
ATOM     11  N   UNL     1     -10.701  51.571  46.854  0.00  0.00    +0.000 N 
ATOM     12  C   UNL     1      -9.799  51.369  44.276  0.00  0.00    +0.000 A 
ATOM     13  C   UNL     1     -10.335  52.815  46.724  0.00  0.00    +0.000 C 
ATOM     14  C   UNL     1      -9.481  52.706  44.435  0.00  0.00    +0.000 A 
ATOM     15  C   UNL     1      -9.422  50.641  43.144  0.00  0.00    +0.000 A 
ATOM     16  N   UNL     1      -9.847  53.401  45.581  0.00  0.00    +0.000 N 
ATOM     17  C   UNL     1      -8.749  53.335  43.424  0.00  0.00    +0.000 A 
ATOM     18  C   UNL     1      -8.691  51.279  42.145  0.00  0.00    +0.000 A 
ATOM     19  C   UNL     1      -8.352  52.624  42.285  0.00  0.00    +0.000 A 
ATOM     20  H   UNL     1     -10.968  51.225  47.736  0.00  0.00    +0.000 HD
ATOM     21  H   UNL     1      -9.749  54.380  45.573  0.00  0.00    +0.000 HD
ENDBRANCH   1  13
BRANCH   7  22
ATOM     22  C   UNL     1      -8.963  55.325  50.749  0.00  0.00    +0.000 C 
ATOM     23  C   UNL     1      -8.120  56.618  50.596  0.00  0.00    +0.000 C 
ATOM     24  C   UNL     1      -9.491  55.373  52.197  0.00  0.00    +0.000 C 
ATOM     25  C   UNL     1      -8.020  54.116  50.607  0.00  0.00    +0.000 C 
ENDBRANCH   7  22
BRANCH   5  26
ATOM     26  C   UNL     1     -12.161  54.442  51.125  0.00  0.00    +0.000 C 
BRANCH  26  27
ATOM     27  C   UNL     1     -13.146  55.589  51.108  0.00  0.00    +0.000 A 
ATOM     28  N   UNL     1     -14.025  55.664  50.077  0.00  0.00    +0.000 NA
ATOM     29  C   UNL     1     -13.173  56.487  52.175  0.00  0.00    +0.000 A 
ATOM     30  C   UNL     1     -14.932  56.663  50.102  0.00  0.00    +0.000 A 
ATOM     31  C   UNL     1     -14.125  57.501  52.178  0.00  0.00    +0.000 A 
ATOM     32  C   UNL     1     -15.026  57.592  51.124  0.00  0.00    +0.000 A 
ENDBRANCH  26  27
ENDBRANCH   5  26
TORSDOF 4
ENDMDL
