MODEL 1
REMARK VINA RESULT:      -8.3      0.000      0.000
REMARK  Name = 
REMARK  7 active torsions:
REMARK  status: ('A' for Active; 'I' for Inactive)
REMARK    1  A    between atoms: C_6  and  C_10
REMARK    2  A    between atoms: N_17  and  C_20
REMARK    3  A    between atoms: C_19  and  C_21
REMARK    4  A    between atoms: C_20  and  C_22
REMARK    5  A    between atoms: C_21  and  C_23
REMARK    6  A    between atoms: C_21  and  C_24
REMARK    7  A    between atoms: C_21  and  C_25
REMARK                            x       y       z     vdW  Elec       q    Type
REMARK                         _______ _______ _______ _____ _____    ______ ____
ROOT
ATOM      1  C   UNL     1     -10.766  55.129  47.810  0.00  0.00    +0.000 C 
ATOM      2  C   UNL     1     -12.197  55.391  47.788  0.00  0.00    +0.000 C 
ATOM      3  C   UNL     1     -10.335  55.555  49.002  0.00  0.00    +0.000 C 
ATOM      4  O   UNL     1     -12.855  55.339  46.740  0.00  0.00    +0.000 OA
ATOM      5  N   UNL     1     -12.610  55.699  49.063  0.00  0.00    +0.000 N 
ATOM      6  O   UNL     1      -9.023  55.615  49.396  0.00  0.00    +0.000 OA
ATOM      7  C   UNL     1     -11.456  55.987  49.937  0.00  0.00    +0.000 C 
ENDROOT
BRANCH   1  13
ATOM      8  S   UNL     1      -7.870  54.458  45.321  0.00  0.00    +0.000 S 
ATOM      9  O   UNL     1      -6.868  53.675  46.030  0.00  0.00    +0.000 OA
ATOM     10  O   UNL     1      -7.467  55.500  44.407  0.00  0.00    +0.000 OA
ATOM     11  N   UNL     1      -8.854  55.114  46.424  0.00  0.00    +0.000 N 
ATOM     12  C   UNL     1      -8.797  53.303  44.375  0.00  0.00    +0.000 A 
ATOM     13  C   UNL     1     -10.001  54.560  46.676  0.00  0.00    +0.000 C 
ATOM     14  C   UNL     1     -10.045  52.931  44.859  0.00  0.00    +0.000 A 
ATOM     15  C   UNL     1      -8.285  52.806  43.178  0.00  0.00    +0.000 A 
ATOM     16  N   UNL     1     -10.554  53.487  46.018  0.00  0.00    +0.000 N 
ATOM     17  C   UNL     1     -10.811  52.053  44.088  0.00  0.00    +0.000 A 
ATOM     18  C   UNL     1      -9.056  51.925  42.428  0.00  0.00    +0.000 A 
ATOM     19  C   UNL     1     -10.323  51.553  42.881  0.00  0.00    +0.000 A 
ATOM     20  H   UNL     1      -8.584  55.931  46.902  0.00  0.00    +0.000 HD
ATOM     21  H   UNL     1     -11.367  53.086  46.399  0.00  0.00    +0.000 HD
ENDBRANCH   1  13
BRANCH   7  22
ATOM     22  C   UNL     1     -11.449  55.277  51.340  0.00  0.00    +0.000 C 
ATOM     23  C   UNL     1     -10.037  55.202  51.969  0.00  0.00    +0.000 C 
ATOM     24  C   UNL     1     -12.342  56.027  52.339  0.00  0.00    +0.000 C 
ATOM     25  C   UNL     1     -11.915  53.809  51.230  0.00  0.00    +0.000 C 
ENDBRANCH   7  22
BRANCH   5  26
ATOM     26  C   UNL     1     -13.989  56.045  49.360  0.00  0.00    +0.000 C 
BRANCH  26  27
ATOM     27  C   UNL     1     -14.264  57.491  49.657  0.00  0.00    +0.000 A 
ATOM     28  C   UNL     1     -14.996  57.818  50.801  0.00  0.00    +0.000 A 
ATOM     29  C   UNL     1     -13.745  58.515  48.855  0.00  0.00    +0.000 A 
ATOM     30  C   UNL     1     -15.275  59.144  51.104  0.00  0.00    +0.000 A 
ATOM     31  C   UNL     1     -14.006  59.849  49.174  0.00  0.00    +0.000 A 
ATOM     32  C   UNL     1     -14.783  60.161  50.289  0.00  0.00    +0.000 A 
ENDBRANCH  26  27
ENDBRANCH   5  26
TORSDOF 4
ENDMDL
MODEL 2
REMARK VINA RESULT:      -8.1      3.155      7.687
REMARK  Name = 
REMARK  7 active torsions:
REMARK  status: ('A' for Active; 'I' for Inactive)
REMARK    1  A    between atoms: C_6  and  C_10
REMARK    2  A    between atoms: N_17  and  C_20
REMARK    3  A    between atoms: C_19  and  C_21
REMARK    4  A    between atoms: C_20  and  C_22
REMARK    5  A    between atoms: C_21  and  C_23
REMARK    6  A    between atoms: C_21  and  C_24
REMARK    7  A    between atoms: C_21  and  C_25
REMARK                            x       y       z     vdW  Elec       q    Type
REMARK                         _______ _______ _______ _____ _____    ______ ____
ROOT
ATOM      1  C   UNL     1     -12.413  54.345  49.974  0.00  0.00    +0.000 C 
ATOM      2  C   UNL     1     -12.039  54.078  48.594  0.00  0.00    +0.000 C 
ATOM      3  C   UNL     1     -12.072  53.252  50.663  0.00  0.00    +0.000 C 
ATOM      4  O   UNL     1     -12.438  54.787  47.659  0.00  0.00    +0.000 OA
ATOM      5  N   UNL     1     -11.238  52.960  48.561  0.00  0.00    +0.000 N 
ATOM      6  O   UNL     1     -12.363  53.023  51.984  0.00  0.00    +0.000 OA
ATOM      7  C   UNL     1     -11.299  52.230  49.842  0.00  0.00    +0.000 C 
ENDROOT
BRANCH   1  13
ATOM      8  S   UNL     1     -14.376  56.821  52.222  0.00  0.00    +0.000 S 
ATOM      9  O   UNL     1     -13.469  57.256  53.274  0.00  0.00    +0.000 OA
ATOM     10  O   UNL     1     -15.763  56.559  52.520  0.00  0.00    +0.000 OA
ATOM     11  N   UNL     1     -13.749  55.491  51.550  0.00  0.00    +0.000 N 
ATOM     12  C   UNL     1     -14.364  58.103  51.019  0.00  0.00    +0.000 A 
ATOM     13  C   UNL     1     -13.090  55.580  50.434  0.00  0.00    +0.000 C 
ATOM     14  C   UNL     1     -13.610  57.898  49.870  0.00  0.00    +0.000 A 
ATOM     15  C   UNL     1     -15.103  59.266  51.227  0.00  0.00    +0.000 A 
ATOM     16  N   UNL     1     -12.936  56.708  49.664  0.00  0.00    +0.000 N 
ATOM     17  C   UNL     1     -13.635  58.888  48.885  0.00  0.00    +0.000 A 
ATOM     18  C   UNL     1     -15.108  60.247  50.241  0.00  0.00    +0.000 A 
ATOM     19  C   UNL     1     -14.378  60.055  49.067  0.00  0.00    +0.000 A 
ATOM     20  H   UNL     1     -13.867  54.616  51.985  0.00  0.00    +0.000 HD
ATOM     21  H   UNL     1     -12.301  56.667  48.913  0.00  0.00    +0.000 HD
ENDBRANCH   1  13
BRANCH   7  22
ATOM     22  C   UNL     1      -9.922  51.796  50.465  0.00  0.00    +0.000 C 
ATOM     23  C   UNL     1      -9.082  50.915  49.509  0.00  0.00    +0.000 C 
ATOM     24  C   UNL     1      -9.064  53.022  50.809  0.00  0.00    +0.000 C 
ATOM     25  C   UNL     1     -10.123  50.934  51.729  0.00  0.00    +0.000 C 
ENDBRANCH   7  22
BRANCH   5  26
ATOM     26  C   UNL     1     -10.728  52.419  47.314  0.00  0.00    +0.000 C 
BRANCH  26  27
ATOM     27  C   UNL     1      -9.643  53.208  46.640  0.00  0.00    +0.000 A 
ATOM     28  C   UNL     1      -9.543  53.166  45.247  0.00  0.00    +0.000 A 
ATOM     29  C   UNL     1      -8.779  54.036  47.368  0.00  0.00    +0.000 A 
ATOM     30  C   UNL     1      -8.548  53.878  44.590  0.00  0.00    +0.000 A 
ATOM     31  C   UNL     1      -7.795  54.770  46.704  0.00  0.00    +0.000 A 
ATOM     32  C   UNL     1      -7.671  54.678  45.318  0.00  0.00    +0.000 A 
ENDBRANCH  26  27
ENDBRANCH   5  26
TORSDOF 4
ENDMDL
MODEL 3
REMARK VINA RESULT:      -8.1      2.712      7.763
REMARK  Name = 
REMARK  7 active torsions:
REMARK  status: ('A' for Active; 'I' for Inactive)
REMARK    1  A    between atoms: C_6  and  C_10
REMARK    2  A    between atoms: N_17  and  C_20
REMARK    3  A    between atoms: C_19  and  C_21
REMARK    4  A    between atoms: C_20  and  C_22
REMARK    5  A    between atoms: C_21  and  C_23
REMARK    6  A    between atoms: C_21  and  C_24
REMARK    7  A    between atoms: C_21  and  C_25
REMARK                            x       y       z     vdW  Elec       q    Type
REMARK                         _______ _______ _______ _____ _____    ______ ____
ROOT
ATOM      1  C   UNL     1     -10.919  55.005  50.213  0.00  0.00    +0.000 C 
ATOM      2  C   UNL     1     -10.697  54.098  49.096  0.00  0.00    +0.000 C 
ATOM      3  C   UNL     1      -9.948  54.746  51.093  0.00  0.00    +0.000 C 
ATOM      4  O   UNL     1     -11.556  53.911  48.224  0.00  0.00    +0.000 OA
ATOM      5  N   UNL     1      -9.448  53.535  49.226  0.00  0.00    +0.000 N 
ATOM      6  O   UNL     1      -9.851  55.286  52.350  0.00  0.00    +0.000 OA
ATOM      7  C   UNL     1      -8.904  53.765  50.579  0.00  0.00    +0.000 C 
ENDROOT
BRANCH   1  13
ATOM      8  S   UNL     1     -13.746  57.445  49.167  0.00  0.00    +0.000 S 
ATOM      9  O   UNL     1     -14.825  56.638  48.615  0.00  0.00    +0.000 OA
ATOM     10  O   UNL     1     -13.401  58.710  48.565  0.00  0.00    +0.000 OA
ATOM     11  N   UNL     1     -12.414  56.528  49.200  0.00  0.00    +0.000 N 
ATOM     12  C   UNL     1     -14.212  57.797  50.824  0.00  0.00    +0.000 A 
ATOM     13  C   UNL     1     -12.054  55.953  50.308  0.00  0.00    +0.000 C 
ATOM     14  C   UNL     1     -13.606  57.058  51.833  0.00  0.00    +0.000 A 
ATOM     15  C   UNL     1     -15.145  58.797  51.092  0.00  0.00    +0.000 A 
ATOM     16  N   UNL     1     -12.639  56.115  51.541  0.00  0.00    +0.000 N 
ATOM     17  C   UNL     1     -13.932  57.366  53.156  0.00  0.00    +0.000 A 
ATOM     18  C   UNL     1     -15.466  59.083  52.414  0.00  0.00    +0.000 A 
ATOM     19  C   UNL     1     -14.854  58.371  53.447  0.00  0.00    +0.000 A 
ATOM     20  H   UNL     1     -11.878  56.407  48.384  0.00  0.00    +0.000 HD
ATOM     21  H   UNL     1     -12.349  55.517  52.267  0.00  0.00    +0.000 HD
ENDBRANCH   1  13
BRANCH   7  22
ATOM     22  C   UNL     1      -7.422  54.284  50.655  0.00  0.00    +0.000 C 
ATOM     23  C   UNL     1      -6.419  53.345  49.944  0.00  0.00    +0.000 C 
ATOM     24  C   UNL     1      -7.288  55.662  49.993  0.00  0.00    +0.000 C 
ATOM     25  C   UNL     1      -6.929  54.362  52.116  0.00  0.00    +0.000 C 
ENDBRANCH   7  22
BRANCH   5  26
ATOM     26  C   UNL     1      -8.947  52.556  48.279  0.00  0.00    +0.000 C 
BRANCH  26  27
ATOM     27  C   UNL     1      -8.676  53.053  46.888  0.00  0.00    +0.000 A 
ATOM     28  C   UNL     1      -9.146  52.311  45.801  0.00  0.00    +0.000 A 
ATOM     29  C   UNL     1      -8.027  54.273  46.660  0.00  0.00    +0.000 A 
ATOM     30  C   UNL     1      -8.909  52.737  44.501  0.00  0.00    +0.000 A 
ATOM     31  C   UNL     1      -7.810  54.712  45.352  0.00  0.00    +0.000 A 
ATOM     32  C   UNL     1      -8.237  53.936  44.275  0.00  0.00    +0.000 A 
ENDBRANCH  26  27
ENDBRANCH   5  26
TORSDOF 4
ENDMDL
MODEL 4
REMARK VINA RESULT:      -8.1      3.199      8.086
REMARK  Name = 
REMARK  7 active torsions:
REMARK  status: ('A' for Active; 'I' for Inactive)
REMARK    1  A    between atoms: C_6  and  C_10
REMARK    2  A    between atoms: N_17  and  C_20
REMARK    3  A    between atoms: C_19  and  C_21
REMARK    4  A    between atoms: C_20  and  C_22
REMARK    5  A    between atoms: C_21  and  C_23
REMARK    6  A    between atoms: C_21  and  C_24
REMARK    7  A    between atoms: C_21  and  C_25
REMARK                            x       y       z     vdW  Elec       q    Type
REMARK                         _______ _______ _______ _____ _____    ______ ____
ROOT
ATOM      1  C   UNL     1     -11.473  55.821  48.928  0.00  0.00    +0.000 C 
ATOM      2  C   UNL     1     -10.504  55.046  49.688  0.00  0.00    +0.000 C 
ATOM      3  C   UNL     1     -11.304  55.466  47.651  0.00  0.00    +0.000 C 
ATOM      4  O   UNL     1     -10.232  55.313  50.867  0.00  0.00    +0.000 OA
ATOM      5  N   UNL     1      -9.993  54.059  48.877  0.00  0.00    +0.000 N 
ATOM      6  O   UNL     1     -11.926  56.048  46.576  0.00  0.00    +0.000 OA
ATOM      7  C   UNL     1     -10.327  54.314  47.462  0.00  0.00    +0.000 C 
ENDROOT
BRANCH   1  13
ATOM      8  S   UNL     1     -13.475  59.106  49.408  0.00  0.00    +0.000 S 
ATOM      9  O   UNL     1     -14.563  59.090  48.440  0.00  0.00    +0.000 OA
ATOM     10  O   UNL     1     -12.767  60.332  49.686  0.00  0.00    +0.000 OA
ATOM     11  N   UNL     1     -12.392  57.996  48.950  0.00  0.00    +0.000 N 
ATOM     12  C   UNL     1     -14.183  58.588  50.931  0.00  0.00    +0.000 A 
ATOM     13  C   UNL     1     -12.386  56.828  49.517  0.00  0.00    +0.000 C 
ATOM     14  C   UNL     1     -13.955  57.278  51.332  0.00  0.00    +0.000 A 
ATOM     15  C   UNL     1     -14.927  59.483  51.698  0.00  0.00    +0.000 A 
ATOM     16  N   UNL     1     -13.161  56.431  50.581  0.00  0.00    +0.000 N 
ATOM     17  C   UNL     1     -14.469  56.872  52.566  0.00  0.00    +0.000 A 
ATOM     18  C   UNL     1     -15.442  59.059  52.918  0.00  0.00    +0.000 A 
ATOM     19  C   UNL     1     -15.207  57.754  53.355  0.00  0.00    +0.000 A 
ATOM     20  H   UNL     1     -11.740  58.206  48.243  0.00  0.00    +0.000 HD
ATOM     21  H   UNL     1     -13.150  55.478  50.824  0.00  0.00    +0.000 HD
ENDBRANCH   1  13
BRANCH   7  22
ATOM     22  C   UNL     1     -10.900  53.095  46.650  0.00  0.00    +0.000 C 
ATOM     23  C   UNL     1      -9.858  51.970  46.440  0.00  0.00    +0.000 C 
ATOM     24  C   UNL     1     -12.096  52.464  47.377  0.00  0.00    +0.000 C 
ATOM     25  C   UNL     1     -11.324  53.518  45.227  0.00  0.00    +0.000 C 
ENDBRANCH   7  22
BRANCH   5  26
ATOM     26  C   UNL     1      -8.972  53.137  49.341  0.00  0.00    +0.000 C 
BRANCH  26  27
ATOM     27  C   UNL     1      -7.550  53.609  49.235  0.00  0.00    +0.000 A 
ATOM     28  C   UNL     1      -6.936  54.163  50.361  0.00  0.00    +0.000 A 
ATOM     29  C   UNL     1      -6.810  53.443  48.057  0.00  0.00    +0.000 A 
ATOM     30  C   UNL     1      -5.625  54.616  50.297  0.00  0.00    +0.000 A 
ATOM     31  C   UNL     1      -5.484  53.878  48.002  0.00  0.00    +0.000 A 
ATOM     32  C   UNL     1      -4.898  54.477  49.117  0.00  0.00    +0.000 A 
ENDBRANCH  26  27
ENDBRANCH   5  26
TORSDOF 4
ENDMDL
MODEL 5
REMARK VINA RESULT:      -7.9      4.328      8.095
REMARK  Name = 
REMARK  7 active torsions:
REMARK  status: ('A' for Active; 'I' for Inactive)
REMARK    1  A    between atoms: C_6  and  C_10
REMARK    2  A    between atoms: N_17  and  C_20
REMARK    3  A    between atoms: C_19  and  C_21
REMARK    4  A    between atoms: C_20  and  C_22
REMARK    5  A    between atoms: C_21  and  C_23
REMARK    6  A    between atoms: C_21  and  C_24
REMARK    7  A    between atoms: C_21  and  C_25
REMARK                            x       y       z     vdW  Elec       q    Type
REMARK                         _______ _______ _______ _____ _____    ______ ____
ROOT
ATOM      1  C   UNL     1     -10.976  54.823  50.641  0.00  0.00    +0.000 C 
ATOM      2  C   UNL     1      -9.555  55.136  50.623  0.00  0.00    +0.000 C 
ATOM      3  C   UNL     1     -11.056  53.489  50.608  0.00  0.00    +0.000 C 
ATOM      4  O   UNL     1      -9.141  56.282  50.401  0.00  0.00    +0.000 OA
ATOM      5  N   UNL     1      -8.845  53.983  50.863  0.00  0.00    +0.000 N 
ATOM      6  O   UNL     1     -12.215  52.766  50.482  0.00  0.00    +0.000 OA
ATOM      7  C   UNL     1      -9.708  52.794  50.726  0.00  0.00    +0.000 C 
ENDROOT
BRANCH   1  13
ATOM      8  S   UNL     1     -13.542  57.426  49.349  0.00  0.00    +0.000 S 
ATOM      9  O   UNL     1     -14.609  56.685  48.691  0.00  0.00    +0.000 OA
ATOM     10  O   UNL     1     -13.069  58.669  48.791  0.00  0.00    +0.000 OA
ATOM     11  N   UNL     1     -12.276  56.432  49.502  0.00  0.00    +0.000 N 
ATOM     12  C   UNL     1     -14.143  57.803  50.957  0.00  0.00    +0.000 A 
ATOM     13  C   UNL     1     -12.057  55.836  50.635  0.00  0.00    +0.000 C 
ATOM     14  C   UNL     1     -13.680  57.028  52.014  0.00  0.00    +0.000 A 
ATOM     15  C   UNL     1     -15.037  58.856  51.142  0.00  0.00    +0.000 A 
ATOM     16  N   UNL     1     -12.746  56.030  51.808  0.00  0.00    +0.000 N 
ATOM     17  C   UNL     1     -14.112  57.353  53.302  0.00  0.00    +0.000 A 
ATOM     18  C   UNL     1     -15.466  59.158  52.429  0.00  0.00    +0.000 A 
ATOM     19  C   UNL     1     -14.997  58.410  53.511  0.00  0.00    +0.000 A 
ATOM     20  H   UNL     1     -11.672  56.281  48.739  0.00  0.00    +0.000 HD
ATOM     21  H   UNL     1     -12.562  55.415  52.554  0.00  0.00    +0.000 HD
ENDBRANCH   1  13
BRANCH   7  22
ATOM     22  C   UNL     1      -9.618  51.730  51.881  0.00  0.00    +0.000 C 
ATOM     23  C   UNL     1      -8.185  51.181  52.083  0.00  0.00    +0.000 C 
ATOM     24  C   UNL     1     -10.055  52.336  53.221  0.00  0.00    +0.000 C 
ATOM     25  C   UNL     1     -10.480  50.488  51.569  0.00  0.00    +0.000 C 
ENDBRANCH   7  22
BRANCH   5  26
ATOM     26  C   UNL     1      -7.393  53.965  50.874  0.00  0.00    +0.000 C 
BRANCH  26  27
ATOM     27  C   UNL     1      -6.733  54.262  52.190  0.00  0.00    +0.000 A 
ATOM     28  C   UNL     1      -5.348  54.118  52.299  0.00  0.00    +0.000 A 
ATOM     29  C   UNL     1      -7.464  54.745  53.283  0.00  0.00    +0.000 A 
ATOM     30  C   UNL     1      -4.704  54.378  53.502  0.00  0.00    +0.000 A 
ATOM     31  C   UNL     1      -6.812  55.028  54.485  0.00  0.00    +0.000 A 
ATOM     32  C   UNL     1      -5.437  54.830  54.597  0.00  0.00    +0.000 A 
ENDBRANCH  26  27
ENDBRANCH   5  26
TORSDOF 4
ENDMDL
MODEL 6
REMARK VINA RESULT:      -7.9      2.686      7.900
REMARK  Name = 
REMARK  7 active torsions:
REMARK  status: ('A' for Active; 'I' for Inactive)
REMARK    1  A    between atoms: C_6  and  C_10
REMARK    2  A    between atoms: N_17  and  C_20
REMARK    3  A    between atoms: C_19  and  C_21
REMARK    4  A    between atoms: C_20  and  C_22
REMARK    5  A    between atoms: C_21  and  C_23
REMARK    6  A    between atoms: C_21  and  C_24
REMARK    7  A    between atoms: C_21  and  C_25
REMARK                            x       y       z     vdW  Elec       q    Type
REMARK                         _______ _______ _______ _____ _____    ______ ____
ROOT
ATOM      1  C   UNL     1     -11.475  55.857  48.918  0.00  0.00    +0.000 C 
ATOM      2  C   UNL     1     -11.324  55.626  47.489  0.00  0.00    +0.000 C 
ATOM      3  C   UNL     1     -10.678  54.969  49.518  0.00  0.00    +0.000 C 
ATOM      4  O   UNL     1     -12.105  56.115  46.661  0.00  0.00    +0.000 OA
ATOM      5  N   UNL     1     -10.238  54.806  47.286  0.00  0.00    +0.000 N 
ATOM      6  O   UNL     1     -10.608  54.750  50.870  0.00  0.00    +0.000 OA
ATOM      7  C   UNL     1      -9.807  54.179  48.550  0.00  0.00    +0.000 C 
ENDROOT
BRANCH   1  13
ATOM      8  S   UNL     1     -13.506  59.123  49.412  0.00  0.00    +0.000 S 
ATOM      9  O   UNL     1     -14.596  59.100  48.447  0.00  0.00    +0.000 OA
ATOM     10  O   UNL     1     -12.807  60.354  49.691  0.00  0.00    +0.000 OA
ATOM     11  N   UNL     1     -12.414  58.024  48.947  0.00  0.00    +0.000 N 
ATOM     12  C   UNL     1     -14.203  58.595  50.936  0.00  0.00    +0.000 A 
ATOM     13  C   UNL     1     -12.396  56.854  49.512  0.00  0.00    +0.000 C 
ATOM     14  C   UNL     1     -13.963  57.285  51.333  0.00  0.00    +0.000 A 
ATOM     15  C   UNL     1     -14.954  59.481  51.707  0.00  0.00    +0.000 A 
ATOM     16  N   UNL     1     -13.164  56.448  50.577  0.00  0.00    +0.000 N 
ATOM     17  C   UNL     1     -14.470  56.872  52.567  0.00  0.00    +0.000 A 
ATOM     18  C   UNL     1     -15.461  59.050  52.928  0.00  0.00    +0.000 A 
ATOM     19  C   UNL     1     -15.213  57.746  53.361  0.00  0.00    +0.000 A 
ATOM     20  H   UNL     1     -11.765  58.241  48.240  0.00  0.00    +0.000 HD
ATOM     21  H   UNL     1     -13.144  55.495  50.818  0.00  0.00    +0.000 HD
ENDBRANCH   1  13
BRANCH   7  22
ATOM     22  C   UNL     1      -8.267  54.228  48.864  0.00  0.00    +0.000 C 
ATOM     23  C   UNL     1      -7.811  55.599  49.421  0.00  0.00    +0.000 C 
ATOM     24  C   UNL     1      -7.886  53.173  49.912  0.00  0.00    +0.000 C 
ATOM     25  C   UNL     1      -7.426  54.016  47.587  0.00  0.00    +0.000 C 
ENDBRANCH   7  22
BRANCH   5  26
ATOM     26  C   UNL     1      -9.849  54.365  45.959  0.00  0.00    +0.000 C 
BRANCH  26  27
ATOM     27  C   UNL     1     -10.326  53.003  45.544  0.00  0.00    +0.000 A 
ATOM     28  C   UNL     1      -9.383  52.033  45.195  0.00  0.00    +0.000 A 
ATOM     29  C   UNL     1     -11.686  52.665  45.565  0.00  0.00    +0.000 A 
ATOM     30  C   UNL     1      -9.788  50.765  44.800  0.00  0.00    +0.000 A 
ATOM     31  C   UNL     1     -12.090  51.382  45.190  0.00  0.00    +0.000 A 
ATOM     32  C   UNL     1     -11.142  50.439  44.794  0.00  0.00    +0.000 A 
ENDBRANCH  26  27
ENDBRANCH   5  26
TORSDOF 4
ENDMDL
MODEL 7
REMARK VINA RESULT:      -7.8      2.672      7.922
REMARK  Name = 
REMARK  7 active torsions:
REMARK  status: ('A' for Active; 'I' for Inactive)
REMARK    1  A    between atoms: C_6  and  C_10
REMARK    2  A    between atoms: N_17  and  C_20
REMARK    3  A    between atoms: C_19  and  C_21
REMARK    4  A    between atoms: C_20  and  C_22
REMARK    5  A    between atoms: C_21  and  C_23
REMARK    6  A    between atoms: C_21  and  C_24
REMARK    7  A    between atoms: C_21  and  C_25
REMARK                            x       y       z     vdW  Elec       q    Type
REMARK                         _______ _______ _______ _____ _____    ______ ____
ROOT
ATOM      1  C   UNL     1     -11.485  55.025  48.682  0.00  0.00    +0.000 C 
ATOM      2  C   UNL     1     -11.006  55.198  47.318  0.00  0.00    +0.000 C 
ATOM      3  C   UNL     1     -10.856  53.945  49.155  0.00  0.00    +0.000 C 
ATOM      4  O   UNL     1     -11.568  55.960  46.520  0.00  0.00    +0.000 OA
ATOM      5  N   UNL     1      -9.908  54.390  47.129  0.00  0.00    +0.000 N 
ATOM      6  O   UNL     1     -11.106  53.347  50.364  0.00  0.00    +0.000 OA
ATOM      7  C   UNL     1      -9.789  53.399  48.216  0.00  0.00    +0.000 C 
ENDROOT
BRANCH   1  13
ATOM      8  S   UNL     1     -14.574  56.089  50.769  0.00  0.00    +0.000 S 
ATOM      9  O   UNL     1     -14.212  55.946  52.172  0.00  0.00    +0.000 OA
ATOM     10  O   UNL     1     -15.894  55.722  50.317  0.00  0.00    +0.000 OA
ATOM     11  N   UNL     1     -13.497  55.256  49.896  0.00  0.00    +0.000 N 
ATOM     12  C   UNL     1     -14.382  57.795  50.398  0.00  0.00    +0.000 A 
ATOM     13  C   UNL     1     -12.511  55.878  49.323  0.00  0.00    +0.000 C 
ATOM     14  C   UNL     1     -13.239  58.177  49.704  0.00  0.00    +0.000 A 
ATOM     15  C   UNL     1     -15.360  58.711  50.781  0.00  0.00    +0.000 A 
ATOM     16  N   UNL     1     -12.316  57.239  49.283  0.00  0.00    +0.000 N 
ATOM     17  C   UNL     1     -13.103  59.524  49.359  0.00  0.00    +0.000 A 
ATOM     18  C   UNL     1     -15.203  60.049  50.439  0.00  0.00    +0.000 A 
ATOM     19  C   UNL     1     -14.076  60.455  49.721  0.00  0.00    +0.000 A 
ATOM     20  H   UNL     1     -13.588  54.281  49.799  0.00  0.00    +0.000 HD
ATOM     21  H   UNL     1     -11.458  57.567  48.931  0.00  0.00    +0.000 HD
ENDBRANCH   1  13
BRANCH   7  22
ATOM     22  C   UNL     1      -8.365  53.241  48.863  0.00  0.00    +0.000 C 
ATOM     23  C   UNL     1      -7.331  52.618  47.895  0.00  0.00    +0.000 C 
ATOM     24  C   UNL     1      -7.805  54.603  49.296  0.00  0.00    +0.000 C 
ATOM     25  C   UNL     1      -8.401  52.287  50.076  0.00  0.00    +0.000 C 
ENDBRANCH   7  22
BRANCH   5  26
ATOM     26  C   UNL     1      -9.223  54.316  45.851  0.00  0.00    +0.000 C 
BRANCH  26  27
ATOM     27  C   UNL     1      -9.509  53.104  45.012  0.00  0.00    +0.000 A 
ATOM     28  C   UNL     1      -8.437  52.378  44.487  0.00  0.00    +0.000 A 
ATOM     29  C   UNL     1     -10.817  52.648  44.805  0.00  0.00    +0.000 A 
ATOM     30  C   UNL     1      -8.663  51.255  43.702  0.00  0.00    +0.000 A 
ATOM     31  C   UNL     1     -11.042  51.506  44.034  0.00  0.00    +0.000 A 
ATOM     32  C   UNL     1      -9.966  50.820  43.471  0.00  0.00    +0.000 A 
ENDBRANCH  26  27
ENDBRANCH   5  26
TORSDOF 4
ENDMDL
MODEL 8
REMARK VINA RESULT:      -7.7      3.581      6.519
REMARK  Name = 
REMARK  7 active torsions:
REMARK  status: ('A' for Active; 'I' for Inactive)
REMARK    1  A    between atoms: C_6  and  C_10
REMARK    2  A    between atoms: N_17  and  C_20
REMARK    3  A    between atoms: C_19  and  C_21
REMARK    4  A    between atoms: C_20  and  C_22
REMARK    5  A    between atoms: C_21  and  C_23
REMARK    6  A    between atoms: C_21  and  C_24
REMARK    7  A    between atoms: C_21  and  C_25
REMARK                            x       y       z     vdW  Elec       q    Type
REMARK                         _______ _______ _______ _____ _____    ______ ____
ROOT
ATOM      1  C   UNL     1     -10.391  53.894  50.506  0.00  0.00    +0.000 C 
ATOM      2  C   UNL     1     -11.024  55.165  50.824  0.00  0.00    +0.000 C 
ATOM      3  C   UNL     1     -10.913  53.507  49.338  0.00  0.00    +0.000 C 
ATOM      4  O   UNL     1     -10.945  55.672  51.951  0.00  0.00    +0.000 OA
ATOM      5  N   UNL     1     -11.683  55.622  49.705  0.00  0.00    +0.000 N 
ATOM      6  O   UNL     1     -10.690  52.298  48.730  0.00  0.00    +0.000 OA
ATOM      7  C   UNL     1     -11.813  54.553  48.696  0.00  0.00    +0.000 C 
ENDROOT
BRANCH   1  13
ATOM      8  S   UNL     1      -8.368  51.050  52.196  0.00  0.00    +0.000 S 
ATOM      9  O   UNL     1      -7.409  50.565  51.213  0.00  0.00    +0.000 OA
ATOM     10  O   UNL     1      -9.045  50.124  53.071  0.00  0.00    +0.000 OA
ATOM     11  N   UNL     1      -9.492  51.904  51.406  0.00  0.00    +0.000 N 
ATOM     12  C   UNL     1      -7.473  52.148  53.236  0.00  0.00    +0.000 A 
ATOM     13  C   UNL     1      -9.419  53.201  51.383  0.00  0.00    +0.000 C 
ATOM     14  C   UNL     1      -7.640  53.512  53.025  0.00  0.00    +0.000 A 
ATOM     15  C   UNL     1      -6.646  51.646  54.238  0.00  0.00    +0.000 A 
ATOM     16  N   UNL     1      -8.515  53.981  52.064  0.00  0.00    +0.000 N 
ATOM     17  C   UNL     1      -6.974  54.393  53.880  0.00  0.00    +0.000 A 
ATOM     18  C   UNL     1      -5.981  52.537  55.073  0.00  0.00    +0.000 A 
ATOM     19  C   UNL     1      -6.150  53.911  54.898  0.00  0.00    +0.000 A 
ATOM     20  H   UNL     1     -10.229  51.443  50.945  0.00  0.00    +0.000 HD
ATOM     21  H   UNL     1      -8.489  54.942  51.851  0.00  0.00    +0.000 HD
ENDBRANCH   1  13
BRANCH   7  22
ATOM     22  C   UNL     1     -11.425  54.936  47.221  0.00  0.00    +0.000 C 
ATOM     23  C   UNL     1     -11.595  53.760  46.230  0.00  0.00    +0.000 C 
ATOM     24  C   UNL     1     -12.303  56.084  46.703  0.00  0.00    +0.000 C 
ATOM     25  C   UNL     1      -9.937  55.335  47.117  0.00  0.00    +0.000 C 
ENDBRANCH   7  22
BRANCH   5  26
ATOM     26  C   UNL     1     -12.445  56.858  49.717  0.00  0.00    +0.000 C 
BRANCH  26  27
ATOM     27  C   UNL     1     -13.744  56.833  50.470  0.00  0.00    +0.000 A 
ATOM     28  C   UNL     1     -13.799  57.414  51.740  0.00  0.00    +0.000 A 
ATOM     29  C   UNL     1     -14.910  56.306  49.902  0.00  0.00    +0.000 A 
ATOM     30  C   UNL     1     -14.981  57.403  52.469  0.00  0.00    +0.000 A 
ATOM     31  C   UNL     1     -16.104  56.317  50.627  0.00  0.00    +0.000 A 
ATOM     32  C   UNL     1     -16.134  56.852  51.914  0.00  0.00    +0.000 A 
ENDBRANCH  26  27
ENDBRANCH   5  26
TORSDOF 4
ENDMDL
MODEL 9
REMARK VINA RESULT:      -7.6      2.765      7.709
REMARK  Name = 
REMARK  7 active torsions:
REMARK  status: ('A' for Active; 'I' for Inactive)
REMARK    1  A    between atoms: C_6  and  C_10
REMARK    2  A    between atoms: N_17  and  C_20
REMARK    3  A    between atoms: C_19  and  C_21
REMARK    4  A    between atoms: C_20  and  C_22
REMARK    5  A    between atoms: C_21  and  C_23
REMARK    6  A    between atoms: C_21  and  C_24
REMARK    7  A    between atoms: C_21  and  C_25
REMARK                            x       y       z     vdW  Elec       q    Type
REMARK                         _______ _______ _______ _____ _____    ______ ____
ROOT
ATOM      1  C   UNL     1     -12.086  54.309  49.751  0.00  0.00    +0.000 C 
ATOM      2  C   UNL     1     -11.869  53.745  48.428  0.00  0.00    +0.000 C 
ATOM      3  C   UNL     1     -11.637  53.395  50.617  0.00  0.00    +0.000 C 
ATOM      4  O   UNL     1     -12.394  54.229  47.416  0.00  0.00    +0.000 OA
ATOM      5  N   UNL     1     -11.047  52.647  48.545  0.00  0.00    +0.000 N 
ATOM      6  O   UNL     1     -11.764  53.463  51.981  0.00  0.00    +0.000 OA
ATOM      7  C   UNL     1     -10.938  52.218  49.952  0.00  0.00    +0.000 C 
ENDROOT
BRANCH   1  13
ATOM      8  S   UNL     1     -13.210  57.991  49.286  0.00  0.00    +0.000 S 
ATOM      9  O   UNL     1     -14.228  57.999  48.246  0.00  0.00    +0.000 OA
ATOM     10  O   UNL     1     -12.226  59.044  49.351  0.00  0.00    +0.000 OA
ATOM     11  N   UNL     1     -12.426  56.580  49.196  0.00  0.00    +0.000 N 
ATOM     12  C   UNL     1     -14.083  58.038  50.810  0.00  0.00    +0.000 A 
ATOM     13  C   UNL     1     -12.737  55.615  50.008  0.00  0.00    +0.000 C 
ATOM     14  C   UNL     1     -14.210  56.847  51.515  0.00  0.00    +0.000 A 
ATOM     15  C   UNL     1     -14.607  59.240  51.282  0.00  0.00    +0.000 A 
ATOM     16  N   UNL     1     -13.627  55.681  51.053  0.00  0.00    +0.000 N 
ATOM     17  C   UNL     1     -14.858  56.883  52.752  0.00  0.00    +0.000 A 
ATOM     18  C   UNL     1     -15.259  59.257  52.510  0.00  0.00    +0.000 A 
ATOM     19  C   UNL     1     -15.378  58.079  53.249  0.00  0.00    +0.000 A 
ATOM     20  H   UNL     1     -11.714  56.452  48.528  0.00  0.00    +0.000 HD
ATOM     21  H   UNL     1     -13.868  54.840  51.504  0.00  0.00    +0.000 HD
ENDBRANCH   1  13
BRANCH   7  22
ATOM     22  C   UNL     1      -9.486  51.932  50.484  0.00  0.00    +0.000 C 
ATOM     23  C   UNL     1      -9.465  51.489  51.966  0.00  0.00    +0.000 C 
ATOM     24  C   UNL     1      -8.816  50.813  49.675  0.00  0.00    +0.000 C 
ATOM     25  C   UNL     1      -8.609  53.202  50.434  0.00  0.00    +0.000 C 
ENDBRANCH   7  22
BRANCH   5  26
ATOM     26  C   UNL     1     -10.673  51.844  47.394  0.00  0.00    +0.000 C 
BRANCH  26  27
ATOM     27  C   UNL     1      -9.829  52.524  46.354  0.00  0.00    +0.000 A 
ATOM     28  C   UNL     1     -10.191  52.408  45.010  0.00  0.00    +0.000 A 
ATOM     29  C   UNL     1      -8.736  53.325  46.707  0.00  0.00    +0.000 A 
ATOM     30  C   UNL     1      -9.430  53.017  44.020  0.00  0.00    +0.000 A 
ATOM     31  C   UNL     1      -7.986  53.956  45.713  0.00  0.00    +0.000 A 
ATOM     32  C   UNL     1      -8.325  53.789  44.370  0.00  0.00    +0.000 A 
ENDBRANCH  26  27
ENDBRANCH   5  26
TORSDOF 4
ENDMDL
