MODEL 1
REMARK VINA RESULT:      -8.0      0.000      0.000
REMARK  Name = 
REMARK  11 active torsions:
REMARK  status: ('A' for Active; 'I' for Inactive)
REMARK    1  A    between atoms: C_6  and  C_10
REMARK    2  A    between atoms: N_17  and  C_20
REMARK    3  A    between atoms: C_19  and  C_21
REMARK    4  A    between atoms: C_20  and  C_22
REMARK    5  A    between atoms: C_21  and  C_23
REMARK    6  A    between atoms: C_21  and  C_24
REMARK    7  A    between atoms: C_21  and  C_25
REMARK    8  A    between atoms: C_22  and  C_26
REMARK    9  A    between atoms: C_26  and  C_27
REMARK   10  A    between atoms: C_26  and  C_28
REMARK   11  A    between atoms: C_26  and  C_29
REMARK                            x       y       z     vdW  Elec       q    Type
REMARK                         _______ _______ _______ _____ _____    ______ ____
ROOT
ATOM      1  C   UNL     1     -10.817  55.384  47.942  0.00  0.00    +0.000 C 
ATOM      2  C   UNL     1     -12.170  55.925  47.794  0.00  0.00    +0.000 C 
ATOM      3  C   UNL     1     -10.432  55.695  49.189  0.00  0.00    +0.000 C 
ATOM      4  O   UNL     1     -12.803  55.861  46.751  0.00  0.00    +0.000 OA
ATOM      5  N   UNL     1     -12.542  56.499  48.993  0.00  0.00    +0.000 N 
ATOM      6  O   UNL     1      -9.190  55.439  49.715  0.00  0.00    +0.000 OA
ATOM      7  C   UNL     1     -11.505  56.379  50.028  0.00  0.00    +0.000 C 
ENDROOT
BRANCH   1  13
ATOM      8  S   UNL     1      -7.948  54.339  45.525  0.00  0.00    +0.000 S 
ATOM      9  O   UNL     1      -6.992  53.519  46.245  0.00  0.00    +0.000 OA
ATOM     10  O   UNL     1      -7.490  55.329  44.569  0.00  0.00    +0.000 OA
ATOM     11  N   UNL     1      -8.880  55.097  46.614  0.00  0.00    +0.000 N 
ATOM     12  C   UNL     1      -8.959  53.221  44.619  0.00  0.00    +0.000 A 
ATOM     13  C   UNL     1     -10.077  54.669  46.862  0.00  0.00    +0.000 C 
ATOM     14  C   UNL     1     -10.241  52.983  45.092  0.00  0.00    +0.000 A 
ATOM     15  C   UNL     1      -8.468  52.609  43.461  0.00  0.00    +0.000 A 
ATOM     16  N   UNL     1     -10.718  53.626  46.228  0.00  0.00    +0.000 N 
ATOM     17  C   UNL     1     -11.051  52.093  44.380  0.00  0.00    +0.000 A 
ATOM     18  C   UNL     1      -9.288  51.731  42.759  0.00  0.00    +0.000 A 
ATOM     19  C   UNL     1     -10.579  51.473  43.218  0.00  0.00    +0.000 A 
ATOM     20  H   UNL     1      -8.534  55.886  47.090  0.00  0.00    +0.000 HD
ATOM     21  H   UNL     1     -11.573  53.315  46.606  0.00  0.00    +0.000 HD
ENDBRANCH   1  13
BRANCH   7  22
ATOM     22  C   UNL     1     -11.903  55.601  51.345  0.00  0.00    +0.000 C 
ATOM     23  C   UNL     1     -12.482  54.201  51.012  0.00  0.00    +0.000 C 
ATOM     24  C   UNL     1     -10.689  55.303  52.250  0.00  0.00    +0.000 C 
ATOM     25  C   UNL     1     -12.950  56.374  52.167  0.00  0.00    +0.000 C 
ENDBRANCH   7  22
BRANCH   5  26
ATOM     26  C   UNL     1     -13.851  57.114  49.127  0.00  0.00    +0.000 C 
BRANCH  26  27
ATOM     27  C   UNL     1     -13.994  58.487  48.469  0.00  0.00    +0.000 C 
BRANCH  27  28
ATOM     28  C   UNL     1     -14.139  59.660  49.478  0.00  0.00    +0.000 C 
ATOM     29  C   UNL     1     -12.765  60.203  49.909  0.00  0.00    +0.000 C 
ATOM     30  C   UNL     1     -14.912  60.804  48.795  0.00  0.00    +0.000 C 
ATOM     31  C   UNL     1     -14.921  59.217  50.726  0.00  0.00    +0.000 C 
ENDBRANCH  27  28
ENDBRANCH  26  27
ENDBRANCH   5  26
TORSDOF 5
ENDMDL
MODEL 2
REMARK VINA RESULT:      -7.9      3.499      6.053
REMARK  Name = 
REMARK  11 active torsions:
REMARK  status: ('A' for Active; 'I' for Inactive)
REMARK    1  A    between atoms: C_6  and  C_10
REMARK    2  A    between atoms: N_17  and  C_20
REMARK    3  A    between atoms: C_19  and  C_21
REMARK    4  A    between atoms: C_20  and  C_22
REMARK    5  A    between atoms: C_21  and  C_23
REMARK    6  A    between atoms: C_21  and  C_24
REMARK    7  A    between atoms: C_21  and  C_25
REMARK    8  A    between atoms: C_22  and  C_26
REMARK    9  A    between atoms: C_26  and  C_27
REMARK   10  A    between atoms: C_26  and  C_28
REMARK   11  A    between atoms: C_26  and  C_29
REMARK                            x       y       z     vdW  Elec       q    Type
REMARK                         _______ _______ _______ _____ _____    ______ ____
ROOT
ATOM      1  C   UNL     1     -10.086  54.997  50.571  0.00  0.00    +0.000 C 
ATOM      2  C   UNL     1     -11.134  55.265  51.557  0.00  0.00    +0.000 C 
ATOM      3  C   UNL     1     -10.711  54.903  49.387  0.00  0.00    +0.000 C 
ATOM      4  O   UNL     1     -10.915  55.358  52.755  0.00  0.00    +0.000 OA
ATOM      5  N   UNL     1     -12.341  55.363  50.894  0.00  0.00    +0.000 N 
ATOM      6  O   UNL     1     -10.100  54.580  48.200  0.00  0.00    +0.000 OA
ATOM      7  C   UNL     1     -12.206  55.191  49.439  0.00  0.00    +0.000 C 
ENDROOT
BRANCH   1  13
ATOM      8  S   UNL     1      -6.284  54.247  50.182  0.00  0.00    +0.000 S 
ATOM      9  O   UNL     1      -5.649  55.348  49.484  0.00  0.00    +0.000 OA
ATOM     10  O   UNL     1      -5.902  52.879  49.891  0.00  0.00    +0.000 OA
ATOM     11  N   UNL     1      -7.886  54.370  49.964  0.00  0.00    +0.000 N 
ATOM     12  C   UNL     1      -5.940  54.494  51.889  0.00  0.00    +0.000 A 
ATOM     13  C   UNL     1      -8.640  54.844  50.905  0.00  0.00    +0.000 C 
ATOM     14  C   UNL     1      -6.968  54.969  52.691  0.00  0.00    +0.000 A 
ATOM     15  C   UNL     1      -4.670  54.210  52.399  0.00  0.00    +0.000 A 
ATOM     16  N   UNL     1      -8.231  55.215  52.168  0.00  0.00    +0.000 N 
ATOM     17  C   UNL     1      -6.703  55.172  54.049  0.00  0.00    +0.000 A 
ATOM     18  C   UNL     1      -4.423  54.410  53.754  0.00  0.00    +0.000 A 
ATOM     19  C   UNL     1      -5.439  54.890  54.579  0.00  0.00    +0.000 A 
ATOM     20  H   UNL     1      -8.288  54.086  49.112  0.00  0.00    +0.000 HD
ATOM     21  H   UNL     1      -8.880  55.688  52.740  0.00  0.00    +0.000 HD
ENDBRANCH   1  13
BRANCH   7  22
ATOM     22  C   UNL     1     -12.671  56.402  48.536  0.00  0.00    +0.000 C 
ATOM     23  C   UNL     1     -12.279  56.175  47.053  0.00  0.00    +0.000 C 
ATOM     24  C   UNL     1     -14.206  56.563  48.501  0.00  0.00    +0.000 C 
ATOM     25  C   UNL     1     -12.049  57.730  49.003  0.00  0.00    +0.000 C 
ENDBRANCH   7  22
BRANCH   5  26
ATOM     26  C   UNL     1     -13.559  55.631  51.637  0.00  0.00    +0.000 C 
BRANCH  26  27
ATOM     27  C   UNL     1     -13.607  56.994  52.332  0.00  0.00    +0.000 C 
BRANCH  27  28
ATOM     28  C   UNL     1     -14.960  57.741  52.165  0.00  0.00    +0.000 C 
ATOM     29  C   UNL     1     -16.047  56.813  51.593  0.00  0.00    +0.000 C 
ATOM     30  C   UNL     1     -15.428  58.229  53.549  0.00  0.00    +0.000 C 
ATOM     31  C   UNL     1     -14.803  58.962  51.243  0.00  0.00    +0.000 C 
ENDBRANCH  27  28
ENDBRANCH  26  27
ENDBRANCH   5  26
TORSDOF 5
ENDMDL
MODEL 3
REMARK VINA RESULT:      -7.6      3.048      7.874
REMARK  Name = 
REMARK  11 active torsions:
REMARK  status: ('A' for Active; 'I' for Inactive)
REMARK    1  A    between atoms: C_6  and  C_10
REMARK    2  A    between atoms: N_17  and  C_20
REMARK    3  A    between atoms: C_19  and  C_21
REMARK    4  A    between atoms: C_20  and  C_22
REMARK    5  A    between atoms: C_21  and  C_23
REMARK    6  A    between atoms: C_21  and  C_24
REMARK    7  A    between atoms: C_21  and  C_25
REMARK    8  A    between atoms: C_22  and  C_26
REMARK    9  A    between atoms: C_26  and  C_27
REMARK   10  A    between atoms: C_26  and  C_28
REMARK   11  A    between atoms: C_26  and  C_29
REMARK                            x       y       z     vdW  Elec       q    Type
REMARK                         _______ _______ _______ _____ _____    ______ ____
ROOT
ATOM      1  C   UNL     1     -11.511  55.890  48.826  0.00  0.00    +0.000 C 
ATOM      2  C   UNL     1     -10.513  55.117  49.568  0.00  0.00    +0.000 C 
ATOM      3  C   UNL     1     -11.368  55.534  47.540  0.00  0.00    +0.000 C 
ATOM      4  O   UNL     1     -10.335  55.238  50.771  0.00  0.00    +0.000 OA
ATOM      5  N   UNL     1      -9.848  54.297  48.679  0.00  0.00    +0.000 N 
ATOM      6  O   UNL     1     -12.063  56.084  46.491  0.00  0.00    +0.000 OA
ATOM      7  C   UNL     1     -10.344  54.431  47.301  0.00  0.00    +0.000 C 
ENDROOT
BRANCH   1  13
ATOM      8  S   UNL     1     -13.521  59.170  49.431  0.00  0.00    +0.000 S 
ATOM      9  O   UNL     1     -14.638  59.223  48.508  0.00  0.00    +0.000 OA
ATOM     10  O   UNL     1     -12.762  60.369  49.731  0.00  0.00    +0.000 OA
ATOM     11  N   UNL     1     -12.480  58.047  48.897  0.00  0.00    +0.000 N 
ATOM     12  C   UNL     1     -14.184  58.620  50.964  0.00  0.00    +0.000 A 
ATOM     13  C   UNL     1     -12.441  56.876  49.449  0.00  0.00    +0.000 C 
ATOM     14  C   UNL     1     -13.939  57.307  51.339  0.00  0.00    +0.000 A 
ATOM     15  C   UNL     1     -14.926  59.495  51.763  0.00  0.00    +0.000 A 
ATOM     16  N   UNL     1     -13.172  56.465  50.543  0.00  0.00    +0.000 N 
ATOM     17  C   UNL     1     -14.465  56.859  52.555  0.00  0.00    +0.000 A 
ATOM     18  C   UNL     1     -15.438  59.038  52.974  0.00  0.00    +0.000 A 
ATOM     19  C   UNL     1     -15.207  57.720  53.370  0.00  0.00    +0.000 A 
ATOM     20  H   UNL     1     -11.875  58.256  48.148  0.00  0.00    +0.000 HD
ATOM     21  H   UNL     1     -13.150  55.508  50.776  0.00  0.00    +0.000 HD
ENDBRANCH   1  13
BRANCH   7  22
ATOM     22  C   UNL     1     -10.930  53.127  46.627  0.00  0.00    +0.000 C 
ATOM     23  C   UNL     1     -11.431  53.419  45.189  0.00  0.00    +0.000 C 
ATOM     24  C   UNL     1      -9.868  52.024  46.442  0.00  0.00    +0.000 C 
ATOM     25  C   UNL     1     -12.103  52.548  47.439  0.00  0.00    +0.000 C 
ENDBRANCH   7  22
BRANCH   5  26
ATOM     26  C   UNL     1      -8.799  53.411  49.152  0.00  0.00    +0.000 C 
BRANCH  26  27
ATOM     27  C   UNL     1      -7.373  53.913  48.920  0.00  0.00    +0.000 C 
BRANCH  27  28
ATOM     28  C   UNL     1      -6.660  54.413  50.208  0.00  0.00    +0.000 C 
ATOM     29  C   UNL     1      -5.143  54.162  50.143  0.00  0.00    +0.000 C 
ATOM     30  C   UNL     1      -6.889  55.930  50.341  0.00  0.00    +0.000 C 
ATOM     31  C   UNL     1      -7.233  53.720  51.456  0.00  0.00    +0.000 C 
ENDBRANCH  27  28
ENDBRANCH  26  27
ENDBRANCH   5  26
TORSDOF 5
ENDMDL
MODEL 4
REMARK VINA RESULT:      -7.5      3.636      6.526
REMARK  Name = 
REMARK  11 active torsions:
REMARK  status: ('A' for Active; 'I' for Inactive)
REMARK    1  A    between atoms: C_6  and  C_10
REMARK    2  A    between atoms: N_17  and  C_20
REMARK    3  A    between atoms: C_19  and  C_21
REMARK    4  A    between atoms: C_20  and  C_22
REMARK    5  A    between atoms: C_21  and  C_23
REMARK    6  A    between atoms: C_21  and  C_24
REMARK    7  A    between atoms: C_21  and  C_25
REMARK    8  A    between atoms: C_22  and  C_26
REMARK    9  A    between atoms: C_26  and  C_27
REMARK   10  A    between atoms: C_26  and  C_28
REMARK   11  A    between atoms: C_26  and  C_29
REMARK                            x       y       z     vdW  Elec       q    Type
REMARK                         _______ _______ _______ _____ _____    ______ ____
ROOT
ATOM      1  C   UNL     1     -10.711  53.776  50.507  0.00  0.00    +0.000 C 
ATOM      2  C   UNL     1     -11.782  54.698  50.890  0.00  0.00    +0.000 C 
ATOM      3  C   UNL     1     -10.940  53.462  49.223  0.00  0.00    +0.000 C 
ATOM      4  O   UNL     1     -11.905  55.144  52.021  0.00  0.00    +0.000 OA
ATOM      5  N   UNL     1     -12.579  54.922  49.786  0.00  0.00    +0.000 N 
ATOM      6  O   UNL     1     -10.208  52.557  48.493  0.00  0.00    +0.000 OA
ATOM      7  C   UNL     1     -12.112  54.203  48.591  0.00  0.00    +0.000 C 
ENDROOT
BRANCH   1  13
ATOM      8  S   UNL     1      -8.390  51.399  52.539  0.00  0.00    +0.000 S 
ATOM      9  O   UNL     1      -7.394  50.830  51.652  0.00  0.00    +0.000 OA
ATOM     10  O   UNL     1      -9.009  50.582  53.564  0.00  0.00    +0.000 OA
ATOM     11  N   UNL     1      -9.574  52.030  51.628  0.00  0.00    +0.000 N 
ATOM     12  C   UNL     1      -7.587  52.715  53.387  0.00  0.00    +0.000 A 
ATOM     13  C   UNL     1      -9.636  53.309  51.430  0.00  0.00    +0.000 C 
ATOM     14  C   UNL     1      -7.888  54.011  52.995  0.00  0.00    +0.000 A 
ATOM     15  C   UNL     1      -6.686  52.439  54.419  0.00  0.00    +0.000 A 
ATOM     16  N   UNL     1      -8.811  54.262  51.987  0.00  0.00    +0.000 N 
ATOM     17  C   UNL     1      -7.252  55.064  53.661  0.00  0.00    +0.000 A 
ATOM     18  C   UNL     1      -6.066  53.497  55.078  0.00  0.00    +0.000 A 
ATOM     19  C   UNL     1      -6.349  54.810  54.699  0.00  0.00    +0.000 A 
ATOM     20  H   UNL     1     -10.247  51.438  51.222  0.00  0.00    +0.000 HD
ATOM     21  H   UNL     1      -8.879  55.184  51.647  0.00  0.00    +0.000 HD
ENDBRANCH   1  13
BRANCH   7  22
ATOM     22  C   UNL     1     -11.729  55.085  47.337  0.00  0.00    +0.000 C 
ATOM     23  C   UNL     1     -11.781  54.251  46.031  0.00  0.00    +0.000 C 
ATOM     24  C   UNL     1     -12.729  56.235  47.091  0.00  0.00    +0.000 C 
ATOM     25  C   UNL     1     -10.317  55.683  47.473  0.00  0.00    +0.000 C 
ENDBRANCH   7  22
BRANCH   5  26
ATOM     26  C   UNL     1     -13.724  55.810  49.885  0.00  0.00    +0.000 C 
BRANCH  26  27
ATOM     27  C   UNL     1     -13.428  57.186  50.483  0.00  0.00    +0.000 C 
BRANCH  27  28
ATOM     28  C   UNL     1     -14.540  57.716  51.432  0.00  0.00    +0.000 C 
ATOM     29  C   UNL     1     -14.968  59.145  51.052  0.00  0.00    +0.000 C 
ATOM     30  C   UNL     1     -15.771  56.799  51.309  0.00  0.00    +0.000 C 
ATOM     31  C   UNL     1     -14.065  57.704  52.895  0.00  0.00    +0.000 C 
ENDBRANCH  27  28
ENDBRANCH  26  27
ENDBRANCH   5  26
TORSDOF 5
ENDMDL
MODEL 5
REMARK VINA RESULT:      -7.4      2.609      7.851
REMARK  Name = 
REMARK  11 active torsions:
REMARK  status: ('A' for Active; 'I' for Inactive)
REMARK    1  A    between atoms: C_6  and  C_10
REMARK    2  A    between atoms: N_17  and  C_20
REMARK    3  A    between atoms: C_19  and  C_21
REMARK    4  A    between atoms: C_20  and  C_22
REMARK    5  A    between atoms: C_21  and  C_23
REMARK    6  A    between atoms: C_21  and  C_24
REMARK    7  A    between atoms: C_21  and  C_25
REMARK    8  A    between atoms: C_22  and  C_26
REMARK    9  A    between atoms: C_26  and  C_27
REMARK   10  A    between atoms: C_26  and  C_28
REMARK   11  A    between atoms: C_26  and  C_29
REMARK                            x       y       z     vdW  Elec       q    Type
REMARK                         _______ _______ _______ _____ _____    ______ ____
ROOT
ATOM      1  C   UNL     1     -11.501  55.676  48.937  0.00  0.00    +0.000 C 
ATOM      2  C   UNL     1     -11.258  55.494  47.505  0.00  0.00    +0.000 C 
ATOM      3  C   UNL     1     -10.764  54.742  49.556  0.00  0.00    +0.000 C 
ATOM      4  O   UNL     1     -11.819  56.154  46.644  0.00  0.00    +0.000 OA
ATOM      5  N   UNL     1     -10.341  54.475  47.345  0.00  0.00    +0.000 N 
ATOM      6  O   UNL     1     -10.761  54.513  50.910  0.00  0.00    +0.000 OA
ATOM      7  C   UNL     1      -9.887  53.913  48.626  0.00  0.00    +0.000 C 
ENDROOT
BRANCH   1  13
ATOM      8  S   UNL     1     -13.463  59.011  49.386  0.00  0.00    +0.000 S 
ATOM      9  O   UNL     1     -14.565  59.047  48.443  0.00  0.00    +0.000 OA
ATOM     10  O   UNL     1     -12.689  60.207  49.652  0.00  0.00    +0.000 OA
ATOM     11  N   UNL     1     -12.433  57.851  48.911  0.00  0.00    +0.000 N 
ATOM     12  C   UNL     1     -14.161  58.530  50.927  0.00  0.00    +0.000 A 
ATOM     13  C   UNL     1     -12.424  56.701  49.507  0.00  0.00    +0.000 C 
ATOM     14  C   UNL     1     -13.944  57.229  51.354  0.00  0.00    +0.000 A 
ATOM     15  C   UNL     1     -14.900  59.447  51.680  0.00  0.00    +0.000 A 
ATOM     16  N   UNL     1     -13.179  56.344  50.603  0.00  0.00    +0.000 N 
ATOM     17  C   UNL     1     -14.497  56.836  52.577  0.00  0.00    +0.000 A 
ATOM     18  C   UNL     1     -15.439  59.045  52.898  0.00  0.00    +0.000 A 
ATOM     19  C   UNL     1     -15.238  57.740  53.347  0.00  0.00    +0.000 A 
ATOM     20  H   UNL     1     -11.814  58.021  48.165  0.00  0.00    +0.000 HD
ATOM     21  H   UNL     1     -13.178  55.396  50.873  0.00  0.00    +0.000 HD
ENDBRANCH   1  13
BRANCH   7  22
ATOM     22  C   UNL     1      -8.338  54.004  48.932  0.00  0.00    +0.000 C 
ATOM     23  C   UNL     1      -7.878  55.480  49.047  0.00  0.00    +0.000 C 
ATOM     24  C   UNL     1      -7.963  53.382  50.294  0.00  0.00    +0.000 C 
ATOM     25  C   UNL     1      -7.502  53.320  47.834  0.00  0.00    +0.000 C 
ENDBRANCH   7  22
BRANCH   5  26
ATOM     26  C   UNL     1      -9.913  54.085  46.014  0.00  0.00    +0.000 C 
BRANCH  26  27
ATOM     27  C   UNL     1     -10.971  53.362  45.178  0.00  0.00    +0.000 C 
BRANCH  27  28
ATOM     28  C   UNL     1     -10.427  52.137  44.392  0.00  0.00    +0.000 C 
ATOM     29  C   UNL     1      -9.984  52.532  42.972  0.00  0.00    +0.000 C 
ATOM     30  C   UNL     1      -9.201  51.578  45.137  0.00  0.00    +0.000 C 
ATOM     31  C   UNL     1     -11.490  51.028  44.298  0.00  0.00    +0.000 C 
ENDBRANCH  27  28
ENDBRANCH  26  27
ENDBRANCH   5  26
TORSDOF 5
ENDMDL
MODEL 6
REMARK VINA RESULT:      -7.4      3.263      7.600
REMARK  Name = 
REMARK  11 active torsions:
REMARK  status: ('A' for Active; 'I' for Inactive)
REMARK    1  A    between atoms: C_6  and  C_10
REMARK    2  A    between atoms: N_17  and  C_20
REMARK    3  A    between atoms: C_19  and  C_21
REMARK    4  A    between atoms: C_20  and  C_22
REMARK    5  A    between atoms: C_21  and  C_23
REMARK    6  A    between atoms: C_21  and  C_24
REMARK    7  A    between atoms: C_21  and  C_25
REMARK    8  A    between atoms: C_22  and  C_26
REMARK    9  A    between atoms: C_26  and  C_27
REMARK   10  A    between atoms: C_26  and  C_28
REMARK   11  A    between atoms: C_26  and  C_29
REMARK                            x       y       z     vdW  Elec       q    Type
REMARK                         _______ _______ _______ _____ _____    ______ ____
ROOT
ATOM      1  C   UNL     1     -12.468  54.273  50.015  0.00  0.00    +0.000 C 
ATOM      2  C   UNL     1     -12.124  53.977  48.623  0.00  0.00    +0.000 C 
ATOM      3  C   UNL     1     -12.123  53.183  50.718  0.00  0.00    +0.000 C 
ATOM      4  O   UNL     1     -12.356  54.745  47.702  0.00  0.00    +0.000 OA
ATOM      5  N   UNL     1     -11.542  52.727  48.575  0.00  0.00    +0.000 N 
ATOM      6  O   UNL     1     -12.348  53.010  52.061  0.00  0.00    +0.000 OA
ATOM      7  C   UNL     1     -11.432  52.099  49.900  0.00  0.00    +0.000 C 
ENDROOT
BRANCH   1  13
ATOM      8  S   UNL     1     -14.377  56.835  52.242  0.00  0.00    +0.000 S 
ATOM      9  O   UNL     1     -13.497  57.302  53.295  0.00  0.00    +0.000 OA
ATOM     10  O   UNL     1     -15.773  56.562  52.523  0.00  0.00    +0.000 OA
ATOM     11  N   UNL     1     -13.730  55.493  51.603  0.00  0.00    +0.000 N 
ATOM     12  C   UNL     1     -14.367  58.091  51.011  0.00  0.00    +0.000 A 
ATOM     13  C   UNL     1     -13.101  55.544  50.471  0.00  0.00    +0.000 C 
ATOM     14  C   UNL     1     -13.640  57.853  49.854  0.00  0.00    +0.000 A 
ATOM     15  C   UNL     1     -15.079  59.277  51.211  0.00  0.00    +0.000 A 
ATOM     16  N   UNL     1     -12.966  56.653  49.663  0.00  0.00    +0.000 N 
ATOM     17  C   UNL     1     -13.623  58.847  48.870  0.00  0.00    +0.000 A 
ATOM     18  C   UNL     1     -15.059  60.255  50.221  0.00  0.00    +0.000 A 
ATOM     19  C   UNL     1     -14.331  60.040  49.050  0.00  0.00    +0.000 A 
ATOM     20  H   UNL     1     -13.813  54.635  52.078  0.00  0.00    +0.000 HD
ATOM     21  H   UNL     1     -12.347  56.591  48.899  0.00  0.00    +0.000 HD
ENDBRANCH   1  13
BRANCH   7  22
ATOM     22  C   UNL     1      -9.975  51.735  50.393  0.00  0.00    +0.000 C 
ATOM     23  C   UNL     1      -9.989  51.251  51.866  0.00  0.00    +0.000 C 
ATOM     24  C   UNL     1      -9.360  50.554  49.612  0.00  0.00    +0.000 C 
ATOM     25  C   UNL     1      -9.023  52.941  50.289  0.00  0.00    +0.000 C 
ENDBRANCH   7  22
BRANCH   5  26
ATOM     26  C   UNL     1     -11.097  52.182  47.304  0.00  0.00    +0.000 C 
BRANCH  26  27
ATOM     27  C   UNL     1      -9.672  52.564  46.898  0.00  0.00    +0.000 C 
BRANCH  27  28
ATOM     28  C   UNL     1      -9.600  53.562  45.709  0.00  0.00    +0.000 C 
ATOM     29  C   UNL     1      -8.502  53.163  44.707  0.00  0.00    +0.000 C 
ATOM     30  C   UNL     1     -10.951  53.546  44.969  0.00  0.00    +0.000 C 
ATOM     31  C   UNL     1      -9.332  54.993  46.208  0.00  0.00    +0.000 C 
ENDBRANCH  27  28
ENDBRANCH  26  27
ENDBRANCH   5  26
TORSDOF 5
ENDMDL
MODEL 7
REMARK VINA RESULT:      -7.4      2.877      7.897
REMARK  Name = 
REMARK  11 active torsions:
REMARK  status: ('A' for Active; 'I' for Inactive)
REMARK    1  A    between atoms: C_6  and  C_10
REMARK    2  A    between atoms: N_17  and  C_20
REMARK    3  A    between atoms: C_19  and  C_21
REMARK    4  A    between atoms: C_20  and  C_22
REMARK    5  A    between atoms: C_21  and  C_23
REMARK    6  A    between atoms: C_21  and  C_24
REMARK    7  A    between atoms: C_21  and  C_25
REMARK    8  A    between atoms: C_22  and  C_26
REMARK    9  A    between atoms: C_26  and  C_27
REMARK   10  A    between atoms: C_26  and  C_28
REMARK   11  A    between atoms: C_26  and  C_29
REMARK                            x       y       z     vdW  Elec       q    Type
REMARK                         _______ _______ _______ _____ _____    ______ ____
ROOT
ATOM      1  C   UNL     1     -11.966  54.701  48.704  0.00  0.00    +0.000 C 
ATOM      2  C   UNL     1     -11.346  54.897  47.392  0.00  0.00    +0.000 C 
ATOM      3  C   UNL     1     -11.570  53.488  49.118  0.00  0.00    +0.000 C 
ATOM      4  O   UNL     1     -11.541  55.888  46.704  0.00  0.00    +0.000 OA
ATOM      5  N   UNL     1     -10.566  53.794  47.109  0.00  0.00    +0.000 N 
ATOM      6  O   UNL     1     -11.989  52.877  50.275  0.00  0.00    +0.000 OA
ATOM      7  C   UNL     1     -10.581  52.795  48.189  0.00  0.00    +0.000 C 
ENDROOT
BRANCH   1  13
ATOM      8  S   UNL     1     -14.884  56.172  50.822  0.00  0.00    +0.000 S 
ATOM      9  O   UNL     1     -14.559  56.054  52.230  0.00  0.00    +0.000 OA
ATOM     10  O   UNL     1     -16.235  55.919  50.359  0.00  0.00    +0.000 OA
ATOM     11  N   UNL     1     -13.887  55.199  49.992  0.00  0.00    +0.000 N 
ATOM     12  C   UNL     1     -14.523  57.835  50.380  0.00  0.00    +0.000 A 
ATOM     13  C   UNL     1     -12.868  55.690  49.361  0.00  0.00    +0.000 C 
ATOM     14  C   UNL     1     -13.371  58.071  49.644  0.00  0.00    +0.000 A 
ATOM     15  C   UNL     1     -15.385  58.867  50.763  0.00  0.00    +0.000 A 
ATOM     16  N   UNL     1     -12.546  57.026  49.247  0.00  0.00    +0.000 N 
ATOM     17  C   UNL     1     -13.074  59.391  49.290  0.00  0.00    +0.000 A 
ATOM     18  C   UNL     1     -15.080  60.176  50.399  0.00  0.00    +0.000 A 
ATOM     19  C   UNL     1     -13.925  60.438  49.662  0.00  0.00    +0.000 A 
ATOM     20  H   UNL     1     -14.056  54.229  49.969  0.00  0.00    +0.000 HD
ATOM     21  H   UNL     1     -11.670  57.255  48.858  0.00  0.00    +0.000 HD
ENDBRANCH   1  13
BRANCH   7  22
ATOM     22  C   UNL     1      -9.189  52.449  48.854  0.00  0.00    +0.000 C 
ATOM     23  C   UNL     1      -9.333  51.298  49.882  0.00  0.00    +0.000 C 
ATOM     24  C   UNL     1      -8.158  51.920  47.835  0.00  0.00    +0.000 C 
ATOM     25  C   UNL     1      -8.585  53.669  49.574  0.00  0.00    +0.000 C 
ENDBRANCH   7  22
BRANCH   5  26
ATOM     26  C   UNL     1      -9.828  53.727  45.860  0.00  0.00    +0.000 C 
BRANCH  26  27
ATOM     27  C   UNL     1     -10.554  53.019  44.715  0.00  0.00    +0.000 C 
BRANCH  27  28
ATOM     28  C   UNL     1      -9.840  51.732  44.213  0.00  0.00    +0.000 C 
ATOM     29  C   UNL     1     -10.233  50.507  45.058  0.00  0.00    +0.000 C 
ATOM     30  C   UNL     1     -10.269  51.467  42.758  0.00  0.00    +0.000 C 
ATOM     31  C   UNL     1      -8.312  51.902  44.250  0.00  0.00    +0.000 C 
ENDBRANCH  27  28
ENDBRANCH  26  27
ENDBRANCH   5  26
TORSDOF 5
ENDMDL
MODEL 8
REMARK VINA RESULT:      -7.3      2.704      7.730
REMARK  Name = 
REMARK  11 active torsions:
REMARK  status: ('A' for Active; 'I' for Inactive)
REMARK    1  A    between atoms: C_6  and  C_10
REMARK    2  A    between atoms: N_17  and  C_20
REMARK    3  A    between atoms: C_19  and  C_21
REMARK    4  A    between atoms: C_20  and  C_22
REMARK    5  A    between atoms: C_21  and  C_23
REMARK    6  A    between atoms: C_21  and  C_24
REMARK    7  A    between atoms: C_21  and  C_25
REMARK    8  A    between atoms: C_22  and  C_26
REMARK    9  A    between atoms: C_26  and  C_27
REMARK   10  A    between atoms: C_26  and  C_28
REMARK   11  A    between atoms: C_26  and  C_29
REMARK                            x       y       z     vdW  Elec       q    Type
REMARK                         _______ _______ _______ _____ _____    ______ ____
ROOT
ATOM      1  C   UNL     1     -11.104  55.493  49.777  0.00  0.00    +0.000 C 
ATOM      2  C   UNL     1     -10.638  55.149  48.432  0.00  0.00    +0.000 C 
ATOM      3  C   UNL     1     -10.435  54.685  50.614  0.00  0.00    +0.000 C 
ATOM      4  O   UNL     1     -11.086  55.666  47.419  0.00  0.00    +0.000 OA
ATOM      5  N   UNL     1      -9.670  54.172  48.542  0.00  0.00    +0.000 N 
ATOM      6  O   UNL     1     -10.630  54.625  51.972  0.00  0.00    +0.000 OA
ATOM      7  C   UNL     1      -9.396  53.798  49.938  0.00  0.00    +0.000 C 
ENDROOT
BRANCH   1  13
ATOM      8  S   UNL     1     -13.336  58.663  49.409  0.00  0.00    +0.000 S 
ATOM      9  O   UNL     1     -14.363  58.411  48.416  0.00  0.00    +0.000 OA
ATOM     10  O   UNL     1     -12.675  59.952  49.467  0.00  0.00    +0.000 OA
ATOM     11  N   UNL     1     -12.190  57.527  49.246  0.00  0.00    +0.000 N 
ATOM     12  C   UNL     1     -14.110  58.443  50.972  0.00  0.00    +0.000 A 
ATOM     13  C   UNL     1     -12.140  56.526  50.067  0.00  0.00    +0.000 C 
ATOM     14  C   UNL     1     -13.830  57.279  51.672  0.00  0.00    +0.000 A 
ATOM     15  C   UNL     1     -14.971  59.425  51.474  0.00  0.00    +0.000 A 
ATOM     16  N   UNL     1     -12.948  56.332  51.167  0.00  0.00    +0.000 N 
ATOM     17  C   UNL     1     -14.444  57.094  52.915  0.00  0.00    +0.000 A 
ATOM     18  C   UNL     1     -15.569  59.230  52.716  0.00  0.00    +0.000 A 
ATOM     19  C   UNL     1     -15.305  58.065  53.436  0.00  0.00    +0.000 A 
ATOM     20  H   UNL     1     -11.531  57.597  48.519  0.00  0.00    +0.000 HD
ATOM     21  H   UNL     1     -12.896  55.462  51.627  0.00  0.00    +0.000 HD
ENDBRANCH   1  13
BRANCH   7  22
ATOM     22  C   UNL     1      -7.917  54.014  50.453  0.00  0.00    +0.000 C 
ATOM     23  C   UNL     1      -7.790  53.649  51.955  0.00  0.00    +0.000 C 
ATOM     24  C   UNL     1      -6.901  53.088  49.751  0.00  0.00    +0.000 C 
ATOM     25  C   UNL     1      -7.459  55.473  50.269  0.00  0.00    +0.000 C 
ENDBRANCH   7  22
BRANCH   5  26
ATOM     26  C   UNL     1      -9.029  53.646  47.350  0.00  0.00    +0.000 C 
BRANCH  26  27
ATOM     27  C   UNL     1      -9.790  52.519  46.648  0.00  0.00    +0.000 C 
BRANCH  27  28
ATOM     28  C   UNL     1      -9.910  52.700  45.109  0.00  0.00    +0.000 C 
ATOM     29  C   UNL     1     -11.271  53.303  44.719  0.00  0.00    +0.000 C 
ATOM     30  C   UNL     1      -8.806  53.666  44.639  0.00  0.00    +0.000 C 
ATOM     31  C   UNL     1      -9.726  51.357  44.382  0.00  0.00    +0.000 C 
ENDBRANCH  27  28
ENDBRANCH  26  27
ENDBRANCH   5  26
TORSDOF 5
ENDMDL
MODEL 9
REMARK VINA RESULT:      -7.2      3.686      6.480
REMARK  Name = 
REMARK  11 active torsions:
REMARK  status: ('A' for Active; 'I' for Inactive)
REMARK    1  A    between atoms: C_6  and  C_10
REMARK    2  A    between atoms: N_17  and  C_20
REMARK    3  A    between atoms: C_19  and  C_21
REMARK    4  A    between atoms: C_20  and  C_22
REMARK    5  A    between atoms: C_21  and  C_23
REMARK    6  A    between atoms: C_21  and  C_24
REMARK    7  A    between atoms: C_21  and  C_25
REMARK    8  A    between atoms: C_22  and  C_26
REMARK    9  A    between atoms: C_26  and  C_27
REMARK   10  A    between atoms: C_26  and  C_28
REMARK   11  A    between atoms: C_26  and  C_29
REMARK                            x       y       z     vdW  Elec       q    Type
REMARK                         _______ _______ _______ _____ _____    ______ ____
ROOT
ATOM      1  C   UNL     1     -10.533  53.861  50.827  0.00  0.00    +0.000 C 
ATOM      2  C   UNL     1     -11.662  54.739  51.141  0.00  0.00    +0.000 C 
ATOM      3  C   UNL     1     -10.703  53.489  49.549  0.00  0.00    +0.000 C 
ATOM      4  O   UNL     1     -11.846  55.219  52.249  0.00  0.00    +0.000 OA
ATOM      5  N   UNL     1     -12.432  54.882  50.004  0.00  0.00    +0.000 N 
ATOM      6  O   UNL     1      -9.902  52.597  48.878  0.00  0.00    +0.000 OA
ATOM      7  C   UNL     1     -11.888  54.145  48.853  0.00  0.00    +0.000 C 
ENDROOT
BRANCH   1  13
ATOM      8  S   UNL     1      -7.048  53.608  52.546  0.00  0.00    +0.000 S 
ATOM      9  O   UNL     1      -6.774  54.843  53.255  0.00  0.00    +0.000 OA
ATOM     10  O   UNL     1      -5.993  52.935  51.813  0.00  0.00    +0.000 OA
ATOM     11  N   UNL     1      -8.269  53.880  51.514  0.00  0.00    +0.000 N 
ATOM     12  C   UNL     1      -7.600  52.464  53.762  0.00  0.00    +0.000 A 
ATOM     13  C   UNL     1      -9.469  53.484  51.801  0.00  0.00    +0.000 C 
ATOM     14  C   UNL     1      -8.956  52.179  53.810  0.00  0.00    +0.000 A 
ATOM     15  C   UNL     1      -6.684  51.871  54.636  0.00  0.00    +0.000 A 
ATOM     16  N   UNL     1      -9.844  52.757  52.911  0.00  0.00    +0.000 N 
ATOM     17  C   UNL     1      -9.405  51.273  54.777  0.00  0.00    +0.000 A 
ATOM     18  C   UNL     1      -7.144  50.966  55.588  0.00  0.00    +0.000 A 
ATOM     19  C   UNL     1      -8.504  50.667  55.658  0.00  0.00    +0.000 A 
ATOM     20  H   UNL     1      -8.099  54.350  50.666  0.00  0.00    +0.000 HD
ATOM     21  H   UNL     1     -10.808  52.640  53.078  0.00  0.00    +0.000 HD
ENDBRANCH   1  13
BRANCH   7  22
ATOM     22  C   UNL     1     -11.509  55.000  47.578  0.00  0.00    +0.000 C 
ATOM     23  C   UNL     1     -11.437  54.109  46.311  0.00  0.00    +0.000 C 
ATOM     24  C   UNL     1     -12.575  56.062  47.235  0.00  0.00    +0.000 C 
ATOM     25  C   UNL     1     -10.151  55.705  47.752  0.00  0.00    +0.000 C 
ENDBRANCH   7  22
BRANCH   5  26
ATOM     26  C   UNL     1     -13.623  55.712  50.033  0.00  0.00    +0.000 C 
BRANCH  26  27
ATOM     27  C   UNL     1     -13.408  57.138  50.544  0.00  0.00    +0.000 C 
BRANCH  27  28
ATOM     28  C   UNL     1     -14.568  57.674  51.429  0.00  0.00    +0.000 C 
ATOM     29  C   UNL     1     -14.169  57.709  52.916  0.00  0.00    +0.000 C 
ATOM     30  C   UNL     1     -14.899  59.112  50.989  0.00  0.00    +0.000 C 
ATOM     31  C   UNL     1     -15.829  56.809  51.265  0.00  0.00    +0.000 C 
ENDBRANCH  27  28
ENDBRANCH  26  27
ENDBRANCH   5  26
TORSDOF 5
ENDMDL
