MODEL 1
REMARK VINA RESULT:      -8.0      0.000      0.000
REMARK  Name = 
REMARK  7 active torsions:
REMARK  status: ('A' for Active; 'I' for Inactive)
REMARK    1  A    between atoms: C_6  and  C_10
REMARK    2  A    between atoms: N_17  and  C_20
REMARK    3  A    between atoms: C_19  and  C_21
REMARK    4  A    between atoms: C_20  and  C_22
REMARK    5  A    between atoms: C_21  and  C_23
REMARK    6  A    between atoms: C_21  and  C_24
REMARK    7  A    between atoms: C_21  and  C_25
REMARK                            x       y       z     vdW  Elec       q    Type
REMARK                         _______ _______ _______ _____ _____    ______ ____
ROOT
ATOM      1  C   UNL     1     -11.487  55.797  48.883  0.00  0.00    +0.000 C 
ATOM      2  C   UNL     1     -10.565  54.946  49.642  0.00  0.00    +0.000 C 
ATOM      3  C   UNL     1     -11.319  55.467  47.596  0.00  0.00    +0.000 C 
ATOM      4  O   UNL     1     -10.410  55.041  50.850  0.00  0.00    +0.000 OA
ATOM      5  N   UNL     1      -9.960  54.075  48.764  0.00  0.00    +0.000 N 
ATOM      6  O   UNL     1     -11.952  56.071  46.537  0.00  0.00    +0.000 OA
ATOM      7  C   UNL     1     -10.341  54.319  47.364  0.00  0.00    +0.000 C 
ENDROOT
BRANCH   1  13
ATOM      8  S   UNL     1     -13.474  59.102  49.411  0.00  0.00    +0.000 S 
ATOM      9  O   UNL     1     -14.580  59.131  48.471  0.00  0.00    +0.000 OA
ATOM     10  O   UNL     1     -12.723  60.310  49.693  0.00  0.00    +0.000 OA
ATOM     11  N   UNL     1     -12.425  57.970  48.918  0.00  0.00    +0.000 N 
ATOM     12  C   UNL     1     -14.160  58.583  50.943  0.00  0.00    +0.000 A 
ATOM     13  C   UNL     1     -12.402  56.803  49.489  0.00  0.00    +0.000 C 
ATOM     14  C   UNL     1     -13.925  57.278  51.346  0.00  0.00    +0.000 A 
ATOM     15  C   UNL     1     -14.908  59.478  51.715  0.00  0.00    +0.000 A 
ATOM     16  N   UNL     1     -13.149  56.417  50.578  0.00  0.00    +0.000 N 
ATOM     17  C   UNL     1     -14.469  56.857  52.563  0.00  0.00    +0.000 A 
ATOM     18  C   UNL     1     -15.436  59.049  52.930  0.00  0.00    +0.000 A 
ATOM     19  C   UNL     1     -15.216  57.738  53.354  0.00  0.00    +0.000 A 
ATOM     20  H   UNL     1     -11.802  58.167  48.181  0.00  0.00    +0.000 HD
ATOM     21  H   UNL     1     -13.133  55.466  50.831  0.00  0.00    +0.000 HD
ENDBRANCH   1  13
BRANCH   7  22
ATOM     22  C   UNL     1     -10.937  53.091  46.576  0.00  0.00    +0.000 C 
ATOM     23  C   UNL     1     -11.417  53.516  45.164  0.00  0.00    +0.000 C 
ATOM     24  C   UNL     1      -9.880  51.998  46.314  0.00  0.00    +0.000 C 
ATOM     25  C   UNL     1     -12.124  52.457  47.324  0.00  0.00    +0.000 C 
ENDBRANCH   7  22
BRANCH   5  26
ATOM     26  C   UNL     1      -8.918  53.174  49.240  0.00  0.00    +0.000 C 
BRANCH  26  27
ATOM     27  C   UNL     1      -7.496  53.679  49.151  0.00  0.00    +0.000 A 
ATOM     28  N   UNL     1      -7.029  54.475  50.144  0.00  0.00    +0.000 NA
ATOM     29  C   UNL     1      -6.691  53.261  48.090  0.00  0.00    +0.000 A 
ATOM     30  C   UNL     1      -5.747  54.884  50.058  0.00  0.00    +0.000 A 
ATOM     31  C   UNL     1      -5.372  53.698  48.032  0.00  0.00    +0.000 A 
ATOM     32  C   UNL     1      -4.887  54.528  49.035  0.00  0.00    +0.000 A 
ENDBRANCH  26  27
ENDBRANCH   5  26
TORSDOF 4
ENDMDL
MODEL 2
REMARK VINA RESULT:      -7.8      2.456      4.027
REMARK  Name = 
REMARK  7 active torsions:
REMARK  status: ('A' for Active; 'I' for Inactive)
REMARK    1  A    between atoms: C_6  and  C_10
REMARK    2  A    between atoms: N_17  and  C_20
REMARK    3  A    between atoms: C_19  and  C_21
REMARK    4  A    between atoms: C_20  and  C_22
REMARK    5  A    between atoms: C_21  and  C_23
REMARK    6  A    between atoms: C_21  and  C_24
REMARK    7  A    between atoms: C_21  and  C_25
REMARK                            x       y       z     vdW  Elec       q    Type
REMARK                         _______ _______ _______ _____ _____    ______ ____
ROOT
ATOM      1  C   UNL     1     -12.074  54.591  50.215  0.00  0.00    +0.000 C 
ATOM      2  C   UNL     1     -11.866  54.159  48.829  0.00  0.00    +0.000 C 
ATOM      3  C   UNL     1     -11.421  53.706  50.979  0.00  0.00    +0.000 C 
ATOM      4  O   UNL     1     -12.390  54.708  47.872  0.00  0.00    +0.000 OA
ATOM      5  N   UNL     1     -11.007  53.083  48.837  0.00  0.00    +0.000 N 
ATOM      6  O   UNL     1     -11.408  53.708  52.353  0.00  0.00    +0.000 OA
ATOM      7  C   UNL     1     -10.647  52.650  50.196  0.00  0.00    +0.000 C 
ENDROOT
BRANCH   1  13
ATOM      8  S   UNL     1     -14.361  56.943  52.309  0.00  0.00    +0.000 S 
ATOM      9  O   UNL     1     -13.587  57.476  53.415  0.00  0.00    +0.000 OA
ATOM     10  O   UNL     1     -15.742  56.549  52.508  0.00  0.00    +0.000 OA
ATOM     11  N   UNL     1     -13.564  55.668  51.706  0.00  0.00    +0.000 N 
ATOM     12  C   UNL     1     -14.383  58.205  51.086  0.00  0.00    +0.000 A 
ATOM     13  C   UNL     1     -12.863  55.787  50.617  0.00  0.00    +0.000 C 
ATOM     14  C   UNL     1     -13.566  58.044  49.979  0.00  0.00    +0.000 A 
ATOM     15  C   UNL     1     -15.213  59.320  51.245  0.00  0.00    +0.000 A 
ATOM     16  N   UNL     1     -12.776  56.909  49.826  0.00  0.00    +0.000 N 
ATOM     17  C   UNL     1     -13.577  59.044  49.002  0.00  0.00    +0.000 A 
ATOM     18  C   UNL     1     -15.221  60.305  50.260  0.00  0.00    +0.000 A 
ATOM     19  C   UNL     1     -14.403  60.166  49.139  0.00  0.00    +0.000 A 
ATOM     20  H   UNL     1     -13.611  54.799  52.166  0.00  0.00    +0.000 HD
ATOM     21  H   UNL     1     -12.109  56.909  49.103  0.00  0.00    +0.000 HD
ENDBRANCH   1  13
BRANCH   7  22
ATOM     22  C   UNL     1      -9.107  52.579  50.525  0.00  0.00    +0.000 C 
ATOM     23  C   UNL     1      -8.868  52.017  51.949  0.00  0.00    +0.000 C 
ATOM     24  C   UNL     1      -8.356  51.607  49.591  0.00  0.00    +0.000 C 
ATOM     25  C   UNL     1      -8.441  53.964  50.428  0.00  0.00    +0.000 C 
ENDBRANCH   7  22
BRANCH   5  26
ATOM     26  C   UNL     1     -10.701  52.390  47.592  0.00  0.00    +0.000 C 
BRANCH  26  27
ATOM     27  C   UNL     1      -9.753  53.090  46.645  0.00  0.00    +0.000 A 
ATOM     28  N   UNL     1      -9.617  52.602  45.388  0.00  0.00    +0.000 NA
ATOM     29  C   UNL     1      -9.099  54.247  47.070  0.00  0.00    +0.000 A 
ATOM     30  C   UNL     1      -8.791  53.265  44.553  0.00  0.00    +0.000 A 
ATOM     31  C   UNL     1      -8.256  54.909  46.183  0.00  0.00    +0.000 A 
ATOM     32  C   UNL     1      -8.096  54.410  44.897  0.00  0.00    +0.000 A 
ENDBRANCH  26  27
ENDBRANCH   5  26
TORSDOF 4
ENDMDL
MODEL 3
REMARK VINA RESULT:      -7.7      1.782      3.679
REMARK  Name = 
REMARK  7 active torsions:
REMARK  status: ('A' for Active; 'I' for Inactive)
REMARK    1  A    between atoms: C_6  and  C_10
REMARK    2  A    between atoms: N_17  and  C_20
REMARK    3  A    between atoms: C_19  and  C_21
REMARK    4  A    between atoms: C_20  and  C_22
REMARK    5  A    between atoms: C_21  and  C_23
REMARK    6  A    between atoms: C_21  and  C_24
REMARK    7  A    between atoms: C_21  and  C_25
REMARK                            x       y       z     vdW  Elec       q    Type
REMARK                         _______ _______ _______ _____ _____    ______ ____
ROOT
ATOM      1  C   UNL     1     -10.906  54.934  50.211  0.00  0.00    +0.000 C 
ATOM      2  C   UNL     1     -10.615  54.084  49.052  0.00  0.00    +0.000 C 
ATOM      3  C   UNL     1      -9.944  54.676  51.107  0.00  0.00    +0.000 C 
ATOM      4  O   UNL     1     -11.344  54.017  48.073  0.00  0.00    +0.000 OA
ATOM      5  N   UNL     1      -9.426  53.430  49.283  0.00  0.00    +0.000 N 
ATOM      6  O   UNL     1      -9.874  55.220  52.367  0.00  0.00    +0.000 OA
ATOM      7  C   UNL     1      -8.875  53.703  50.620  0.00  0.00    +0.000 C 
ENDROOT
BRANCH   1  13
ATOM      8  S   UNL     1     -13.775  57.336  49.139  0.00  0.00    +0.000 S 
ATOM      9  O   UNL     1     -14.875  56.541  48.625  0.00  0.00    +0.000 OA
ATOM     10  O   UNL     1     -13.413  58.584  48.495  0.00  0.00    +0.000 OA
ATOM     11  N   UNL     1     -12.454  56.399  49.180  0.00  0.00    +0.000 N 
ATOM     12  C   UNL     1     -14.209  57.745  50.791  0.00  0.00    +0.000 A 
ATOM     13  C   UNL     1     -12.056  55.875  50.302  0.00  0.00    +0.000 C 
ATOM     14  C   UNL     1     -13.575  57.057  51.814  0.00  0.00    +0.000 A 
ATOM     15  C   UNL     1     -15.160  58.740  51.040  0.00  0.00    +0.000 A 
ATOM     16  N   UNL     1     -12.606  56.097  51.542  0.00  0.00    +0.000 N 
ATOM     17  C   UNL     1     -13.916  57.376  53.132  0.00  0.00    +0.000 A 
ATOM     18  C   UNL     1     -15.484  59.054  52.358  0.00  0.00    +0.000 A 
ATOM     19  C   UNL     1     -14.862  58.372  53.403  0.00  0.00    +0.000 A 
ATOM     20  H   UNL     1     -11.950  56.225  48.352  0.00  0.00    +0.000 HD
ATOM     21  H   UNL     1     -12.294  55.538  52.290  0.00  0.00    +0.000 HD
ENDBRANCH   1  13
BRANCH   7  22
ATOM     22  C   UNL     1      -7.401  54.260  50.671  0.00  0.00    +0.000 C 
ATOM     23  C   UNL     1      -6.418  53.296  49.959  0.00  0.00    +0.000 C 
ATOM     24  C   UNL     1      -7.256  55.596  49.911  0.00  0.00    +0.000 C 
ATOM     25  C   UNL     1      -6.921  54.465  52.119  0.00  0.00    +0.000 C 
ENDBRANCH   7  22
BRANCH   5  26
ATOM     26  C   UNL     1      -8.945  52.442  48.327  0.00  0.00    +0.000 C 
BRANCH  26  27
ATOM     27  C   UNL     1      -8.717  52.925  46.912  0.00  0.00    +0.000 A 
ATOM     28  N   UNL     1      -9.248  52.209  45.891  0.00  0.00    +0.000 NA
ATOM     29  C   UNL     1      -8.026  54.119  46.705  0.00  0.00    +0.000 A 
ATOM     30  C   UNL     1      -9.060  52.680  44.641  0.00  0.00    +0.000 A 
ATOM     31  C   UNL     1      -7.852  54.580  45.404  0.00  0.00    +0.000 A 
ATOM     32  C   UNL     1      -8.377  53.847  44.348  0.00  0.00    +0.000 A 
ENDBRANCH  26  27
ENDBRANCH   5  26
TORSDOF 4
ENDMDL
MODEL 4
REMARK VINA RESULT:      -7.6      2.845      3.562
REMARK  Name = 
REMARK  7 active torsions:
REMARK  status: ('A' for Active; 'I' for Inactive)
REMARK    1  A    between atoms: C_6  and  C_10
REMARK    2  A    between atoms: N_17  and  C_20
REMARK    3  A    between atoms: C_19  and  C_21
REMARK    4  A    between atoms: C_20  and  C_22
REMARK    5  A    between atoms: C_21  and  C_23
REMARK    6  A    between atoms: C_21  and  C_24
REMARK    7  A    between atoms: C_21  and  C_25
REMARK                            x       y       z     vdW  Elec       q    Type
REMARK                         _______ _______ _______ _____ _____    ______ ____
ROOT
ATOM      1  C   UNL     1     -10.849  54.650  51.282  0.00  0.00    +0.000 C 
ATOM      2  C   UNL     1     -10.257  54.363  52.592  0.00  0.00    +0.000 C 
ATOM      3  C   UNL     1     -10.252  53.819  50.417  0.00  0.00    +0.000 C 
ATOM      4  O   UNL     1     -10.526  54.998  53.601  0.00  0.00    +0.000 OA
ATOM      5  N   UNL     1      -9.399  53.295  52.454  0.00  0.00    +0.000 N 
ATOM      6  O   UNL     1     -10.473  53.798  49.062  0.00  0.00    +0.000 OA
ATOM      7  C   UNL     1      -9.271  52.843  51.060  0.00  0.00    +0.000 C 
ENDROOT
BRANCH   1  13
ATOM      8  S   UNL     1     -13.155  57.165  49.410  0.00  0.00    +0.000 S 
ATOM      9  O   UNL     1     -14.161  56.415  48.681  0.00  0.00    +0.000 OA
ATOM     10  O   UNL     1     -12.542  58.336  48.812  0.00  0.00    +0.000 OA
ATOM     11  N   UNL     1     -11.969  56.143  49.826  0.00  0.00    +0.000 N 
ATOM     12  C   UNL     1     -13.941  57.720  50.880  0.00  0.00    +0.000 A 
ATOM     13  C   UNL     1     -11.902  55.673  51.036  0.00  0.00    +0.000 C 
ATOM     14  C   UNL     1     -13.636  57.064  52.061  0.00  0.00    +0.000 A 
ATOM     15  C   UNL     1     -14.835  58.795  50.833  0.00  0.00    +0.000 A 
ATOM     16  N   UNL     1     -12.716  56.021  52.088  0.00  0.00    +0.000 N 
ATOM     17  C   UNL     1     -14.258  57.499  53.235  0.00  0.00    +0.000 A 
ATOM     18  C   UNL     1     -15.441  59.224  52.011  0.00  0.00    +0.000 A 
ATOM     19  C   UNL     1     -15.153  58.576  53.212  0.00  0.00    +0.000 A 
ATOM     20  H   UNL     1     -11.295  55.876  49.159  0.00  0.00    +0.000 HD
ATOM     21  H   UNL     1     -12.644  55.496  52.918  0.00  0.00    +0.000 HD
ENDBRANCH   1  13
BRANCH   7  22
ATOM     22  C   UNL     1      -9.577  51.321  50.785  0.00  0.00    +0.000 C 
ATOM     23  C   UNL     1     -11.026  50.960  51.202  0.00  0.00    +0.000 C 
ATOM     24  C   UNL     1      -9.507  50.975  49.283  0.00  0.00    +0.000 C 
ATOM     25  C   UNL     1      -8.606  50.400  51.546  0.00  0.00    +0.000 C 
ENDBRANCH   7  22
BRANCH   5  26
ATOM     26  C   UNL     1      -8.598  52.857  53.590  0.00  0.00    +0.000 C 
BRANCH  26  27
ATOM     27  C   UNL     1      -7.202  53.426  53.691  0.00  0.00    +0.000 A 
ATOM     28  N   UNL     1      -7.048  54.674  54.197  0.00  0.00    +0.000 NA
ATOM     29  C   UNL     1      -6.115  52.632  53.324  0.00  0.00    +0.000 A 
ATOM     30  C   UNL     1      -5.789  55.146  54.309  0.00  0.00    +0.000 A 
ATOM     31  C   UNL     1      -4.829  53.147  53.454  0.00  0.00    +0.000 A 
ATOM     32  C   UNL     1      -4.659  54.431  53.956  0.00  0.00    +0.000 A 
ENDBRANCH  26  27
ENDBRANCH   5  26
TORSDOF 4
ENDMDL
MODEL 5
REMARK VINA RESULT:      -7.6      3.048      7.898
REMARK  Name = 
REMARK  7 active torsions:
REMARK  status: ('A' for Active; 'I' for Inactive)
REMARK    1  A    between atoms: C_6  and  C_10
REMARK    2  A    between atoms: N_17  and  C_20
REMARK    3  A    between atoms: C_19  and  C_21
REMARK    4  A    between atoms: C_20  and  C_22
REMARK    5  A    between atoms: C_21  and  C_23
REMARK    6  A    between atoms: C_21  and  C_24
REMARK    7  A    between atoms: C_21  and  C_25
REMARK                            x       y       z     vdW  Elec       q    Type
REMARK                         _______ _______ _______ _____ _____    ______ ____
ROOT
ATOM      1  C   UNL     1     -10.096  54.624  48.693  0.00  0.00    +0.000 C 
ATOM      2  C   UNL     1     -11.486  54.570  49.158  0.00  0.00    +0.000 C 
ATOM      3  C   UNL     1      -9.391  55.155  49.701  0.00  0.00    +0.000 C 
ATOM      4  O   UNL     1     -12.413  54.203  48.451  0.00  0.00    +0.000 OA
ATOM      5  N   UNL     1     -11.520  54.984  50.470  0.00  0.00    +0.000 N 
ATOM      6  O   UNL     1      -8.048  55.438  49.660  0.00  0.00    +0.000 OA
ATOM      7  C   UNL     1     -10.206  55.431  50.961  0.00  0.00    +0.000 C 
ENDROOT
BRANCH   1  13
ATOM      8  S   UNL     1      -7.851  54.150  45.549  0.00  0.00    +0.000 S 
ATOM      9  O   UNL     1      -6.771  53.241  45.886  0.00  0.00    +0.000 OA
ATOM     10  O   UNL     1      -7.597  55.308  44.713  0.00  0.00    +0.000 OA
ATOM     11  N   UNL     1      -8.517  54.673  46.930  0.00  0.00    +0.000 N 
ATOM     12  C   UNL     1      -9.045  53.183  44.697  0.00  0.00    +0.000 A 
ATOM     13  C   UNL     1      -9.634  54.161  47.356  0.00  0.00    +0.000 C 
ATOM     14  C   UNL     1     -10.191  52.821  45.385  0.00  0.00    +0.000 A 
ATOM     15  C   UNL     1      -8.825  52.812  43.366  0.00  0.00    +0.000 A 
ATOM     16  N   UNL     1     -10.404  53.232  46.696  0.00  0.00    +0.000 N 
ATOM     17  C   UNL     1     -11.146  52.050  44.714  0.00  0.00    +0.000 A 
ATOM     18  C   UNL     1      -9.789  52.052  42.707  0.00  0.00    +0.000 A 
ATOM     19  C   UNL     1     -10.948  51.671  43.381  0.00  0.00    +0.000 A 
ATOM     20  H   UNL     1      -8.074  55.382  47.451  0.00  0.00    +0.000 HD
ATOM     21  H   UNL     1     -11.157  52.830  47.186  0.00  0.00    +0.000 HD
ENDBRANCH   1  13
BRANCH   7  22
ATOM     22  C   UNL     1      -9.668  54.727  52.264  0.00  0.00    +0.000 C 
ATOM     23  C   UNL     1      -8.307  55.328  52.700  0.00  0.00    +0.000 C 
ATOM     24  C   UNL     1     -10.599  54.952  53.475  0.00  0.00    +0.000 C 
ATOM     25  C   UNL     1      -9.489  53.211  52.059  0.00  0.00    +0.000 C 
ENDBRANCH   7  22
BRANCH   5  26
ATOM     26  C   UNL     1     -12.798  55.119  51.155  0.00  0.00    +0.000 C 
BRANCH  26  27
ATOM     27  C   UNL     1     -13.357  56.519  51.273  0.00  0.00    +0.000 A 
ATOM     28  N   UNL     1     -13.473  57.265  50.148  0.00  0.00    +0.000 NA
ATOM     29  C   UNL     1     -13.793  56.975  52.518  0.00  0.00    +0.000 A 
ATOM     30  C   UNL     1     -14.006  58.498  50.275  0.00  0.00    +0.000 A 
ATOM     31  C   UNL     1     -14.341  58.249  52.615  0.00  0.00    +0.000 A 
ATOM     32  C   UNL     1     -14.450  59.030  51.472  0.00  0.00    +0.000 A 
ENDBRANCH  26  27
ENDBRANCH   5  26
TORSDOF 4
ENDMDL
MODEL 6
REMARK VINA RESULT:      -7.5      1.735      2.491
REMARK  Name = 
REMARK  7 active torsions:
REMARK  status: ('A' for Active; 'I' for Inactive)
REMARK    1  A    between atoms: C_6  and  C_10
REMARK    2  A    between atoms: N_17  and  C_20
REMARK    3  A    between atoms: C_19  and  C_21
REMARK    4  A    between atoms: C_20  and  C_22
REMARK    5  A    between atoms: C_21  and  C_23
REMARK    6  A    between atoms: C_21  and  C_24
REMARK    7  A    between atoms: C_21  and  C_25
REMARK                            x       y       z     vdW  Elec       q    Type
REMARK                         _______ _______ _______ _____ _____    ______ ____
ROOT
ATOM      1  C   UNL     1     -11.347  55.171  48.788  0.00  0.00    +0.000 C 
ATOM      2  C   UNL     1     -10.421  54.217  49.405  0.00  0.00    +0.000 C 
ATOM      3  C   UNL     1     -11.161  55.064  47.466  0.00  0.00    +0.000 C 
ATOM      4  O   UNL     1     -10.278  54.110  50.614  0.00  0.00    +0.000 OA
ATOM      5  N   UNL     1      -9.794  53.512  48.402  0.00  0.00    +0.000 N 
ATOM      6  O   UNL     1     -11.793  55.828  46.515  0.00  0.00    +0.000 OA
ATOM      7  C   UNL     1     -10.165  53.982  47.058  0.00  0.00    +0.000 C 
ENDROOT
BRANCH   1  13
ATOM      8  S   UNL     1     -13.823  56.398  51.529  0.00  0.00    +0.000 S 
ATOM      9  O   UNL     1     -13.068  56.706  52.729  0.00  0.00    +0.000 OA
ATOM     10  O   UNL     1     -15.112  55.739  51.626  0.00  0.00    +0.000 OA
ATOM     11  N   UNL     1     -12.883  55.504  50.559  0.00  0.00    +0.000 N 
ATOM     12  C   UNL     1     -14.119  57.939  50.739  0.00  0.00    +0.000 A 
ATOM     13  C   UNL     1     -12.282  56.050  49.543  0.00  0.00    +0.000 C 
ATOM     14  C   UNL     1     -13.362  58.246  49.620  0.00  0.00    +0.000 A 
ATOM     15  C   UNL     1     -15.097  58.806  51.238  0.00  0.00    +0.000 A 
ATOM     16  N   UNL     1     -12.420  57.352  49.121  0.00  0.00    +0.000 N 
ATOM     17  C   UNL     1     -13.590  59.471  48.987  0.00  0.00    +0.000 A 
ATOM     18  C   UNL     1     -15.321  60.019  50.592  0.00  0.00    +0.000 A 
ATOM     19  C   UNL     1     -14.567  60.352  49.466  0.00  0.00    +0.000 A 
ATOM     20  H   UNL     1     -12.765  54.543  50.739  0.00  0.00    +0.000 HD
ATOM     21  H   UNL     1     -11.810  57.674  48.419  0.00  0.00    +0.000 HD
ENDBRANCH   1  13
BRANCH   7  22
ATOM     22  C   UNL     1     -10.737  52.896  46.068  0.00  0.00    +0.000 C 
ATOM     23  C   UNL     1     -11.931  52.139  46.702  0.00  0.00    +0.000 C 
ATOM     24  C   UNL     1     -11.313  53.526  44.782  0.00  0.00    +0.000 C 
ATOM     25  C   UNL     1      -9.662  51.868  45.670  0.00  0.00    +0.000 C 
ENDBRANCH   7  22
BRANCH   5  26
ATOM     26  C   UNL     1      -8.745  52.557  48.732  0.00  0.00    +0.000 C 
BRANCH  26  27
ATOM     27  C   UNL     1      -7.325  53.073  48.694  0.00  0.00    +0.000 A 
ATOM     28  N   UNL     1      -6.610  52.914  47.554  0.00  0.00    +0.000 NA
ATOM     29  C   UNL     1      -6.818  53.751  49.804  0.00  0.00    +0.000 A 
ATOM     30  C   UNL     1      -5.357  53.415  47.534  0.00  0.00    +0.000 A 
ATOM     31  C   UNL     1      -5.523  54.258  49.750  0.00  0.00    +0.000 A 
ATOM     32  C   UNL     1      -4.775  54.087  48.593  0.00  0.00    +0.000 A 
ENDBRANCH  26  27
ENDBRANCH   5  26
TORSDOF 4
ENDMDL
MODEL 7
REMARK VINA RESULT:      -7.5      2.347      3.242
REMARK  Name = 
REMARK  7 active torsions:
REMARK  status: ('A' for Active; 'I' for Inactive)
REMARK    1  A    between atoms: C_6  and  C_10
REMARK    2  A    between atoms: N_17  and  C_20
REMARK    3  A    between atoms: C_19  and  C_21
REMARK    4  A    between atoms: C_20  and  C_22
REMARK    5  A    between atoms: C_21  and  C_23
REMARK    6  A    between atoms: C_21  and  C_24
REMARK    7  A    between atoms: C_21  and  C_25
REMARK                            x       y       z     vdW  Elec       q    Type
REMARK                         _______ _______ _______ _____ _____    ______ ____
ROOT
ATOM      1  C   UNL     1     -10.201  55.014  47.801  0.00  0.00    +0.000 C 
ATOM      2  C   UNL     1      -8.743  54.864  47.828  0.00  0.00    +0.000 C 
ATOM      3  C   UNL     1     -10.575  54.752  46.541  0.00  0.00    +0.000 C 
ATOM      4  O   UNL     1      -8.064  55.104  48.816  0.00  0.00    +0.000 OA
ATOM      5  N   UNL     1      -8.330  54.419  46.592  0.00  0.00    +0.000 N 
ATOM      6  O   UNL     1     -11.860  54.838  46.066  0.00  0.00    +0.000 OA
ATOM      7  C   UNL     1      -9.433  54.323  45.624  0.00  0.00    +0.000 C 
ENDROOT
BRANCH   1  13
ATOM      8  S   UNL     1     -11.742  54.937  51.374  0.00  0.00    +0.000 S 
ATOM      9  O   UNL     1     -10.758  55.444  52.312  0.00  0.00    +0.000 OA
ATOM     10  O   UNL     1     -12.576  53.805  51.731  0.00  0.00    +0.000 OA
ATOM     11  N   UNL     1     -10.978  54.572  49.993  0.00  0.00    +0.000 N 
ATOM     12  C   UNL     1     -12.838  56.273  51.058  0.00  0.00    +0.000 A 
ATOM     13  C   UNL     1     -11.035  55.382  48.978  0.00  0.00    +0.000 C 
ATOM     14  C   UNL     1     -12.714  56.936  49.848  0.00  0.00    +0.000 A 
ATOM     15  C   UNL     1     -13.800  56.630  52.008  0.00  0.00    +0.000 A 
ATOM     16  N   UNL     1     -11.774  56.540  48.903  0.00  0.00    +0.000 N 
ATOM     17  C   UNL     1     -13.582  58.001  49.589  0.00  0.00    +0.000 A 
ATOM     18  C   UNL     1     -14.665  57.687  51.734  0.00  0.00    +0.000 A 
ATOM     19  C   UNL     1     -14.555  58.372  50.525  0.00  0.00    +0.000 A 
ATOM     20  H   UNL     1     -10.468  53.733  49.922  0.00  0.00    +0.000 HD
ATOM     21  H   UNL     1     -11.627  57.128  48.128  0.00  0.00    +0.000 HD
ENDBRANCH   1  13
BRANCH   7  22
ATOM     22  C   UNL     1      -9.636  52.924  44.926  0.00  0.00    +0.000 C 
ATOM     23  C   UNL     1      -9.842  51.804  45.977  0.00  0.00    +0.000 C 
ATOM     24  C   UNL     1     -10.912  52.884  44.059  0.00  0.00    +0.000 C 
ATOM     25  C   UNL     1      -8.431  52.549  44.044  0.00  0.00    +0.000 C 
ENDBRANCH   7  22
BRANCH   5  26
ATOM     26  C   UNL     1      -6.908  54.275  46.311  0.00  0.00    +0.000 C 
BRANCH  26  27
ATOM     27  C   UNL     1      -6.155  53.260  47.140  0.00  0.00    +0.000 A 
ATOM     28  N   UNL     1      -5.113  53.686  47.895  0.00  0.00    +0.000 NA
ATOM     29  C   UNL     1      -6.591  51.934  47.153  0.00  0.00    +0.000 A 
ATOM     30  C   UNL     1      -4.479  52.766  48.651  0.00  0.00    +0.000 A 
ATOM     31  C   UNL     1      -5.918  51.010  47.946  0.00  0.00    +0.000 A 
ATOM     32  C   UNL     1      -4.839  51.432  48.712  0.00  0.00    +0.000 A 
ENDBRANCH  26  27
ENDBRANCH   5  26
TORSDOF 4
ENDMDL
MODEL 8
REMARK VINA RESULT:      -7.4      2.953      7.157
REMARK  Name = 
REMARK  7 active torsions:
REMARK  status: ('A' for Active; 'I' for Inactive)
REMARK    1  A    between atoms: C_6  and  C_10
REMARK    2  A    between atoms: N_17  and  C_20
REMARK    3  A    between atoms: C_19  and  C_21
REMARK    4  A    between atoms: C_20  and  C_22
REMARK    5  A    between atoms: C_21  and  C_23
REMARK    6  A    between atoms: C_21  and  C_24
REMARK    7  A    between atoms: C_21  and  C_25
REMARK                            x       y       z     vdW  Elec       q    Type
REMARK                         _______ _______ _______ _____ _____    ______ ____
ROOT
ATOM      1  C   UNL     1      -9.336  54.247  50.274  0.00  0.00    +0.000 C 
ATOM      2  C   UNL     1     -10.743  54.634  50.416  0.00  0.00    +0.000 C 
ATOM      3  C   UNL     1      -9.229  53.682  49.064  0.00  0.00    +0.000 C 
ATOM      4  O   UNL     1     -11.204  55.115  51.441  0.00  0.00    +0.000 OA
ATOM      5  N   UNL     1     -11.387  54.366  49.229  0.00  0.00    +0.000 N 
ATOM      6  O   UNL     1      -8.084  53.124  48.552  0.00  0.00    +0.000 OA
ATOM      7  C   UNL     1     -10.516  53.706  48.244  0.00  0.00    +0.000 C 
ENDROOT
BRANCH   1  13
ATOM      8  S   UNL     1      -7.429  55.810  53.286  0.00  0.00    +0.000 S 
ATOM      9  O   UNL     1      -8.109  55.430  54.510  0.00  0.00    +0.000 OA
ATOM     10  O   UNL     1      -6.896  57.150  53.132  0.00  0.00    +0.000 OA
ATOM     11  N   UNL     1      -8.434  55.532  52.046  0.00  0.00    +0.000 N 
ATOM     12  C   UNL     1      -6.061  54.718  53.137  0.00  0.00    +0.000 A 
ATOM     13  C   UNL     1      -8.290  54.470  51.309  0.00  0.00    +0.000 C 
ATOM     14  C   UNL     1      -6.153  53.690  52.214  0.00  0.00    +0.000 A 
ATOM     15  C   UNL     1      -4.924  54.908  53.931  0.00  0.00    +0.000 A 
ATOM     16  N   UNL     1      -7.279  53.543  51.411  0.00  0.00    +0.000 N 
ATOM     17  C   UNL     1      -5.069  52.816  52.091  0.00  0.00    +0.000 A 
ATOM     18  C   UNL     1      -3.847  54.035  53.791  0.00  0.00    +0.000 A 
ATOM     19  C   UNL     1      -3.920  52.990  52.872  0.00  0.00    +0.000 A 
ATOM     20  H   UNL     1      -9.158  56.170  51.849  0.00  0.00    +0.000 HD
ATOM     21  H   UNL     1      -7.359  52.718  50.879  0.00  0.00    +0.000 HD
ENDBRANCH   1  13
BRANCH   7  22
ATOM     22  C   UNL     1     -10.391  54.408  46.838  0.00  0.00    +0.000 C 
ATOM     23  C   UNL     1      -9.797  53.439  45.784  0.00  0.00    +0.000 C 
ATOM     24  C   UNL     1     -11.765  54.812  46.264  0.00  0.00    +0.000 C 
ATOM     25  C   UNL     1      -9.500  55.661  46.905  0.00  0.00    +0.000 C 
ENDBRANCH   7  22
BRANCH   5  26
ATOM     26  C   UNL     1     -12.826  54.568  49.123  0.00  0.00    +0.000 C 
BRANCH  26  27
ATOM     27  C   UNL     1     -13.347  55.933  49.510  0.00  0.00    +0.000 A 
ATOM     28  N   UNL     1     -14.252  56.020  50.515  0.00  0.00    +0.000 NA
ATOM     29  C   UNL     1     -12.836  57.062  48.868  0.00  0.00    +0.000 A 
ATOM     30  C   UNL     1     -14.675  57.252  50.863  0.00  0.00    +0.000 A 
ATOM     31  C   UNL     1     -13.291  58.320  49.253  0.00  0.00    +0.000 A 
ATOM     32  C   UNL     1     -14.230  58.420  50.270  0.00  0.00    +0.000 A 
ENDBRANCH  26  27
ENDBRANCH   5  26
TORSDOF 4
ENDMDL
MODEL 9
REMARK VINA RESULT:      -7.4      3.236      7.115
REMARK  Name = 
REMARK  7 active torsions:
REMARK  status: ('A' for Active; 'I' for Inactive)
REMARK    1  A    between atoms: C_6  and  C_10
REMARK    2  A    between atoms: N_17  and  C_20
REMARK    3  A    between atoms: C_19  and  C_21
REMARK    4  A    between atoms: C_20  and  C_22
REMARK    5  A    between atoms: C_21  and  C_23
REMARK    6  A    between atoms: C_21  and  C_24
REMARK    7  A    between atoms: C_21  and  C_25
REMARK                            x       y       z     vdW  Elec       q    Type
REMARK                         _______ _______ _______ _____ _____    ______ ____
ROOT
ATOM      1  C   UNL     1     -10.453  53.745  50.138  0.00  0.00    +0.000 C 
ATOM      2  C   UNL     1     -10.915  55.098  49.815  0.00  0.00    +0.000 C 
ATOM      3  C   UNL     1     -11.043  52.932  49.253  0.00  0.00    +0.000 C 
ATOM      4  O   UNL     1     -10.623  56.081  50.480  0.00  0.00    +0.000 OA
ATOM      5  N   UNL     1     -11.689  55.031  48.678  0.00  0.00    +0.000 N 
ATOM      6  O   UNL     1     -10.927  51.563  49.238  0.00  0.00    +0.000 OA
ATOM      7  C   UNL     1     -11.886  53.652  48.204  0.00  0.00    +0.000 C 
ENDROOT
BRANCH   1  13
ATOM      8  S   UNL     1      -8.659  51.747  52.956  0.00  0.00    +0.000 S 
ATOM      9  O   UNL     1      -7.780  50.770  52.342  0.00  0.00    +0.000 OA
ATOM     10  O   UNL     1      -9.425  51.399  54.138  0.00  0.00    +0.000 OA
ATOM     11  N   UNL     1      -9.698  52.268  51.828  0.00  0.00    +0.000 N 
ATOM     12  C   UNL     1      -7.630  53.094  53.419  0.00  0.00    +0.000 A 
ATOM     13  C   UNL     1      -9.511  53.415  51.244  0.00  0.00    +0.000 C 
ATOM     14  C   UNL     1      -7.676  54.238  52.638  0.00  0.00    +0.000 A 
ATOM     15  C   UNL     1      -6.810  52.993  54.547  0.00  0.00    +0.000 A 
ATOM     16  N   UNL     1      -8.527  54.327  51.542  0.00  0.00    +0.000 N 
ATOM     17  C   UNL     1      -6.859  55.314  52.999  0.00  0.00    +0.000 A 
ATOM     18  C   UNL     1      -6.008  54.076  54.901  0.00  0.00    +0.000 A 
ATOM     19  C   UNL     1      -6.033  55.236  54.127  0.00  0.00    +0.000 A 
ATOM     20  H   UNL     1     -10.475  51.714  51.583  0.00  0.00    +0.000 HD
ATOM     21  H   UNL     1      -8.417  55.097  50.938  0.00  0.00    +0.000 HD
ENDBRANCH   1  13
BRANCH   7  22
ATOM     22  C   UNL     1     -11.476  53.358  46.711  0.00  0.00    +0.000 C 
ATOM     23  C   UNL     1     -11.798  54.568  45.797  0.00  0.00    +0.000 C 
ATOM     24  C   UNL     1      -9.955  53.147  46.555  0.00  0.00    +0.000 C 
ATOM     25  C   UNL     1     -12.203  52.120  46.155  0.00  0.00    +0.000 C 
ENDBRANCH   7  22
BRANCH   5  26
ATOM     26  C   UNL     1     -12.359  56.227  48.186  0.00  0.00    +0.000 C 
BRANCH  26  27
ATOM     27  C   UNL     1     -13.395  56.844  49.097  0.00  0.00    +0.000 A 
ATOM     28  N   UNL     1     -14.318  56.033  49.670  0.00  0.00    +0.000 NA
ATOM     29  C   UNL     1     -13.332  58.211  49.371  0.00  0.00    +0.000 A 
ATOM     30  C   UNL     1     -15.209  56.604  50.506  0.00  0.00    +0.000 A 
ATOM     31  C   UNL     1     -14.264  58.769  50.240  0.00  0.00    +0.000 A 
ATOM     32  C   UNL     1     -15.225  57.951  50.821  0.00  0.00    +0.000 A 
ENDBRANCH  26  27
ENDBRANCH   5  26
TORSDOF 4
ENDMDL
