MODEL 1
REMARK VINA RESULT:      -7.6      0.000      0.000
REMARK  Name = 
REMARK  9 active torsions:
REMARK  status: ('A' for Active; 'I' for Inactive)
REMARK    1  A    between atoms: C_6  and  C_10
REMARK    2  A    between atoms: N_17  and  C_20
REMARK    3  A    between atoms: C_19  and  C_21
REMARK    4  A    between atoms: C_20  and  C_22
REMARK    5  A    between atoms: C_21  and  C_23
REMARK    6  A    between atoms: C_21  and  C_24
REMARK    7  A    between atoms: C_22  and  C_25
REMARK    8  A    between atoms: C_25  and  C_26
REMARK    9  A    between atoms: C_25  and  C_27
REMARK                            x       y       z     vdW  Elec       q    Type
REMARK                         _______ _______ _______ _____ _____    ______ ____
ROOT
ATOM      1  C   UNL     1     -10.954  55.211  48.663  0.00  0.00    +0.000 C 
ATOM      2  C   UNL     1     -11.489  55.045  50.020  0.00  0.00    +0.000 C 
ATOM      3  C   UNL     1     -11.963  55.674  47.914  0.00  0.00    +0.000 C 
ATOM      4  O   UNL     1     -10.837  54.606  50.954  0.00  0.00    +0.000 OA
ATOM      5  N   UNL     1     -12.804  55.454  50.006  0.00  0.00    +0.000 N 
ATOM      6  O   UNL     1     -11.923  55.914  46.564  0.00  0.00    +0.000 OA
ATOM      7  C   UNL     1     -13.231  55.920  48.689  0.00  0.00    +0.000 C 
ENDROOT
BRANCH   1  13
ATOM      8  S   UNL     1      -7.968  53.922  46.538  0.00  0.00    +0.000 S 
ATOM      9  O   UNL     1      -7.672  54.873  45.485  0.00  0.00    +0.000 OA
ATOM     10  O   UNL     1      -7.920  52.498  46.272  0.00  0.00    +0.000 OA
ATOM     11  N   UNL     1      -9.438  54.261  47.127  0.00  0.00    +0.000 N 
ATOM     12  C   UNL     1      -6.792  54.222  47.808  0.00  0.00    +0.000 A 
ATOM     13  C   UNL     1      -9.564  54.894  48.251  0.00  0.00    +0.000 C 
ATOM     14  C   UNL     1      -7.221  54.889  48.944  0.00  0.00    +0.000 A 
ATOM     15  C   UNL     1      -5.473  53.787  47.655  0.00  0.00    +0.000 A 
ATOM     16  N   UNL     1      -8.546  55.290  49.088  0.00  0.00    +0.000 N 
ATOM     17  C   UNL     1      -6.290  55.144  49.955  0.00  0.00    +0.000 A 
ATOM     18  C   UNL     1      -4.558  54.038  48.673  0.00  0.00    +0.000 A 
ATOM     19  C   UNL     1      -4.966  54.717  49.822  0.00  0.00    +0.000 A 
ATOM     20  H   UNL     1     -10.240  53.984  46.627  0.00  0.00    +0.000 HD
ATOM     21  H   UNL     1      -8.769  55.894  49.833  0.00  0.00    +0.000 HD
ENDBRANCH   1  13
BRANCH   7  22
ATOM     22  C   UNL     1     -13.747  57.383  48.673  0.00  0.00    +0.000 C 
ATOM     23  C   UNL     1     -14.216  57.816  47.277  0.00  0.00    +0.000 C 
ATOM     24  C   UNL     1     -12.727  58.399  49.200  0.00  0.00    +0.000 C 
ENDBRANCH   7  22
BRANCH   5  25
ATOM     25  C   UNL     1     -13.632  55.470  51.199  0.00  0.00    +0.000 C 
BRANCH  25  26
ATOM     26  C   UNL     1     -13.296  56.621  52.143  0.00  0.00    +0.000 C 
BRANCH  26  27
ATOM     27  C   UNL     1     -14.546  57.364  52.644  0.00  0.00    +0.000 C 
ATOM     28  C   UNL     1     -14.411  58.882  52.506  0.00  0.00    +0.000 C 
ATOM     29  C   UNL     1     -15.774  56.880  51.871  0.00  0.00    +0.000 C 
ENDBRANCH  26  27
ENDBRANCH  25  26
ENDBRANCH   5  25
TORSDOF 5
ENDMDL
MODEL 2
REMARK VINA RESULT:      -7.6      2.682      4.253
REMARK  Name = 
REMARK  9 active torsions:
REMARK  status: ('A' for Active; 'I' for Inactive)
REMARK    1  A    between atoms: C_6  and  C_10
REMARK    2  A    between atoms: N_17  and  C_20
REMARK    3  A    between atoms: C_19  and  C_21
REMARK    4  A    between atoms: C_20  and  C_22
REMARK    5  A    between atoms: C_21  and  C_23
REMARK    6  A    between atoms: C_21  and  C_24
REMARK    7  A    between atoms: C_22  and  C_25
REMARK    8  A    between atoms: C_25  and  C_26
REMARK    9  A    between atoms: C_25  and  C_27
REMARK                            x       y       z     vdW  Elec       q    Type
REMARK                         _______ _______ _______ _____ _____    ______ ____
ROOT
ATOM      1  C   UNL     1     -10.814  55.213  47.995  0.00  0.00    +0.000 C 
ATOM      2  C   UNL     1     -12.119  55.873  47.857  0.00  0.00    +0.000 C 
ATOM      3  C   UNL     1     -10.456  55.350  49.278  0.00  0.00    +0.000 C 
ATOM      4  O   UNL     1     -12.722  55.962  46.800  0.00  0.00    +0.000 OA
ATOM      5  N   UNL     1     -12.482  56.349  49.097  0.00  0.00    +0.000 N 
ATOM      6  O   UNL     1      -9.274  54.934  49.836  0.00  0.00    +0.000 OA
ATOM      7  C   UNL     1     -11.490  56.044  50.126  0.00  0.00    +0.000 C 
ENDROOT
BRANCH   1  13
ATOM      8  S   UNL     1      -7.940  54.317  45.538  0.00  0.00    +0.000 S 
ATOM      9  O   UNL     1      -6.980  53.457  46.204  0.00  0.00    +0.000 OA
ATOM     10  O   UNL     1      -7.488  55.368  44.649  0.00  0.00    +0.000 OA
ATOM     11  N   UNL     1      -8.874  55.002  46.670  0.00  0.00    +0.000 N 
ATOM     12  C   UNL     1      -8.951  53.256  44.569  0.00  0.00    +0.000 A 
ATOM     13  C   UNL     1     -10.071  54.557  46.891  0.00  0.00    +0.000 C 
ATOM     14  C   UNL     1     -10.230  52.984  45.027  0.00  0.00    +0.000 A 
ATOM     15  C   UNL     1      -8.459  52.723  43.376  0.00  0.00    +0.000 A 
ATOM     16  N   UNL     1     -10.710  53.549  46.205  0.00  0.00    +0.000 N 
ATOM     17  C   UNL     1     -11.037  52.132  44.269  0.00  0.00    +0.000 A 
ATOM     18  C   UNL     1      -9.277  51.883  42.625  0.00  0.00    +0.000 A 
ATOM     19  C   UNL     1     -10.565  51.587  43.072  0.00  0.00    +0.000 A 
ATOM     20  H   UNL     1      -8.530  55.762  47.193  0.00  0.00    +0.000 HD
ATOM     21  H   UNL     1     -11.558  53.206  46.571  0.00  0.00    +0.000 HD
ENDBRANCH   1  13
BRANCH   7  22
ATOM     22  C   UNL     1     -12.044  55.212  51.312  0.00  0.00    +0.000 C 
ATOM     23  C   UNL     1     -11.147  55.306  52.554  0.00  0.00    +0.000 C 
ATOM     24  C   UNL     1     -12.280  53.737  50.968  0.00  0.00    +0.000 C 
ENDBRANCH   7  22
BRANCH   5  25
ATOM     25  C   UNL     1     -13.747  57.019  49.339  0.00  0.00    +0.000 C 
BRANCH  25  26
ATOM     26  C   UNL     1     -13.654  58.101  50.411  0.00  0.00    +0.000 C 
BRANCH  26  27
ATOM     27  C   UNL     1     -14.729  57.950  51.502  0.00  0.00    +0.000 C 
ATOM     28  C   UNL     1     -15.641  56.748  51.252  0.00  0.00    +0.000 C 
ATOM     29  C   UNL     1     -14.056  57.816  52.869  0.00  0.00    +0.000 C 
ENDBRANCH  26  27
ENDBRANCH  25  26
ENDBRANCH   5  25
TORSDOF 5
ENDMDL
MODEL 3
REMARK VINA RESULT:      -7.3      2.473      2.981
REMARK  Name = 
REMARK  9 active torsions:
REMARK  status: ('A' for Active; 'I' for Inactive)
REMARK    1  A    between atoms: C_6  and  C_10
REMARK    2  A    between atoms: N_17  and  C_20
REMARK    3  A    between atoms: C_19  and  C_21
REMARK    4  A    between atoms: C_20  and  C_22
REMARK    5  A    between atoms: C_21  and  C_23
REMARK    6  A    between atoms: C_21  and  C_24
REMARK    7  A    between atoms: C_22  and  C_25
REMARK    8  A    between atoms: C_25  and  C_26
REMARK    9  A    between atoms: C_25  and  C_27
REMARK                            x       y       z     vdW  Elec       q    Type
REMARK                         _______ _______ _______ _____ _____    ______ ____
ROOT
ATOM      1  C   UNL     1     -10.224  55.267  50.457  0.00  0.00    +0.000 C 
ATOM      2  C   UNL     1     -11.348  55.328  51.401  0.00  0.00    +0.000 C 
ATOM      3  C   UNL     1     -10.754  55.387  49.233  0.00  0.00    +0.000 C 
ATOM      4  O   UNL     1     -11.221  55.218  52.610  0.00  0.00    +0.000 OA
ATOM      5  N   UNL     1     -12.501  55.512  50.671  0.00  0.00    +0.000 N 
ATOM      6  O   UNL     1     -10.069  55.321  48.046  0.00  0.00    +0.000 OA
ATOM      7  C   UNL     1     -12.246  55.599  49.235  0.00  0.00    +0.000 C 
ENDROOT
BRANCH   1  13
ATOM      8  S   UNL     1      -6.431  54.470  50.180  0.00  0.00    +0.000 S 
ATOM      9  O   UNL     1      -5.743  55.585  49.560  0.00  0.00    +0.000 OA
ATOM     10  O   UNL     1      -6.072  53.108  49.842  0.00  0.00    +0.000 OA
ATOM     11  N   UNL     1      -8.019  54.640  49.906  0.00  0.00    +0.000 N 
ATOM     12  C   UNL     1      -6.159  54.633  51.908  0.00  0.00    +0.000 A 
ATOM     13  C   UNL     1      -8.802  55.087  50.838  0.00  0.00    +0.000 C 
ATOM     14  C   UNL     1      -7.206  55.096  52.688  0.00  0.00    +0.000 A 
ATOM     15  C   UNL     1      -4.919  54.293  52.454  0.00  0.00    +0.000 A 
ATOM     16  N   UNL     1      -8.443  55.403  52.129  0.00  0.00    +0.000 N 
ATOM     17  C   UNL     1      -6.995  55.241  54.063  0.00  0.00    +0.000 A 
ATOM     18  C   UNL     1      -4.725  54.432  53.825  0.00  0.00    +0.000 A 
ATOM     19  C   UNL     1      -5.762  54.906  54.630  0.00  0.00    +0.000 A 
ATOM     20  H   UNL     1      -8.390  54.403  49.026  0.00  0.00    +0.000 HD
ATOM     21  H   UNL     1      -9.101  55.874  52.689  0.00  0.00    +0.000 HD
ENDBRANCH   1  13
BRANCH   7  22
ATOM     22  C   UNL     1     -12.729  56.921  48.585  0.00  0.00    +0.000 C 
ATOM     23  C   UNL     1     -12.478  58.137  49.489  0.00  0.00    +0.000 C 
ATOM     24  C   UNL     1     -14.205  56.897  48.170  0.00  0.00    +0.000 C 
ENDBRANCH   7  22
BRANCH   5  25
ATOM     25  C   UNL     1     -13.805  55.666  51.292  0.00  0.00    +0.000 C 
BRANCH  25  26
ATOM     26  C   UNL     1     -13.853  56.807  52.303  0.00  0.00    +0.000 C 
BRANCH  26  27
ATOM     27  C   UNL     1     -15.209  57.535  52.313  0.00  0.00    +0.000 C 
ATOM     28  C   UNL     1     -15.068  59.023  51.981  0.00  0.00    +0.000 C 
ATOM     29  C   UNL     1     -16.156  56.869  51.314  0.00  0.00    +0.000 C 
ENDBRANCH  26  27
ENDBRANCH  25  26
ENDBRANCH   5  25
TORSDOF 5
ENDMDL
MODEL 4
REMARK VINA RESULT:      -7.2      3.356      7.824
REMARK  Name = 
REMARK  9 active torsions:
REMARK  status: ('A' for Active; 'I' for Inactive)
REMARK    1  A    between atoms: C_6  and  C_10
REMARK    2  A    between atoms: N_17  and  C_20
REMARK    3  A    between atoms: C_19  and  C_21
REMARK    4  A    between atoms: C_20  and  C_22
REMARK    5  A    between atoms: C_21  and  C_23
REMARK    6  A    between atoms: C_21  and  C_24
REMARK    7  A    between atoms: C_22  and  C_25
REMARK    8  A    between atoms: C_25  and  C_26
REMARK    9  A    between atoms: C_25  and  C_27
REMARK                            x       y       z     vdW  Elec       q    Type
REMARK                         _______ _______ _______ _____ _____    ______ ____
ROOT
ATOM      1  C   UNL     1     -12.434  54.392  49.900  0.00  0.00    +0.000 C 
ATOM      2  C   UNL     1     -12.155  54.098  48.488  0.00  0.00    +0.000 C 
ATOM      3  C   UNL     1     -12.014  53.328  50.596  0.00  0.00    +0.000 C 
ATOM      4  O   UNL     1     -12.445  54.851  47.571  0.00  0.00    +0.000 OA
ATOM      5  N   UNL     1     -11.548  52.863  48.427  0.00  0.00    +0.000 N 
ATOM      6  O   UNL     1     -12.136  53.149  51.951  0.00  0.00    +0.000 OA
ATOM      7  C   UNL     1     -11.368  52.263  49.747  0.00  0.00    +0.000 C 
ENDROOT
BRANCH   1  13
ATOM      8  S   UNL     1     -14.377  56.832  52.215  0.00  0.00    +0.000 S 
ATOM      9  O   UNL     1     -13.507  57.289  53.281  0.00  0.00    +0.000 OA
ATOM     10  O   UNL     1     -15.764  56.511  52.489  0.00  0.00    +0.000 OA
ATOM     11  N   UNL     1     -13.698  55.530  51.532  0.00  0.00    +0.000 N 
ATOM     12  C   UNL     1     -14.400  58.121  51.022  0.00  0.00    +0.000 A 
ATOM     13  C   UNL     1     -13.076  55.632  50.400  0.00  0.00    +0.000 C 
ATOM     14  C   UNL     1     -13.670  57.940  49.858  0.00  0.00    +0.000 A 
ATOM     15  C   UNL     1     -15.144  59.279  51.259  0.00  0.00    +0.000 A 
ATOM     16  N   UNL     1     -12.958  56.766  49.629  0.00  0.00    +0.000 N 
ATOM     17  C   UNL     1     -13.672  58.965  48.908  0.00  0.00    +0.000 A 
ATOM     18  C   UNL     1     -15.146  60.288  50.301  0.00  0.00    +0.000 A 
ATOM     19  C   UNL     1     -14.409  60.132  49.126  0.00  0.00    +0.000 A 
ATOM     20  H   UNL     1     -13.759  54.656  51.981  0.00  0.00    +0.000 HD
ATOM     21  H   UNL     1     -12.333  56.745  48.868  0.00  0.00    +0.000 HD
ENDBRANCH   1  13
BRANCH   7  22
ATOM     22  C   UNL     1      -9.892  51.939  50.099  0.00  0.00    +0.000 C 
ATOM     23  C   UNL     1      -9.779  50.904  51.227  0.00  0.00    +0.000 C 
ATOM     24  C   UNL     1      -9.061  53.175  50.461  0.00  0.00    +0.000 C 
ENDBRANCH   7  22
BRANCH   5  25
ATOM     25  C   UNL     1     -11.088  52.276  47.181  0.00  0.00    +0.000 C 
BRANCH  25  26
ATOM     26  C   UNL     1      -9.773  52.874  46.690  0.00  0.00    +0.000 C 
BRANCH  26  27
ATOM     27  C   UNL     1      -9.936  53.683  45.391  0.00  0.00    +0.000 C 
ATOM     28  C   UNL     1      -8.716  53.557  44.475  0.00  0.00    +0.000 C 
ATOM     29  C   UNL     1     -11.191  53.216  44.651  0.00  0.00    +0.000 C 
ENDBRANCH  26  27
ENDBRANCH  25  26
ENDBRANCH   5  25
TORSDOF 5
ENDMDL
MODEL 5
REMARK VINA RESULT:      -7.1      2.947      7.832
REMARK  Name = 
REMARK  9 active torsions:
REMARK  status: ('A' for Active; 'I' for Inactive)
REMARK    1  A    between atoms: C_6  and  C_10
REMARK    2  A    between atoms: N_17  and  C_20
REMARK    3  A    between atoms: C_19  and  C_21
REMARK    4  A    between atoms: C_20  and  C_22
REMARK    5  A    between atoms: C_21  and  C_23
REMARK    6  A    between atoms: C_21  and  C_24
REMARK    7  A    between atoms: C_22  and  C_25
REMARK    8  A    between atoms: C_25  and  C_26
REMARK    9  A    between atoms: C_25  and  C_27
REMARK                            x       y       z     vdW  Elec       q    Type
REMARK                         _______ _______ _______ _____ _____    ______ ____
ROOT
ATOM      1  C   UNL     1     -12.263  55.031  48.789  0.00  0.00    +0.000 C 
ATOM      2  C   UNL     1     -11.939  54.870  47.366  0.00  0.00    +0.000 C 
ATOM      3  C   UNL     1     -11.847  53.914  49.399  0.00  0.00    +0.000 C 
ATOM      4  O   UNL     1     -12.214  55.699  46.513  0.00  0.00    +0.000 OA
ATOM      5  N   UNL     1     -11.310  53.654  47.213  0.00  0.00    +0.000 N 
ATOM      6  O   UNL     1     -12.006  53.612  50.728  0.00  0.00    +0.000 OA
ATOM      7  C   UNL     1     -11.159  52.940  48.478  0.00  0.00    +0.000 C 
ENDROOT
BRANCH   1  13
ATOM      8  S   UNL     1     -13.433  58.699  49.315  0.00  0.00    +0.000 S 
ATOM      9  O   UNL     1     -14.507  59.005  48.390  0.00  0.00    +0.000 OA
ATOM     10  O   UNL     1     -12.403  59.680  49.592  0.00  0.00    +0.000 OA
ATOM     11  N   UNL     1     -12.697  57.349  48.805  0.00  0.00    +0.000 N 
ATOM     12  C   UNL     1     -14.203  58.349  50.854  0.00  0.00    +0.000 A 
ATOM     13  C   UNL     1     -12.939  56.212  49.379  0.00  0.00    +0.000 C 
ATOM     14  C   UNL     1     -14.283  57.024  51.252  0.00  0.00    +0.000 A 
ATOM     15  C   UNL     1     -14.706  59.391  51.636  0.00  0.00    +0.000 A 
ATOM     16  N   UNL     1     -13.751  56.002  50.471  0.00  0.00    +0.000 N 
ATOM     17  C   UNL     1     -14.905  56.734  52.470  0.00  0.00    +0.000 A 
ATOM     18  C   UNL     1     -15.314  59.090  52.851  0.00  0.00    +0.000 A 
ATOM     19  C   UNL     1     -15.415  57.762  53.268  0.00  0.00    +0.000 A 
ATOM     20  H   UNL     1     -12.062  57.393  48.054  0.00  0.00    +0.000 HD
ATOM     21  H   UNL     1     -13.968  55.073  50.714  0.00  0.00    +0.000 HD
ENDBRANCH   1  13
BRANCH   7  22
ATOM     22  C   UNL     1      -9.689  52.605  48.844  0.00  0.00    +0.000 C 
ATOM     23  C   UNL     1      -9.593  51.484  49.889  0.00  0.00    +0.000 C 
ATOM     24  C   UNL     1      -8.885  53.817  49.327  0.00  0.00    +0.000 C 
ENDBRANCH   7  22
BRANCH   5  25
ATOM     25  C   UNL     1     -10.805  53.189  45.933  0.00  0.00    +0.000 C 
BRANCH  25  26
ATOM     26  C   UNL     1      -9.552  53.934  45.480  0.00  0.00    +0.000 C 
BRANCH  26  27
ATOM     27  C   UNL     1      -8.503  53.002  44.847  0.00  0.00    +0.000 C 
ATOM     28  C   UNL     1      -8.566  51.586  45.423  0.00  0.00    +0.000 C 
ATOM     29  C   UNL     1      -8.707  52.956  43.332  0.00  0.00    +0.000 C 
ENDBRANCH  26  27
ENDBRANCH  25  26
ENDBRANCH   5  25
TORSDOF 5
ENDMDL
MODEL 6
REMARK VINA RESULT:      -7.1      2.656      7.485
REMARK  Name = 
REMARK  9 active torsions:
REMARK  status: ('A' for Active; 'I' for Inactive)
REMARK    1  A    between atoms: C_6  and  C_10
REMARK    2  A    between atoms: N_17  and  C_20
REMARK    3  A    between atoms: C_19  and  C_21
REMARK    4  A    between atoms: C_20  and  C_22
REMARK    5  A    between atoms: C_21  and  C_23
REMARK    6  A    between atoms: C_21  and  C_24
REMARK    7  A    between atoms: C_22  and  C_25
REMARK    8  A    between atoms: C_25  and  C_26
REMARK    9  A    between atoms: C_25  and  C_27
REMARK                            x       y       z     vdW  Elec       q    Type
REMARK                         _______ _______ _______ _____ _____    ______ ____
ROOT
ATOM      1  C   UNL     1     -11.485  55.915  48.838  0.00  0.00    +0.000 C 
ATOM      2  C   UNL     1     -10.472  55.149  49.576  0.00  0.00    +0.000 C 
ATOM      3  C   UNL     1     -11.352  55.573  47.550  0.00  0.00    +0.000 C 
ATOM      4  O   UNL     1     -10.296  55.245  50.780  0.00  0.00    +0.000 OA
ATOM      5  N   UNL     1      -9.801  54.358  48.669  0.00  0.00    +0.000 N 
ATOM      6  O   UNL     1     -12.060  56.097  46.498  0.00  0.00    +0.000 OA
ATOM      7  C   UNL     1     -10.303  54.519  47.307  0.00  0.00    +0.000 C 
ENDROOT
BRANCH   1  13
ATOM      8  S   UNL     1     -13.523  59.170  49.428  0.00  0.00    +0.000 S 
ATOM      9  O   UNL     1     -14.640  59.220  48.505  0.00  0.00    +0.000 OA
ATOM     10  O   UNL     1     -12.768  60.369  49.730  0.00  0.00    +0.000 OA
ATOM     11  N   UNL     1     -12.477  58.054  48.896  0.00  0.00    +0.000 N 
ATOM     12  C   UNL     1     -14.184  58.610  50.957  0.00  0.00    +0.000 A 
ATOM     13  C   UNL     1     -12.432  56.881  49.448  0.00  0.00    +0.000 C 
ATOM     14  C   UNL     1     -13.934  57.299  51.329  0.00  0.00    +0.000 A 
ATOM     15  C   UNL     1     -14.928  59.480  51.756  0.00  0.00    +0.000 A 
ATOM     16  N   UNL     1     -13.167  56.456  50.531  0.00  0.00    +0.000 N 
ATOM     17  C   UNL     1     -14.466  56.840  52.538  0.00  0.00    +0.000 A 
ATOM     18  C   UNL     1     -15.443  59.015  52.962  0.00  0.00    +0.000 A 
ATOM     19  C   UNL     1     -15.213  57.695  53.353  0.00  0.00    +0.000 A 
ATOM     20  H   UNL     1     -11.873  58.267  48.150  0.00  0.00    +0.000 HD
ATOM     21  H   UNL     1     -13.148  55.497  50.755  0.00  0.00    +0.000 HD
ENDBRANCH   1  13
BRANCH   7  22
ATOM     22  C   UNL     1     -10.819  53.206  46.663  0.00  0.00    +0.000 C 
ATOM     23  C   UNL     1     -10.973  53.329  45.140  0.00  0.00    +0.000 C 
ATOM     24  C   UNL     1     -12.135  52.702  47.266  0.00  0.00    +0.000 C 
ENDBRANCH   7  22
BRANCH   5  25
ATOM     25  C   UNL     1      -8.757  53.428  49.063  0.00  0.00    +0.000 C 
BRANCH  25  26
ATOM     26  C   UNL     1      -7.354  53.936  48.744  0.00  0.00    +0.000 C 
BRANCH  26  27
ATOM     27  C   UNL     1      -6.748  53.265  47.499  0.00  0.00    +0.000 C 
ATOM     28  C   UNL     1      -7.380  51.901  47.213  0.00  0.00    +0.000 C 
ATOM     29  C   UNL     1      -6.922  54.182  46.287  0.00  0.00    +0.000 C 
ENDBRANCH  26  27
ENDBRANCH  25  26
ENDBRANCH   5  25
TORSDOF 5
ENDMDL
MODEL 7
REMARK VINA RESULT:      -6.9      3.189      4.334
REMARK  Name = 
REMARK  9 active torsions:
REMARK  status: ('A' for Active; 'I' for Inactive)
REMARK    1  A    between atoms: C_6  and  C_10
REMARK    2  A    between atoms: N_17  and  C_20
REMARK    3  A    between atoms: C_19  and  C_21
REMARK    4  A    between atoms: C_20  and  C_22
REMARK    5  A    between atoms: C_21  and  C_23
REMARK    6  A    between atoms: C_21  and  C_24
REMARK    7  A    between atoms: C_22  and  C_25
REMARK    8  A    between atoms: C_25  and  C_26
REMARK    9  A    between atoms: C_25  and  C_27
REMARK                            x       y       z     vdW  Elec       q    Type
REMARK                         _______ _______ _______ _____ _____    ______ ____
ROOT
ATOM      1  C   UNL     1     -10.808  54.038  50.405  0.00  0.00    +0.000 C 
ATOM      2  C   UNL     1     -11.816  55.081  50.634  0.00  0.00    +0.000 C 
ATOM      3  C   UNL     1     -11.039  53.553  49.178  0.00  0.00    +0.000 C 
ATOM      4  O   UNL     1     -11.912  55.711  51.675  0.00  0.00    +0.000 OA
ATOM      5  N   UNL     1     -12.587  55.178  49.497  0.00  0.00    +0.000 N 
ATOM      6  O   UNL     1     -10.368  52.517  48.579  0.00  0.00    +0.000 OA
ATOM      7  C   UNL     1     -12.160  54.249  48.452  0.00  0.00    +0.000 C 
ENDROOT
BRANCH   1  13
ATOM      8  S   UNL     1      -8.752  51.830  52.854  0.00  0.00    +0.000 S 
ATOM      9  O   UNL     1      -7.861  50.968  52.102  0.00  0.00    +0.000 OA
ATOM     10  O   UNL     1      -9.448  51.325  54.020  0.00  0.00    +0.000 OA
ATOM     11  N   UNL     1      -9.867  52.416  51.835  0.00  0.00    +0.000 N 
ATOM     12  C   UNL     1      -7.769  53.174  53.414  0.00  0.00    +0.000 A 
ATOM     13  C   UNL     1      -9.771  53.628  51.384  0.00  0.00    +0.000 C 
ATOM     14  C   UNL     1      -7.908  54.392  52.769  0.00  0.00    +0.000 A 
ATOM     15  C   UNL     1      -6.888  52.995  54.482  0.00  0.00    +0.000 A 
ATOM     16  N   UNL     1      -8.813  54.556  51.724  0.00  0.00    +0.000 N 
ATOM     17  C   UNL     1      -7.121  55.464  53.199  0.00  0.00    +0.000 A 
ATOM     18  C   UNL     1      -6.117  54.073  54.908  0.00  0.00    +0.000 A 
ATOM     19  C   UNL     1      -6.233  55.307  54.267  0.00  0.00    +0.000 A 
ATOM     20  H   UNL     1     -10.621  51.848  51.558  0.00  0.00    +0.000 HD
ATOM     21  H   UNL     1      -8.765  55.386  51.196  0.00  0.00    +0.000 HD
ENDBRANCH   1  13
BRANCH   7  22
ATOM     22  C   UNL     1     -11.763  54.936  47.119  0.00  0.00    +0.000 C 
ATOM     23  C   UNL     1     -11.856  53.978  45.923  0.00  0.00    +0.000 C 
ATOM     24  C   UNL     1     -10.369  55.573  47.149  0.00  0.00    +0.000 C 
ENDBRANCH   7  22
BRANCH   5  25
ATOM     25  C   UNL     1     -13.656  56.149  49.355  0.00  0.00    +0.000 C 
BRANCH  25  26
ATOM     26  C   UNL     1     -13.147  57.581  49.218  0.00  0.00    +0.000 C 
BRANCH  26  27
ATOM     27  C   UNL     1     -13.741  58.527  50.276  0.00  0.00    +0.000 C 
ATOM     28  C   UNL     1     -13.969  59.937  49.727  0.00  0.00    +0.000 C 
ATOM     29  C   UNL     1     -15.060  57.953  50.795  0.00  0.00    +0.000 C 
ENDBRANCH  26  27
ENDBRANCH  25  26
ENDBRANCH   5  25
TORSDOF 5
ENDMDL
MODEL 8
REMARK VINA RESULT:      -6.9      3.313      7.439
REMARK  Name = 
REMARK  9 active torsions:
REMARK  status: ('A' for Active; 'I' for Inactive)
REMARK    1  A    between atoms: C_6  and  C_10
REMARK    2  A    between atoms: N_17  and  C_20
REMARK    3  A    between atoms: C_19  and  C_21
REMARK    4  A    between atoms: C_20  and  C_22
REMARK    5  A    between atoms: C_21  and  C_23
REMARK    6  A    between atoms: C_21  and  C_24
REMARK    7  A    between atoms: C_22  and  C_25
REMARK    8  A    between atoms: C_25  and  C_26
REMARK    9  A    between atoms: C_25  and  C_27
REMARK                            x       y       z     vdW  Elec       q    Type
REMARK                         _______ _______ _______ _____ _____    ______ ____
ROOT
ATOM      1  C   UNL     1     -11.102  54.742  50.925  0.00  0.00    +0.000 C 
ATOM      2  C   UNL     1     -10.354  54.458  52.156  0.00  0.00    +0.000 C 
ATOM      3  C   UNL     1     -10.592  53.941  49.980  0.00  0.00    +0.000 C 
ATOM      4  O   UNL     1     -10.544  55.042  53.212  0.00  0.00    +0.000 OA
ATOM      5  N   UNL     1      -9.443  53.464  51.875  0.00  0.00    +0.000 N 
ATOM      6  O   UNL     1     -10.954  53.918  48.658  0.00  0.00    +0.000 OA
ATOM      7  C   UNL     1      -9.518  53.014  50.487  0.00  0.00    +0.000 C 
ENDROOT
BRANCH   1  13
ATOM      8  S   UNL     1     -13.573  57.288  49.340  0.00  0.00    +0.000 S 
ATOM      9  O   UNL     1     -14.656  56.576  48.691  0.00  0.00    +0.000 OA
ATOM     10  O   UNL     1     -12.993  58.463  48.719  0.00  0.00    +0.000 OA
ATOM     11  N   UNL     1     -12.371  56.237  49.615  0.00  0.00    +0.000 N 
ATOM     12  C   UNL     1     -14.200  57.814  50.894  0.00  0.00    +0.000 A 
ATOM     13  C   UNL     1     -12.187  55.746  50.800  0.00  0.00    +0.000 C 
ATOM     14  C   UNL     1     -13.789  57.126  52.024  0.00  0.00    +0.000 A 
ATOM     15  C   UNL     1     -15.078  58.898  50.961  0.00  0.00    +0.000 A 
ATOM     16  N   UNL     1     -12.892  56.066  51.938  0.00  0.00    +0.000 N 
ATOM     17  C   UNL     1     -14.292  57.530  53.265  0.00  0.00    +0.000 A 
ATOM     18  C   UNL     1     -15.563  59.297  52.203  0.00  0.00    +0.000 A 
ATOM     19  C   UNL     1     -15.172  58.613  53.355  0.00  0.00    +0.000 A 
ATOM     20  H   UNL     1     -11.777  55.970  48.877  0.00  0.00    +0.000 HD
ATOM     21  H   UNL     1     -12.752  55.511  52.740  0.00  0.00    +0.000 HD
ENDBRANCH   1  13
BRANCH   7  22
ATOM     22  C   UNL     1      -9.818  51.500  50.329  0.00  0.00    +0.000 C 
ATOM     23  C   UNL     1     -10.882  51.013  51.322  0.00  0.00    +0.000 C 
ATOM     24  C   UNL     1      -8.573  50.612  50.446  0.00  0.00    +0.000 C 
ENDBRANCH   7  22
BRANCH   5  25
ATOM     25  C   UNL     1      -8.564  52.899  52.883  0.00  0.00    +0.000 C 
BRANCH  25  26
ATOM     26  C   UNL     1      -7.180  53.543  52.896  0.00  0.00    +0.000 C 
BRANCH  26  27
ATOM     27  C   UNL     1      -7.003  54.549  54.046  0.00  0.00    +0.000 C 
ATOM     28  C   UNL     1      -5.677  54.354  54.785  0.00  0.00    +0.000 C 
ATOM     29  C   UNL     1      -7.087  55.974  53.497  0.00  0.00    +0.000 C 
ENDBRANCH  26  27
ENDBRANCH  25  26
ENDBRANCH   5  25
TORSDOF 5
ENDMDL
MODEL 9
REMARK VINA RESULT:      -6.8      2.592      7.574
REMARK  Name = 
REMARK  9 active torsions:
REMARK  status: ('A' for Active; 'I' for Inactive)
REMARK    1  A    between atoms: C_6  and  C_10
REMARK    2  A    between atoms: N_17  and  C_20
REMARK    3  A    between atoms: C_19  and  C_21
REMARK    4  A    between atoms: C_20  and  C_22
REMARK    5  A    between atoms: C_21  and  C_23
REMARK    6  A    between atoms: C_21  and  C_24
REMARK    7  A    between atoms: C_22  and  C_25
REMARK    8  A    between atoms: C_25  and  C_26
REMARK    9  A    between atoms: C_25  and  C_27
REMARK                            x       y       z     vdW  Elec       q    Type
REMARK                         _______ _______ _______ _____ _____    ______ ____
ROOT
ATOM      1  C   UNL     1     -10.858  54.958  50.139  0.00  0.00    +0.000 C 
ATOM      2  C   UNL     1     -10.550  54.110  48.980  0.00  0.00    +0.000 C 
ATOM      3  C   UNL     1      -9.900  54.721  51.045  0.00  0.00    +0.000 C 
ATOM      4  O   UNL     1     -11.245  54.056  47.979  0.00  0.00    +0.000 OA
ATOM      5  N   UNL     1      -9.387  53.426  49.257  0.00  0.00    +0.000 N 
ATOM      6  O   UNL     1      -9.831  55.257  52.306  0.00  0.00    +0.000 OA
ATOM      7  C   UNL     1      -8.841  53.760  50.571  0.00  0.00    +0.000 C 
ENDROOT
BRANCH   1  13
ATOM      8  S   UNL     1     -13.742  57.348  49.105  0.00  0.00    +0.000 S 
ATOM      9  O   UNL     1     -14.851  56.575  48.582  0.00  0.00    +0.000 OA
ATOM     10  O   UNL     1     -13.362  58.600  48.480  0.00  0.00    +0.000 OA
ATOM     11  N   UNL     1     -12.431  56.397  49.131  0.00  0.00    +0.000 N 
ATOM     12  C   UNL     1     -14.162  57.737  50.766  0.00  0.00    +0.000 A 
ATOM     13  C   UNL     1     -12.027  55.865  50.242  0.00  0.00    +0.000 C 
ATOM     14  C   UNL     1     -13.528  57.033  51.777  0.00  0.00    +0.000 A 
ATOM     15  C   UNL     1     -15.104  58.734  51.032  0.00  0.00    +0.000 A 
ATOM     16  N   UNL     1     -12.572  56.064  51.491  0.00  0.00    +0.000 N 
ATOM     17  C   UNL     1     -13.864  57.328  53.101  0.00  0.00    +0.000 A 
ATOM     18  C   UNL     1     -15.423  59.024  52.355  0.00  0.00    +0.000 A 
ATOM     19  C   UNL     1     -14.804  58.321  53.390  0.00  0.00    +0.000 A 
ATOM     20  H   UNL     1     -11.939  56.221  48.297  0.00  0.00    +0.000 HD
ATOM     21  H   UNL     1     -12.266  55.484  52.226  0.00  0.00    +0.000 HD
ENDBRANCH   1  13
BRANCH   7  22
ATOM     22  C   UNL     1      -7.399  54.329  50.529  0.00  0.00    +0.000 C 
ATOM     23  C   UNL     1      -6.655  54.121  51.856  0.00  0.00    +0.000 C 
ATOM     24  C   UNL     1      -7.335  55.811  50.142  0.00  0.00    +0.000 C 
ENDBRANCH   7  22
BRANCH   5  25
ATOM     25  C   UNL     1      -8.761  52.526  48.305  0.00  0.00    +0.000 C 
BRANCH  25  26
ATOM     26  C   UNL     1      -7.612  53.176  47.538  0.00  0.00    +0.000 C 
BRANCH  26  27
ATOM     27  C   UNL     1      -8.010  53.593  46.112  0.00  0.00    +0.000 C 
ATOM     28  C   UNL     1      -9.143  52.731  45.553  0.00  0.00    +0.000 C 
ATOM     29  C   UNL     1      -8.426  55.065  46.106  0.00  0.00    +0.000 C 
ENDBRANCH  26  27
ENDBRANCH  25  26
ENDBRANCH   5  25
TORSDOF 5
ENDMDL
