MODEL 1
REMARK VINA RESULT:      -8.0      0.000      0.000
REMARK  Name = 
REMARK  7 active torsions:
REMARK  status: ('A' for Active; 'I' for Inactive)
REMARK    1  A    between atoms: C_6  and  C_10
REMARK    2  A    between atoms: N_17  and  C_20
REMARK    3  A    between atoms: C_19  and  C_21
REMARK    4  A    between atoms: C_20  and  C_22
REMARK    5  A    between atoms: C_21  and  C_23
REMARK    6  A    between atoms: C_21  and  C_24
REMARK    7  A    between atoms: C_21  and  C_25
REMARK                            x       y       z     vdW  Elec       q    Type
REMARK                         _______ _______ _______ _____ _____    ______ ____
ROOT
ATOM      1  C   UNL     1     -11.463  55.797  48.924  0.00  0.00    +0.000 C 
ATOM      2  C   UNL     1     -10.559  54.946  49.700  0.00  0.00    +0.000 C 
ATOM      3  C   UNL     1     -11.264  55.458  47.643  0.00  0.00    +0.000 C 
ATOM      4  O   UNL     1     -10.374  55.087  50.903  0.00  0.00    +0.000 OA
ATOM      5  N   UNL     1     -10.008  54.010  48.855  0.00  0.00    +0.000 N 
ATOM      6  O   UNL     1     -11.864  56.068  46.569  0.00  0.00    +0.000 OA
ATOM      7  C   UNL     1     -10.312  54.285  47.444  0.00  0.00    +0.000 C 
ENDROOT
BRANCH   1  13
ATOM      8  S   UNL     1     -13.478  59.094  49.405  0.00  0.00    +0.000 S 
ATOM      9  O   UNL     1     -14.574  59.099  48.453  0.00  0.00    +0.000 OA
ATOM     10  O   UNL     1     -12.742  60.312  49.680  0.00  0.00    +0.000 OA
ATOM     11  N   UNL     1     -12.409  57.967  48.933  0.00  0.00    +0.000 N 
ATOM     12  C   UNL     1     -14.169  58.585  50.937  0.00  0.00    +0.000 A 
ATOM     13  C   UNL     1     -12.389  56.803  49.512  0.00  0.00    +0.000 C 
ATOM     14  C   UNL     1     -13.927  57.283  51.352  0.00  0.00    +0.000 A 
ATOM     15  C   UNL     1     -14.924  59.481  51.702  0.00  0.00    +0.000 A 
ATOM     16  N   UNL     1     -13.153  56.418  50.589  0.00  0.00    +0.000 N 
ATOM     17  C   UNL     1     -14.463  56.868  52.575  0.00  0.00    +0.000 A 
ATOM     18  C   UNL     1     -15.448  59.053  52.920  0.00  0.00    +0.000 A 
ATOM     19  C   UNL     1     -15.215  57.749  53.357  0.00  0.00    +0.000 A 
ATOM     20  H   UNL     1     -11.774  58.165  48.208  0.00  0.00    +0.000 HD
ATOM     21  H   UNL     1     -13.152  55.465  50.836  0.00  0.00    +0.000 HD
ENDBRANCH   1  13
BRANCH   7  22
ATOM     22  C   UNL     1     -10.900  53.081  46.617  0.00  0.00    +0.000 C 
ATOM     23  C   UNL     1     -11.347  53.525  45.201  0.00  0.00    +0.000 C 
ATOM     24  C   UNL     1      -9.839  51.988  46.367  0.00  0.00    +0.000 C 
ATOM     25  C   UNL     1     -12.114  52.446  47.322  0.00  0.00    +0.000 C 
ENDBRANCH   7  22
BRANCH   5  26
ATOM     26  C   UNL     1      -8.964  53.107  49.334  0.00  0.00    +0.000 C 
BRANCH  26  27
ATOM     27  C   UNL     1      -7.541  53.626  49.177  0.00  0.00    +0.000 A 
ATOM     28  N   UNL     1      -7.078  54.423  50.176  0.00  0.00    +0.000 NA
ATOM     29  C   UNL     1      -6.727  53.269  48.100  0.00  0.00    +0.000 A 
ATOM     30  C   UNL     1      -5.802  54.868  50.089  0.00  0.00    +0.000 A 
ATOM     31  C   UNL     1      -5.419  53.741  48.035  0.00  0.00    +0.000 A 
ATOM     32  C   UNL     1      -4.942  54.555  49.052  0.00  0.00    +0.000 A 
ENDBRANCH  26  27
ENDBRANCH   5  26
TORSDOF 4
ENDMDL
MODEL 2
REMARK VINA RESULT:      -7.8      2.496      3.963
REMARK  Name = 
REMARK  7 active torsions:
REMARK  status: ('A' for Active; 'I' for Inactive)
REMARK    1  A    between atoms: C_6  and  C_10
REMARK    2  A    between atoms: N_17  and  C_20
REMARK    3  A    between atoms: C_19  and  C_21
REMARK    4  A    between atoms: C_20  and  C_22
REMARK    5  A    between atoms: C_21  and  C_23
REMARK    6  A    between atoms: C_21  and  C_24
REMARK    7  A    between atoms: C_21  and  C_25
REMARK                            x       y       z     vdW  Elec       q    Type
REMARK                         _______ _______ _______ _____ _____    ______ ____
ROOT
ATOM      1  C   UNL     1     -12.288  54.463  50.086  0.00  0.00    +0.000 C 
ATOM      2  C   UNL     1     -12.002  54.126  48.692  0.00  0.00    +0.000 C 
ATOM      3  C   UNL     1     -11.767  53.465  50.813  0.00  0.00    +0.000 C 
ATOM      4  O   UNL     1     -12.460  54.750  47.743  0.00  0.00    +0.000 OA
ATOM      5  N   UNL     1     -11.155  53.040  48.670  0.00  0.00    +0.000 N 
ATOM      6  O   UNL     1     -11.876  53.349  52.177  0.00  0.00    +0.000 OA
ATOM      7  C   UNL     1     -10.988  52.438  50.001  0.00  0.00    +0.000 C 
ENDROOT
BRANCH   1  13
ATOM      8  S   UNL     1     -14.401  56.892  52.279  0.00  0.00    +0.000 S 
ATOM      9  O   UNL     1     -13.562  57.371  53.361  0.00  0.00    +0.000 OA
ATOM     10  O   UNL     1     -15.792  56.561  52.521  0.00  0.00    +0.000 OA
ATOM     11  N   UNL     1     -13.688  55.584  51.634  0.00  0.00    +0.000 N 
ATOM     12  C   UNL     1     -14.406  58.165  51.068  0.00  0.00    +0.000 A 
ATOM     13  C   UNL     1     -13.011  55.688  50.529  0.00  0.00    +0.000 C 
ATOM     14  C   UNL     1     -13.629  57.978  49.934  0.00  0.00    +0.000 A 
ATOM     15  C   UNL     1     -15.183  59.313  51.256  0.00  0.00    +0.000 A 
ATOM     16  N   UNL     1     -12.886  56.818  49.755  0.00  0.00    +0.000 N 
ATOM     17  C   UNL     1     -13.632  58.980  48.957  0.00  0.00    +0.000 A 
ATOM     18  C   UNL     1     -15.179  60.299  50.274  0.00  0.00    +0.000 A 
ATOM     19  C   UNL     1     -14.407  60.131  49.124  0.00  0.00    +0.000 A 
ATOM     20  H   UNL     1     -13.768  54.710  52.079  0.00  0.00    +0.000 HD
ATOM     21  H   UNL     1     -12.225  56.805  49.026  0.00  0.00    +0.000 HD
ENDBRANCH   1  13
BRANCH   7  22
ATOM     22  C   UNL     1      -9.503  52.202  50.470  0.00  0.00    +0.000 C 
ATOM     23  C   UNL     1      -8.723  51.312  49.469  0.00  0.00    +0.000 C 
ATOM     24  C   UNL     1      -8.705  53.521  50.525  0.00  0.00    +0.000 C 
ATOM     25  C   UNL     1      -9.447  51.527  51.853  0.00  0.00    +0.000 C 
ENDBRANCH   7  22
BRANCH   5  26
ATOM     26  C   UNL     1     -10.805  52.402  47.404  0.00  0.00    +0.000 C 
BRANCH  26  27
ATOM     27  C   UNL     1      -9.770  53.147  46.571  0.00  0.00    +0.000 A 
ATOM     28  N   UNL     1      -9.622  52.732  45.285  0.00  0.00    +0.000 NA
ATOM     29  C   UNL     1      -9.046  54.231  47.069  0.00  0.00    +0.000 A 
ATOM     30  C   UNL     1      -8.741  53.398  44.504  0.00  0.00    +0.000 A 
ATOM     31  C   UNL     1      -8.145  54.899  46.244  0.00  0.00    +0.000 A 
ATOM     32  C   UNL     1      -7.990  54.479  44.931  0.00  0.00    +0.000 A 
ENDBRANCH  26  27
ENDBRANCH   5  26
TORSDOF 4
ENDMDL
MODEL 3
REMARK VINA RESULT:      -7.8      1.781      3.653
REMARK  Name = 
REMARK  7 active torsions:
REMARK  status: ('A' for Active; 'I' for Inactive)
REMARK    1  A    between atoms: C_6  and  C_10
REMARK    2  A    between atoms: N_17  and  C_20
REMARK    3  A    between atoms: C_19  and  C_21
REMARK    4  A    between atoms: C_20  and  C_22
REMARK    5  A    between atoms: C_21  and  C_23
REMARK    6  A    between atoms: C_21  and  C_24
REMARK    7  A    between atoms: C_21  and  C_25
REMARK                            x       y       z     vdW  Elec       q    Type
REMARK                         _______ _______ _______ _____ _____    ______ ____
ROOT
ATOM      1  C   UNL     1     -10.895  55.027  50.330  0.00  0.00    +0.000 C 
ATOM      2  C   UNL     1     -10.587  54.169  49.186  0.00  0.00    +0.000 C 
ATOM      3  C   UNL     1      -9.936  54.782  51.233  0.00  0.00    +0.000 C 
ATOM      4  O   UNL     1     -11.340  54.030  48.229  0.00  0.00    +0.000 OA
ATOM      5  N   UNL     1      -9.350  53.598  49.389  0.00  0.00    +0.000 N 
ATOM      6  O   UNL     1      -9.886  55.328  52.491  0.00  0.00    +0.000 OA
ATOM      7  C   UNL     1      -8.841  53.841  50.745  0.00  0.00    +0.000 C 
ENDROOT
BRANCH   1  13
ATOM      8  S   UNL     1     -13.745  57.434  49.210  0.00  0.00    +0.000 S 
ATOM      9  O   UNL     1     -14.820  56.634  48.653  0.00  0.00    +0.000 OA
ATOM     10  O   UNL     1     -13.375  58.693  48.596  0.00  0.00    +0.000 OA
ATOM     11  N   UNL     1     -12.414  56.507  49.275  0.00  0.00    +0.000 N 
ATOM     12  C   UNL     1     -14.227  57.816  50.855  0.00  0.00    +0.000 A 
ATOM     13  C   UNL     1     -12.053  55.961  50.399  0.00  0.00    +0.000 C 
ATOM     14  C   UNL     1     -13.618  57.112  51.885  0.00  0.00    +0.000 A 
ATOM     15  C   UNL     1     -15.184  58.807  51.097  0.00  0.00    +0.000 A 
ATOM     16  N   UNL     1     -12.650  56.150  51.623  0.00  0.00    +0.000 N 
ATOM     17  C   UNL     1     -13.985  57.413  53.200  0.00  0.00    +0.000 A 
ATOM     18  C   UNL     1     -15.536  59.098  52.413  0.00  0.00    +0.000 A 
ATOM     19  C   UNL     1     -14.935  58.405  53.463  0.00  0.00    +0.000 A 
ATOM     20  H   UNL     1     -11.878  56.357  48.464  0.00  0.00    +0.000 HD
ATOM     21  H   UNL     1     -12.375  55.563  52.364  0.00  0.00    +0.000 HD
ENDBRANCH   1  13
BRANCH   7  22
ATOM     22  C   UNL     1      -7.377  54.414  50.841  0.00  0.00    +0.000 C 
ATOM     23  C   UNL     1      -7.254  55.789  50.138  0.00  0.00    +0.000 C 
ATOM     24  C   UNL     1      -6.965  54.685  52.304  0.00  0.00    +0.000 C 
ATOM     25  C   UNL     1      -6.351  53.458  50.203  0.00  0.00    +0.000 C 
ENDBRANCH   7  22
BRANCH   5  26
ATOM     26  C   UNL     1      -8.842  52.588  48.463  0.00  0.00    +0.000 C 
BRANCH  26  27
ATOM     27  C   UNL     1      -8.590  53.082  47.045  0.00  0.00    +0.000 A 
ATOM     28  N   UNL     1      -9.163  52.359  46.047  0.00  0.00    +0.000 NA
ATOM     29  C   UNL     1      -7.859  54.239  46.773  0.00  0.00    +0.000 A 
ATOM     30  C   UNL     1      -8.994  52.793  44.776  0.00  0.00    +0.000 A 
ATOM     31  C   UNL     1      -7.700  54.663  45.456  0.00  0.00    +0.000 A 
ATOM     32  C   UNL     1      -8.282  53.929  44.433  0.00  0.00    +0.000 A 
ENDBRANCH  26  27
ENDBRANCH   5  26
TORSDOF 4
ENDMDL
MODEL 4
REMARK VINA RESULT:      -7.7      1.361      2.363
REMARK  Name = 
REMARK  7 active torsions:
REMARK  status: ('A' for Active; 'I' for Inactive)
REMARK    1  A    between atoms: C_6  and  C_10
REMARK    2  A    between atoms: N_17  and  C_20
REMARK    3  A    between atoms: C_19  and  C_21
REMARK    4  A    between atoms: C_20  and  C_22
REMARK    5  A    between atoms: C_21  and  C_23
REMARK    6  A    between atoms: C_21  and  C_24
REMARK    7  A    between atoms: C_21  and  C_25
REMARK                            x       y       z     vdW  Elec       q    Type
REMARK                         _______ _______ _______ _____ _____    ______ ____
ROOT
ATOM      1  C   UNL     1     -11.468  55.922  48.844  0.00  0.00    +0.000 C 
ATOM      2  C   UNL     1     -10.462  55.149  49.574  0.00  0.00    +0.000 C 
ATOM      3  C   UNL     1     -11.352  55.546  47.564  0.00  0.00    +0.000 C 
ATOM      4  O   UNL     1     -10.191  55.345  50.753  0.00  0.00    +0.000 OA
ATOM      5  N   UNL     1      -9.928  54.211  48.720  0.00  0.00    +0.000 N 
ATOM      6  O   UNL     1     -12.065  56.083  46.521  0.00  0.00    +0.000 OA
ATOM      7  C   UNL     1     -10.356  54.417  47.329  0.00  0.00    +0.000 C 
ENDROOT
BRANCH   1  13
ATOM      8  S   UNL     1     -13.519  59.179  49.437  0.00  0.00    +0.000 S 
ATOM      9  O   UNL     1     -14.626  59.195  48.500  0.00  0.00    +0.000 OA
ATOM     10  O   UNL     1     -12.795  60.399  49.735  0.00  0.00    +0.000 OA
ATOM     11  N   UNL     1     -12.442  58.079  48.922  0.00  0.00    +0.000 N 
ATOM     12  C   UNL     1     -14.184  58.621  50.964  0.00  0.00    +0.000 A 
ATOM     13  C   UNL     1     -12.400  56.901  49.470  0.00  0.00    +0.000 C 
ATOM     14  C   UNL     1     -13.920  57.311  51.341  0.00  0.00    +0.000 A 
ATOM     15  C   UNL     1     -14.940  59.486  51.762  0.00  0.00    +0.000 A 
ATOM     16  N   UNL     1     -13.144  56.477  50.546  0.00  0.00    +0.000 N 
ATOM     17  C   UNL     1     -14.435  56.857  52.560  0.00  0.00    +0.000 A 
ATOM     18  C   UNL     1     -15.442  59.020  52.974  0.00  0.00    +0.000 A 
ATOM     19  C   UNL     1     -15.187  57.709  53.374  0.00  0.00    +0.000 A 
ATOM     20  H   UNL     1     -11.818  58.304  48.195  0.00  0.00    +0.000 HD
ATOM     21  H   UNL     1     -13.128  55.518  50.767  0.00  0.00    +0.000 HD
ENDBRANCH   1  13
BRANCH   7  22
ATOM     22  C   UNL     1     -10.940  53.154  46.592  0.00  0.00    +0.000 C 
ATOM     23  C   UNL     1      -9.909  51.997  46.538  0.00  0.00    +0.000 C 
ATOM     24  C   UNL     1     -12.151  52.563  47.343  0.00  0.00    +0.000 C 
ATOM     25  C   UNL     1     -11.361  53.484  45.148  0.00  0.00    +0.000 C 
ENDBRANCH   7  22
BRANCH   5  26
ATOM     26  C   UNL     1      -8.802  53.383  49.144  0.00  0.00    +0.000 C 
BRANCH  26  27
ATOM     27  C   UNL     1      -9.109  52.404  50.269  0.00  0.00    +0.000 A 
ATOM     28  N   UNL     1      -8.319  52.491  51.372  0.00  0.00    +0.000 NA
ATOM     29  C   UNL     1     -10.171  51.501  50.209  0.00  0.00    +0.000 A 
ATOM     30  C   UNL     1      -8.590  51.664  52.410  0.00  0.00    +0.000 A 
ATOM     31  C   UNL     1     -10.428  50.662  51.290  0.00  0.00    +0.000 A 
ATOM     32  C   UNL     1      -9.625  50.745  52.418  0.00  0.00    +0.000 A 
ENDBRANCH  26  27
ENDBRANCH   5  26
TORSDOF 4
ENDMDL
MODEL 5
REMARK VINA RESULT:      -7.6      1.286      3.807
REMARK  Name = 
REMARK  7 active torsions:
REMARK  status: ('A' for Active; 'I' for Inactive)
REMARK    1  A    between atoms: C_6  and  C_10
REMARK    2  A    between atoms: N_17  and  C_20
REMARK    3  A    between atoms: C_19  and  C_21
REMARK    4  A    between atoms: C_20  and  C_22
REMARK    5  A    between atoms: C_21  and  C_23
REMARK    6  A    between atoms: C_21  and  C_24
REMARK    7  A    between atoms: C_21  and  C_25
REMARK                            x       y       z     vdW  Elec       q    Type
REMARK                         _______ _______ _______ _____ _____    ______ ____
ROOT
ATOM      1  C   UNL     1     -11.424  55.747  48.969  0.00  0.00    +0.000 C 
ATOM      2  C   UNL     1     -11.180  55.552  47.540  0.00  0.00    +0.000 C 
ATOM      3  C   UNL     1     -10.645  54.853  49.593  0.00  0.00    +0.000 C 
ATOM      4  O   UNL     1     -11.834  56.108  46.666  0.00  0.00    +0.000 OA
ATOM      5  N   UNL     1     -10.123  54.682  47.392  0.00  0.00    +0.000 N 
ATOM      6  O   UNL     1     -10.620  54.646  50.950  0.00  0.00    +0.000 OA
ATOM      7  C   UNL     1      -9.727  54.065  48.666  0.00  0.00    +0.000 C 
ENDROOT
BRANCH   1  13
ATOM      8  S   UNL     1     -13.442  59.050  49.400  0.00  0.00    +0.000 S 
ATOM      9  O   UNL     1     -14.525  59.049  48.434  0.00  0.00    +0.000 OA
ATOM     10  O   UNL     1     -12.709  60.269  49.677  0.00  0.00    +0.000 OA
ATOM     11  N   UNL     1     -12.368  57.919  48.950  0.00  0.00    +0.000 N 
ATOM     12  C   UNL     1     -14.155  58.551  50.927  0.00  0.00    +0.000 A 
ATOM     13  C   UNL     1     -12.358  56.759  49.537  0.00  0.00    +0.000 C 
ATOM     14  C   UNL     1     -13.920  57.252  51.353  0.00  0.00    +0.000 A 
ATOM     15  C   UNL     1     -14.919  59.453  51.675  0.00  0.00    +0.000 A 
ATOM     16  N   UNL     1     -13.136  56.381  50.606  0.00  0.00    +0.000 N 
ATOM     17  C   UNL     1     -14.473  56.845  52.572  0.00  0.00    +0.000 A 
ATOM     18  C   UNL     1     -15.460  59.034  52.888  0.00  0.00    +0.000 A 
ATOM     19  C   UNL     1     -15.234  57.733  53.338  0.00  0.00    +0.000 A 
ATOM     20  H   UNL     1     -11.723  58.111  48.233  0.00  0.00    +0.000 HD
ATOM     21  H   UNL     1     -13.139  55.430  50.859  0.00  0.00    +0.000 HD
ENDBRANCH   1  13
BRANCH   7  22
ATOM     22  C   UNL     1      -8.195  54.138  49.022  0.00  0.00    +0.000 C 
ATOM     23  C   UNL     1      -7.308  53.729  47.819  0.00  0.00    +0.000 C 
ATOM     24  C   UNL     1      -7.756  55.579  49.359  0.00  0.00    +0.000 C 
ATOM     25  C   UNL     1      -7.844  53.220  50.208  0.00  0.00    +0.000 C 
ENDBRANCH   7  22
BRANCH   5  26
ATOM     26  C   UNL     1      -9.741  54.202  46.066  0.00  0.00    +0.000 C 
BRANCH  26  27
ATOM     27  C   UNL     1     -10.306  52.840  45.686  0.00  0.00    +0.000 A 
ATOM     28  N   UNL     1      -9.494  51.772  45.905  0.00  0.00    +0.000 NA
ATOM     29  C   UNL     1     -11.601  52.676  45.192  0.00  0.00    +0.000 A 
ATOM     30  C   UNL     1      -9.979  50.541  45.618  0.00  0.00    +0.000 A 
ATOM     31  C   UNL     1     -12.075  51.399  44.904  0.00  0.00    +0.000 A 
ATOM     32  C   UNL     1     -11.250  50.305  45.125  0.00  0.00    +0.000 A 
ENDBRANCH  26  27
ENDBRANCH   5  26
TORSDOF 4
ENDMDL
MODEL 6
REMARK VINA RESULT:      -7.6      2.451      3.569
REMARK  Name = 
REMARK  7 active torsions:
REMARK  status: ('A' for Active; 'I' for Inactive)
REMARK    1  A    between atoms: C_6  and  C_10
REMARK    2  A    between atoms: N_17  and  C_20
REMARK    3  A    between atoms: C_19  and  C_21
REMARK    4  A    between atoms: C_20  and  C_22
REMARK    5  A    between atoms: C_21  and  C_23
REMARK    6  A    between atoms: C_21  and  C_24
REMARK    7  A    between atoms: C_21  and  C_25
REMARK                            x       y       z     vdW  Elec       q    Type
REMARK                         _______ _______ _______ _____ _____    ______ ____
ROOT
ATOM      1  C   UNL     1     -10.854  54.948  50.593  0.00  0.00    +0.000 C 
ATOM      2  C   UNL     1      -9.439  55.310  50.508  0.00  0.00    +0.000 C 
ATOM      3  C   UNL     1     -10.878  53.611  50.675  0.00  0.00    +0.000 C 
ATOM      4  O   UNL     1      -9.051  56.450  50.277  0.00  0.00    +0.000 OA
ATOM      5  N   UNL     1      -8.684  54.182  50.738  0.00  0.00    +0.000 N 
ATOM      6  O   UNL     1     -12.019  52.848  50.700  0.00  0.00    +0.000 OA
ATOM      7  C   UNL     1      -9.503  52.962  50.773  0.00  0.00    +0.000 C 
ENDROOT
BRANCH   1  13
ATOM      8  S   UNL     1     -13.504  57.495  49.306  0.00  0.00    +0.000 S 
ATOM      9  O   UNL     1     -14.554  56.755  48.632  0.00  0.00    +0.000 OA
ATOM     10  O   UNL     1     -13.035  58.757  48.767  0.00  0.00    +0.000 OA
ATOM     11  N   UNL     1     -12.218  56.515  49.457  0.00  0.00    +0.000 N 
ATOM     12  C   UNL     1     -14.115  57.848  50.915  0.00  0.00    +0.000 A 
ATOM     13  C   UNL     1     -11.978  55.924  50.590  0.00  0.00    +0.000 C 
ATOM     14  C   UNL     1     -13.625  57.092  51.970  0.00  0.00    +0.000 A 
ATOM     15  C   UNL     1     -15.053  58.869  51.104  0.00  0.00    +0.000 A 
ATOM     16  N   UNL     1     -12.674  56.101  51.763  0.00  0.00    +0.000 N 
ATOM     17  C   UNL     1     -14.096  57.370  53.257  0.00  0.00    +0.000 A 
ATOM     18  C   UNL     1     -15.509  59.136  52.392  0.00  0.00    +0.000 A 
ATOM     19  C   UNL     1     -15.029  58.389  53.468  0.00  0.00    +0.000 A 
ATOM     20  H   UNL     1     -11.619  56.369  48.691  0.00  0.00    +0.000 HD
ATOM     21  H   UNL     1     -12.487  55.483  52.506  0.00  0.00    +0.000 HD
ENDBRANCH   1  13
BRANCH   7  22
ATOM     22  C   UNL     1      -9.293  52.025  52.021  0.00  0.00    +0.000 C 
ATOM     23  C   UNL     1     -10.211  50.778  51.959  0.00  0.00    +0.000 C 
ATOM     24  C   UNL     1      -7.860  51.454  52.071  0.00  0.00    +0.000 C 
ATOM     25  C   UNL     1      -9.582  52.765  53.340  0.00  0.00    +0.000 C 
ENDBRANCH   7  22
BRANCH   5  26
ATOM     26  C   UNL     1      -7.232  54.221  50.584  0.00  0.00    +0.000 C 
BRANCH  26  27
ATOM     27  C   UNL     1      -6.455  54.490  51.866  0.00  0.00    +0.000 A 
ATOM     28  N   UNL     1      -5.162  54.070  51.883  0.00  0.00    +0.000 NA
ATOM     29  C   UNL     1      -7.008  55.175  52.949  0.00  0.00    +0.000 A 
ATOM     30  C   UNL     1      -4.428  54.329  52.991  0.00  0.00    +0.000 A 
ATOM     31  C   UNL     1      -6.231  55.428  54.076  0.00  0.00    +0.000 A 
ATOM     32  C   UNL     1      -4.912  55.001  54.100  0.00  0.00    +0.000 A 
ENDBRANCH  26  27
ENDBRANCH   5  26
TORSDOF 4
ENDMDL
MODEL 7
REMARK VINA RESULT:      -7.6      2.360      3.153
REMARK  Name = 
REMARK  7 active torsions:
REMARK  status: ('A' for Active; 'I' for Inactive)
REMARK    1  A    between atoms: C_6  and  C_10
REMARK    2  A    between atoms: N_17  and  C_20
REMARK    3  A    between atoms: C_19  and  C_21
REMARK    4  A    between atoms: C_20  and  C_22
REMARK    5  A    between atoms: C_21  and  C_23
REMARK    6  A    between atoms: C_21  and  C_24
REMARK    7  A    between atoms: C_21  and  C_25
REMARK                            x       y       z     vdW  Elec       q    Type
REMARK                         _______ _______ _______ _____ _____    ______ ____
ROOT
ATOM      1  C   UNL     1     -10.203  55.026  47.798  0.00  0.00    +0.000 C 
ATOM      2  C   UNL     1      -8.745  54.908  47.821  0.00  0.00    +0.000 C 
ATOM      3  C   UNL     1     -10.568  54.738  46.541  0.00  0.00    +0.000 C 
ATOM      4  O   UNL     1      -8.060  55.243  48.781  0.00  0.00    +0.000 OA
ATOM      5  N   UNL     1      -8.332  54.367  46.625  0.00  0.00    +0.000 N 
ATOM      6  O   UNL     1     -11.853  54.800  46.064  0.00  0.00    +0.000 OA
ATOM      7  C   UNL     1      -9.422  54.288  45.643  0.00  0.00    +0.000 C 
ENDROOT
BRANCH   1  13
ATOM      8  S   UNL     1     -11.753  54.945  51.370  0.00  0.00    +0.000 S 
ATOM      9  O   UNL     1     -10.769  55.461  52.303  0.00  0.00    +0.000 OA
ATOM     10  O   UNL     1     -12.580  53.810  51.731  0.00  0.00    +0.000 OA
ATOM     11  N   UNL     1     -10.987  54.576  49.987  0.00  0.00    +0.000 N 
ATOM     12  C   UNL     1     -12.858  56.272  51.046  0.00  0.00    +0.000 A 
ATOM     13  C   UNL     1     -11.041  55.390  48.974  0.00  0.00    +0.000 C 
ATOM     14  C   UNL     1     -12.732  56.934  49.833  0.00  0.00    +0.000 A 
ATOM     15  C   UNL     1     -13.831  56.624  51.988  0.00  0.00    +0.000 A 
ATOM     16  N   UNL     1     -11.775  56.550  48.902  0.00  0.00    +0.000 N 
ATOM     17  C   UNL     1     -13.612  57.985  49.559  0.00  0.00    +0.000 A 
ATOM     18  C   UNL     1     -14.703  57.670  51.699  0.00  0.00    +0.000 A 
ATOM     19  C   UNL     1     -14.595  58.348  50.484  0.00  0.00    +0.000 A 
ATOM     20  H   UNL     1     -10.481  53.735  49.914  0.00  0.00    +0.000 HD
ATOM     21  H   UNL     1     -11.612  57.151  48.139  0.00  0.00    +0.000 HD
ENDBRANCH   1  13
BRANCH   7  22
ATOM     22  C   UNL     1      -9.627  52.890  44.948  0.00  0.00    +0.000 C 
ATOM     23  C   UNL     1     -10.842  52.902  43.987  0.00  0.00    +0.000 C 
ATOM     24  C   UNL     1      -8.426  52.515  44.054  0.00  0.00    +0.000 C 
ATOM     25  C   UNL     1      -9.847  51.770  45.983  0.00  0.00    +0.000 C 
ENDBRANCH   7  22
BRANCH   5  26
ATOM     26  C   UNL     1      -6.908  54.257  46.317  0.00  0.00    +0.000 C 
BRANCH  26  27
ATOM     27  C   UNL     1      -6.150  53.217  47.132  0.00  0.00    +0.000 A 
ATOM     28  N   UNL     1      -5.099  53.675  47.862  0.00  0.00    +0.000 NA
ATOM     29  C   UNL     1      -6.535  51.876  47.180  0.00  0.00    +0.000 A 
ATOM     30  C   UNL     1      -4.428  52.785  48.631  0.00  0.00    +0.000 A 
ATOM     31  C   UNL     1      -5.828  50.982  47.979  0.00  0.00    +0.000 A 
ATOM     32  C   UNL     1      -4.753  51.444  48.725  0.00  0.00    +0.000 A 
ENDBRANCH  26  27
ENDBRANCH   5  26
TORSDOF 4
ENDMDL
MODEL 8
REMARK VINA RESULT:      -7.6      2.743      3.496
REMARK  Name = 
REMARK  7 active torsions:
REMARK  status: ('A' for Active; 'I' for Inactive)
REMARK    1  A    between atoms: C_6  and  C_10
REMARK    2  A    between atoms: N_17  and  C_20
REMARK    3  A    between atoms: C_19  and  C_21
REMARK    4  A    between atoms: C_20  and  C_22
REMARK    5  A    between atoms: C_21  and  C_23
REMARK    6  A    between atoms: C_21  and  C_24
REMARK    7  A    between atoms: C_21  and  C_25
REMARK                            x       y       z     vdW  Elec       q    Type
REMARK                         _______ _______ _______ _____ _____    ______ ____
ROOT
ATOM      1  C   UNL     1     -10.894  54.716  51.253  0.00  0.00    +0.000 C 
ATOM      2  C   UNL     1     -10.325  54.384  52.560  0.00  0.00    +0.000 C 
ATOM      3  C   UNL     1     -10.259  53.928  50.374  0.00  0.00    +0.000 C 
ATOM      4  O   UNL     1     -10.573  55.017  53.579  0.00  0.00    +0.000 OA
ATOM      5  N   UNL     1      -9.516  53.279  52.416  0.00  0.00    +0.000 N 
ATOM      6  O   UNL     1     -10.441  53.967  49.014  0.00  0.00    +0.000 OA
ATOM      7  C   UNL     1      -9.304  52.924  51.006  0.00  0.00    +0.000 C 
ENDROOT
BRANCH   1  13
ATOM      8  S   UNL     1     -13.281  57.194  49.430  0.00  0.00    +0.000 S 
ATOM      9  O   UNL     1     -14.300  56.421  48.745  0.00  0.00    +0.000 OA
ATOM     10  O   UNL     1     -12.701  58.364  48.799  0.00  0.00    +0.000 OA
ATOM     11  N   UNL     1     -12.066  56.190  49.818  0.00  0.00    +0.000 N 
ATOM     12  C   UNL     1     -14.021  57.759  50.919  0.00  0.00    +0.000 A 
ATOM     13  C   UNL     1     -11.963  55.728  51.029  0.00  0.00    +0.000 C 
ATOM     14  C   UNL     1     -13.670  57.115  52.097  0.00  0.00    +0.000 A 
ATOM     15  C   UNL     1     -14.920  58.831  50.898  0.00  0.00    +0.000 A 
ATOM     16  N   UNL     1     -12.755  56.069  52.100  0.00  0.00    +0.000 N 
ATOM     17  C   UNL     1     -14.244  57.561  53.292  0.00  0.00    +0.000 A 
ATOM     18  C   UNL     1     -15.480  59.266  52.096  0.00  0.00    +0.000 A 
ATOM     19  C   UNL     1     -15.140  58.634  53.292  0.00  0.00    +0.000 A 
ATOM     20  H   UNL     1     -11.406  55.930  49.136  0.00  0.00    +0.000 HD
ATOM     21  H   UNL     1     -12.669  55.537  52.923  0.00  0.00    +0.000 HD
ENDBRANCH   1  13
BRANCH   7  22
ATOM     22  C   UNL     1      -9.570  51.418  50.626  0.00  0.00    +0.000 C 
ATOM     23  C   UNL     1      -8.505  50.477  51.244  0.00  0.00    +0.000 C 
ATOM     24  C   UNL     1     -10.914  50.915  51.194  0.00  0.00    +0.000 C 
ATOM     25  C   UNL     1      -9.563  51.210  49.100  0.00  0.00    +0.000 C 
ENDBRANCH   7  22
BRANCH   5  26
ATOM     26  C   UNL     1      -8.711  52.802  53.538  0.00  0.00    +0.000 C 
BRANCH  26  27
ATOM     27  C   UNL     1      -7.302  53.375  53.610  0.00  0.00    +0.000 A 
ATOM     28  N   UNL     1      -7.186  54.619  54.147  0.00  0.00    +0.000 NA
ATOM     29  C   UNL     1      -6.178  52.655  53.203  0.00  0.00    +0.000 A 
ATOM     30  C   UNL     1      -5.943  55.142  54.265  0.00  0.00    +0.000 A 
ATOM     31  C   UNL     1      -4.911  53.216  53.335  0.00  0.00    +0.000 A 
ATOM     32  C   UNL     1      -4.787  54.486  53.882  0.00  0.00    +0.000 A 
ENDBRANCH  26  27
ENDBRANCH   5  26
TORSDOF 4
ENDMDL
MODEL 9
REMARK VINA RESULT:      -7.5      3.035      7.857
REMARK  Name = 
REMARK  7 active torsions:
REMARK  status: ('A' for Active; 'I' for Inactive)
REMARK    1  A    between atoms: C_6  and  C_10
REMARK    2  A    between atoms: N_17  and  C_20
REMARK    3  A    between atoms: C_19  and  C_21
REMARK    4  A    between atoms: C_20  and  C_22
REMARK    5  A    between atoms: C_21  and  C_23
REMARK    6  A    between atoms: C_21  and  C_24
REMARK    7  A    between atoms: C_21  and  C_25
REMARK                            x       y       z     vdW  Elec       q    Type
REMARK                         _______ _______ _______ _____ _____    ______ ____
ROOT
ATOM      1  C   UNL     1     -10.112  54.650  48.709  0.00  0.00    +0.000 C 
ATOM      2  C   UNL     1     -11.497  54.571  49.177  0.00  0.00    +0.000 C 
ATOM      3  C   UNL     1      -9.425  55.215  49.711  0.00  0.00    +0.000 C 
ATOM      4  O   UNL     1     -12.430  54.235  48.457  0.00  0.00    +0.000 OA
ATOM      5  N   UNL     1     -11.528  54.918  50.509  0.00  0.00    +0.000 N 
ATOM      6  O   UNL     1      -8.093  55.541  49.661  0.00  0.00    +0.000 OA
ATOM      7  C   UNL     1     -10.243  55.458  50.974  0.00  0.00    +0.000 C 
ENDROOT
BRANCH   1  13
ATOM      8  S   UNL     1      -7.864  54.161  45.567  0.00  0.00    +0.000 S 
ATOM      9  O   UNL     1      -6.766  53.284  45.927  0.00  0.00    +0.000 OA
ATOM     10  O   UNL     1      -7.636  55.304  44.704  0.00  0.00    +0.000 OA
ATOM     11  N   UNL     1      -8.541  54.706  46.938  0.00  0.00    +0.000 N 
ATOM     12  C   UNL     1      -9.040  53.152  44.739  0.00  0.00    +0.000 A 
ATOM     13  C   UNL     1      -9.640  54.170  47.381  0.00  0.00    +0.000 C 
ATOM     14  C   UNL     1     -10.176  52.777  45.443  0.00  0.00    +0.000 A 
ATOM     15  C   UNL     1      -8.824  52.760  43.414  0.00  0.00    +0.000 A 
ATOM     16  N   UNL     1     -10.383  53.199  46.751  0.00  0.00    +0.000 N 
ATOM     17  C   UNL     1     -11.125  51.982  44.793  0.00  0.00    +0.000 A 
ATOM     18  C   UNL     1      -9.780  51.972  42.779  0.00  0.00    +0.000 A 
ATOM     19  C   UNL     1     -10.931  51.586  43.466  0.00  0.00    +0.000 A 
ATOM     20  H   UNL     1      -8.120  55.443  47.436  0.00  0.00    +0.000 HD
ATOM     21  H   UNL     1     -11.109  52.773  47.260  0.00  0.00    +0.000 HD
ENDBRANCH   1  13
BRANCH   7  22
ATOM     22  C   UNL     1      -9.655  54.812  52.284  0.00  0.00    +0.000 C 
ATOM     23  C   UNL     1     -10.618  54.983  53.486  0.00  0.00    +0.000 C 
ATOM     24  C   UNL     1      -9.479  53.286  52.139  0.00  0.00    +0.000 C 
ATOM     25  C   UNL     1      -8.300  55.437  52.666  0.00  0.00    +0.000 C 
ENDBRANCH   7  22
BRANCH   5  26
ATOM     26  C   UNL     1     -12.804  55.055  51.207  0.00  0.00    +0.000 C 
BRANCH  26  27
ATOM     27  C   UNL     1     -13.330  56.479  51.317  0.00  0.00    +0.000 A 
ATOM     28  N   UNL     1     -13.380  57.192  50.160  0.00  0.00    +0.000 NA
ATOM     29  C   UNL     1     -13.789  57.019  52.520  0.00  0.00    +0.000 A 
ATOM     30  C   UNL     1     -13.882  58.448  50.214  0.00  0.00    +0.000 A 
ATOM     31  C   UNL     1     -14.299  58.314  52.547  0.00  0.00    +0.000 A 
ATOM     32  C   UNL     1     -14.352  59.046  51.370  0.00  0.00    +0.000 A 
ENDBRANCH  26  27
ENDBRANCH   5  26
TORSDOF 4
ENDMDL
