MODEL 1
REMARK VINA RESULT:      -8.1      0.000      0.000
REMARK  Name = 
REMARK  10 active torsions:
REMARK  status: ('A' for Active; 'I' for Inactive)
REMARK    1  A    between atoms: C_6  and  C_10
REMARK    2  A    between atoms: N_17  and  C_20
REMARK    3  A    between atoms: C_19  and  C_21
REMARK    4  A    between atoms: C_20  and  C_22
REMARK    5  A    between atoms: C_21  and  C_23
REMARK    6  A    between atoms: C_21  and  C_24
REMARK    7  A    between atoms: C_21  and  C_25
REMARK    8  A    between atoms: C_22  and  C_26
REMARK    9  A    between atoms: C_26  and  C_27
REMARK   10  A    between atoms: C_26  and  C_28
REMARK                            x       y       z     vdW  Elec       q    Type
REMARK                         _______ _______ _______ _____ _____    ______ ____
ROOT
ATOM      1  C   UNL     1     -10.807  55.321  47.845  0.00  0.00    +0.000 C 
ATOM      2  C   UNL     1     -12.180  55.816  47.697  0.00  0.00    +0.000 C 
ATOM      3  C   UNL     1     -10.434  55.631  49.092  0.00  0.00    +0.000 C 
ATOM      4  O   UNL     1     -12.801  55.761  46.644  0.00  0.00    +0.000 OA
ATOM      5  N   UNL     1     -12.585  56.330  48.908  0.00  0.00    +0.000 N 
ATOM      6  O   UNL     1      -9.193  55.394  49.629  0.00  0.00    +0.000 OA
ATOM      7  C   UNL     1     -11.528  56.272  49.932  0.00  0.00    +0.000 C 
ENDROOT
BRANCH   1  13
ATOM      8  S   UNL     1      -7.897  54.328  45.468  0.00  0.00    +0.000 S 
ATOM      9  O   UNL     1      -6.946  53.528  46.203  0.00  0.00    +0.000 OA
ATOM     10  O   UNL     1      -7.426  55.322  44.513  0.00  0.00    +0.000 OA
ATOM     11  N   UNL     1      -8.855  55.084  46.534  0.00  0.00    +0.000 N 
ATOM     12  C   UNL     1      -8.879  53.199  44.546  0.00  0.00    +0.000 A 
ATOM     13  C   UNL     1     -10.044  54.625  46.774  0.00  0.00    +0.000 C 
ATOM     14  C   UNL     1     -10.156  52.934  45.009  0.00  0.00    +0.000 A 
ATOM     15  C   UNL     1      -8.369  52.609  43.390  0.00  0.00    +0.000 A 
ATOM     16  N   UNL     1     -10.650  53.561  46.149  0.00  0.00    +0.000 N 
ATOM     17  C   UNL     1     -10.959  52.056  44.274  0.00  0.00    +0.000 A 
ATOM     18  C   UNL     1      -9.171  51.728  42.671  0.00  0.00    +0.000 A 
ATOM     19  C   UNL     1     -10.469  51.454  43.108  0.00  0.00    +0.000 A 
ATOM     20  H   UNL     1      -8.536  55.891  46.998  0.00  0.00    +0.000 HD
ATOM     21  H   UNL     1     -11.489  53.220  46.533  0.00  0.00    +0.000 HD
ENDBRANCH   1  13
BRANCH   7  22
ATOM     22  C   UNL     1     -11.881  55.498  51.265  0.00  0.00    +0.000 C 
ATOM     23  C   UNL     1     -10.641  55.328  52.181  0.00  0.00    +0.000 C 
ATOM     24  C   UNL     1     -12.912  56.267  52.117  0.00  0.00    +0.000 C 
ATOM     25  C   UNL     1     -12.424  54.086  50.979  0.00  0.00    +0.000 C 
ENDBRANCH   7  22
BRANCH   5  26
ATOM     26  C   UNL     1     -13.905  56.923  49.053  0.00  0.00    +0.000 C 
BRANCH  26  27
ATOM     27  C   UNL     1     -13.942  58.423  48.768  0.00  0.00    +0.000 C 
BRANCH  27  28
ATOM     28  C   UNL     1     -13.725  59.276  50.029  0.00  0.00    +0.000 C 
ATOM     29  C   UNL     1     -13.152  60.662  49.716  0.00  0.00    +0.000 C 
ATOM     30  C   UNL     1     -15.052  59.421  50.776  0.00  0.00    +0.000 C 
ENDBRANCH  27  28
ENDBRANCH  26  27
ENDBRANCH   5  26
TORSDOF 5
ENDMDL
MODEL 2
REMARK VINA RESULT:      -7.6      3.621      6.072
REMARK  Name = 
REMARK  10 active torsions:
REMARK  status: ('A' for Active; 'I' for Inactive)
REMARK    1  A    between atoms: C_6  and  C_10
REMARK    2  A    between atoms: N_17  and  C_20
REMARK    3  A    between atoms: C_19  and  C_21
REMARK    4  A    between atoms: C_20  and  C_22
REMARK    5  A    between atoms: C_21  and  C_23
REMARK    6  A    between atoms: C_21  and  C_24
REMARK    7  A    between atoms: C_21  and  C_25
REMARK    8  A    between atoms: C_22  and  C_26
REMARK    9  A    between atoms: C_26  and  C_27
REMARK   10  A    between atoms: C_26  and  C_28
REMARK                            x       y       z     vdW  Elec       q    Type
REMARK                         _______ _______ _______ _____ _____    ______ ____
ROOT
ATOM      1  C   UNL     1     -10.230  55.063  50.645  0.00  0.00    +0.000 C 
ATOM      2  C   UNL     1     -11.283  55.335  51.630  0.00  0.00    +0.000 C 
ATOM      3  C   UNL     1     -10.843  54.987  49.458  0.00  0.00    +0.000 C 
ATOM      4  O   UNL     1     -11.075  55.391  52.835  0.00  0.00    +0.000 OA
ATOM      5  N   UNL     1     -12.474  55.487  50.957  0.00  0.00    +0.000 N 
ATOM      6  O   UNL     1     -10.228  54.693  48.267  0.00  0.00    +0.000 OA
ATOM      7  C   UNL     1     -12.334  55.287  49.504  0.00  0.00    +0.000 C 
ENDROOT
BRANCH   1  13
ATOM      8  S   UNL     1      -6.425  54.383  50.240  0.00  0.00    +0.000 S 
ATOM      9  O   UNL     1      -5.814  55.520  49.592  0.00  0.00    +0.000 OA
ATOM     10  O   UNL     1      -6.007  53.033  49.886  0.00  0.00    +0.000 OA
ATOM     11  N   UNL     1      -8.028  54.476  50.021  0.00  0.00    +0.000 N 
ATOM     12  C   UNL     1      -6.091  54.560  51.956  0.00  0.00    +0.000 A 
ATOM     13  C   UNL     1      -8.787  54.913  50.977  0.00  0.00    +0.000 C 
ATOM     14  C   UNL     1      -7.123  54.995  52.768  0.00  0.00    +0.000 A 
ATOM     15  C   UNL     1      -4.825  54.260  52.458  0.00  0.00    +0.000 A 
ATOM     16  N   UNL     1      -8.386  55.258  52.246  0.00  0.00    +0.000 N 
ATOM     17  C   UNL     1      -6.881  55.119  54.141  0.00  0.00    +0.000 A 
ATOM     18  C   UNL     1      -4.590  54.396  53.823  0.00  0.00    +0.000 A 
ATOM     19  C   UNL     1      -5.618  54.819  54.667  0.00  0.00    +0.000 A 
ATOM     20  H   UNL     1      -8.425  54.199  49.164  0.00  0.00    +0.000 HD
ATOM     21  H   UNL     1      -9.034  55.722  52.822  0.00  0.00    +0.000 HD
ENDBRANCH   1  13
BRANCH   7  22
ATOM     22  C   UNL     1     -12.799  56.482  48.580  0.00  0.00    +0.000 C 
ATOM     23  C   UNL     1     -14.339  56.662  48.597  0.00  0.00    +0.000 C 
ATOM     24  C   UNL     1     -12.230  57.833  49.062  0.00  0.00    +0.000 C 
ATOM     25  C   UNL     1     -12.389  56.264  47.113  0.00  0.00    +0.000 C 
ENDBRANCH   7  22
BRANCH   5  26
ATOM     26  C   UNL     1     -13.707  55.737  51.686  0.00  0.00    +0.000 C 
BRANCH  26  27
ATOM     27  C   UNL     1     -13.721  57.068  52.434  0.00  0.00    +0.000 C 
BRANCH  27  28
ATOM     28  C   UNL     1     -15.072  57.796  52.335  0.00  0.00    +0.000 C 
ATOM     29  C   UNL     1     -14.980  59.114  51.560  0.00  0.00    +0.000 C 
ATOM     30  C   UNL     1     -16.095  56.874  51.669  0.00  0.00    +0.000 C 
ENDBRANCH  27  28
ENDBRANCH  26  27
ENDBRANCH   5  26
TORSDOF 5
ENDMDL
MODEL 3
REMARK VINA RESULT:      -7.4      3.053      7.892
REMARK  Name = 
REMARK  10 active torsions:
REMARK  status: ('A' for Active; 'I' for Inactive)
REMARK    1  A    between atoms: C_6  and  C_10
REMARK    2  A    between atoms: N_17  and  C_20
REMARK    3  A    between atoms: C_19  and  C_21
REMARK    4  A    between atoms: C_20  and  C_22
REMARK    5  A    between atoms: C_21  and  C_23
REMARK    6  A    between atoms: C_21  and  C_24
REMARK    7  A    between atoms: C_21  and  C_25
REMARK    8  A    between atoms: C_22  and  C_26
REMARK    9  A    between atoms: C_26  and  C_27
REMARK   10  A    between atoms: C_26  and  C_28
REMARK                            x       y       z     vdW  Elec       q    Type
REMARK                         _______ _______ _______ _____ _____    ______ ____
ROOT
ATOM      1  C   UNL     1     -11.467  56.097  48.767  0.00  0.00    +0.000 C 
ATOM      2  C   UNL     1     -10.372  55.413  49.466  0.00  0.00    +0.000 C 
ATOM      3  C   UNL     1     -11.401  55.696  47.493  0.00  0.00    +0.000 C 
ATOM      4  O   UNL     1     -10.100  55.615  50.642  0.00  0.00    +0.000 OA
ATOM      5  N   UNL     1      -9.753  54.569  48.573  0.00  0.00    +0.000 N 
ATOM      6  O   UNL     1     -12.215  56.139  46.480  0.00  0.00    +0.000 OA
ATOM      7  C   UNL     1     -10.332  54.647  47.221  0.00  0.00    +0.000 C 
ENDROOT
BRANCH   1  13
ATOM      8  S   UNL     1     -13.569  59.292  49.457  0.00  0.00    +0.000 S 
ATOM      9  O   UNL     1     -14.680  59.328  48.535  0.00  0.00    +0.000 OA
ATOM     10  O   UNL     1     -12.857  60.520  49.786  0.00  0.00    +0.000 OA
ATOM     11  N   UNL     1     -12.483  58.226  48.901  0.00  0.00    +0.000 N 
ATOM     12  C   UNL     1     -14.212  58.683  50.976  0.00  0.00    +0.000 A 
ATOM     13  C   UNL     1     -12.420  57.037  49.416  0.00  0.00    +0.000 C 
ATOM     14  C   UNL     1     -13.935  57.370  51.308  0.00  0.00    +0.000 A 
ATOM     15  C   UNL     1     -14.966  59.517  51.801  0.00  0.00    +0.000 A 
ATOM     16  N   UNL     1     -13.153  56.569  50.481  0.00  0.00    +0.000 N 
ATOM     17  C   UNL     1     -14.419  56.877  52.525  0.00  0.00    +0.000 A 
ATOM     18  C   UNL     1     -15.453  59.015  53.004  0.00  0.00    +0.000 A 
ATOM     19  C   UNL     1     -15.175  57.697  53.371  0.00  0.00    +0.000 A 
ATOM     20  H   UNL     1     -11.870  58.481  48.174  0.00  0.00    +0.000 HD
ATOM     21  H   UNL     1     -13.123  55.604  50.670  0.00  0.00    +0.000 HD
ENDBRANCH   1  13
BRANCH   7  22
ATOM     22  C   UNL     1     -10.872  53.294  46.606  0.00  0.00    +0.000 C 
ATOM     23  C   UNL     1     -11.407  53.487  45.164  0.00  0.00    +0.000 C 
ATOM     24  C   UNL     1      -9.756  52.235  46.486  0.00  0.00    +0.000 C 
ATOM     25  C   UNL     1     -12.027  52.709  47.438  0.00  0.00    +0.000 C 
ENDBRANCH   7  22
BRANCH   5  26
ATOM     26  C   UNL     1      -8.604  53.777  48.982  0.00  0.00    +0.000 C 
BRANCH  26  27
ATOM     27  C   UNL     1      -7.267  54.334  48.499  0.00  0.00    +0.000 C 
BRANCH  27  28
ATOM     28  C   UNL     1      -6.498  55.084  49.600  0.00  0.00    +0.000 C 
ATOM     29  C   UNL     1      -6.812  54.560  51.004  0.00  0.00    +0.000 C 
ATOM     30  C   UNL     1      -4.996  54.976  49.330  0.00  0.00    +0.000 C 
ENDBRANCH  27  28
ENDBRANCH  26  27
ENDBRANCH   5  26
TORSDOF 5
ENDMDL
MODEL 4
REMARK VINA RESULT:      -7.3      3.278      7.634
REMARK  Name = 
REMARK  10 active torsions:
REMARK  status: ('A' for Active; 'I' for Inactive)
REMARK    1  A    between atoms: C_6  and  C_10
REMARK    2  A    between atoms: N_17  and  C_20
REMARK    3  A    between atoms: C_19  and  C_21
REMARK    4  A    between atoms: C_20  and  C_22
REMARK    5  A    between atoms: C_21  and  C_23
REMARK    6  A    between atoms: C_21  and  C_24
REMARK    7  A    between atoms: C_21  and  C_25
REMARK    8  A    between atoms: C_22  and  C_26
REMARK    9  A    between atoms: C_26  and  C_27
REMARK   10  A    between atoms: C_26  and  C_28
REMARK                            x       y       z     vdW  Elec       q    Type
REMARK                         _______ _______ _______ _____ _____    ______ ____
ROOT
ATOM      1  C   UNL     1     -12.400  54.386  49.937  0.00  0.00    +0.000 C 
ATOM      2  C   UNL     1     -12.073  54.117  48.532  0.00  0.00    +0.000 C 
ATOM      3  C   UNL     1     -11.986  53.316  50.625  0.00  0.00    +0.000 C 
ATOM      4  O   UNL     1     -12.385  54.867  47.617  0.00  0.00    +0.000 OA
ATOM      5  N   UNL     1     -11.399  52.918  48.469  0.00  0.00    +0.000 N 
ATOM      6  O   UNL     1     -12.149  53.131  51.976  0.00  0.00    +0.000 OA
ATOM      7  C   UNL     1     -11.265  52.273  49.786  0.00  0.00    +0.000 C 
ENDROOT
BRANCH   1  13
ATOM      8  S   UNL     1     -14.371  56.837  52.220  0.00  0.00    +0.000 S 
ATOM      9  O   UNL     1     -13.502  57.285  53.283  0.00  0.00    +0.000 OA
ATOM     10  O   UNL     1     -15.768  56.534  52.501  0.00  0.00    +0.000 OA
ATOM     11  N   UNL     1     -13.708  55.522  51.544  0.00  0.00    +0.000 N 
ATOM     12  C   UNL     1     -14.386  58.125  51.023  0.00  0.00    +0.000 A 
ATOM     13  C   UNL     1     -13.065  55.625  50.423  0.00  0.00    +0.000 C 
ATOM     14  C   UNL     1     -13.642  57.938  49.872  0.00  0.00    +0.000 A 
ATOM     15  C   UNL     1     -15.133  59.280  51.248  0.00  0.00    +0.000 A 
ATOM     16  N   UNL     1     -12.930  56.761  49.660  0.00  0.00    +0.000 N 
ATOM     17  C   UNL     1     -13.662  58.943  48.899  0.00  0.00    +0.000 A 
ATOM     18  C   UNL     1     -15.139  60.279  50.279  0.00  0.00    +0.000 A 
ATOM     19  C   UNL     1     -14.409  60.111  49.101  0.00  0.00    +0.000 A 
ATOM     20  H   UNL     1     -13.794  54.646  51.983  0.00  0.00    +0.000 HD
ATOM     21  H   UNL     1     -12.287  56.741  48.915  0.00  0.00    +0.000 HD
ENDBRANCH   1  13
BRANCH   7  22
ATOM     22  C   UNL     1      -9.793  51.941  50.260  0.00  0.00    +0.000 C 
ATOM     23  C   UNL     1      -9.759  51.429  51.724  0.00  0.00    +0.000 C 
ATOM     24  C   UNL     1      -9.162  50.810  49.421  0.00  0.00    +0.000 C 
ATOM     25  C   UNL     1      -8.880  53.178  50.196  0.00  0.00    +0.000 C 
ENDBRANCH   7  22
BRANCH   5  26
ATOM     26  C   UNL     1     -10.971  52.379  47.188  0.00  0.00    +0.000 C 
BRANCH  26  27
ATOM     27  C   UNL     1      -9.727  53.056  46.619  0.00  0.00    +0.000 C 
BRANCH  27  28
ATOM     28  C   UNL     1      -9.957  53.654  45.221  0.00  0.00    +0.000 C 
ATOM     29  C   UNL     1      -8.857  53.273  44.225  0.00  0.00    +0.000 C 
ATOM     30  C   UNL     1     -11.316  53.193  44.692  0.00  0.00    +0.000 C 
ENDBRANCH  27  28
ENDBRANCH  26  27
ENDBRANCH   5  26
TORSDOF 5
ENDMDL
MODEL 5
REMARK VINA RESULT:      -7.1      3.686      6.691
REMARK  Name = 
REMARK  10 active torsions:
REMARK  status: ('A' for Active; 'I' for Inactive)
REMARK    1  A    between atoms: C_6  and  C_10
REMARK    2  A    between atoms: N_17  and  C_20
REMARK    3  A    between atoms: C_19  and  C_21
REMARK    4  A    between atoms: C_20  and  C_22
REMARK    5  A    between atoms: C_21  and  C_23
REMARK    6  A    between atoms: C_21  and  C_24
REMARK    7  A    between atoms: C_21  and  C_25
REMARK    8  A    between atoms: C_22  and  C_26
REMARK    9  A    between atoms: C_26  and  C_27
REMARK   10  A    between atoms: C_26  and  C_28
REMARK                            x       y       z     vdW  Elec       q    Type
REMARK                         _______ _______ _______ _____ _____    ______ ____
ROOT
ATOM      1  C   UNL     1     -10.708  53.993  50.555  0.00  0.00    +0.000 C 
ATOM      2  C   UNL     1     -11.595  55.136  50.806  0.00  0.00    +0.000 C 
ATOM      3  C   UNL     1     -11.037  53.528  49.345  0.00  0.00    +0.000 C 
ATOM      4  O   UNL     1     -11.610  55.752  51.863  0.00  0.00    +0.000 OA
ATOM      5  N   UNL     1     -12.361  55.341  49.681  0.00  0.00    +0.000 N 
ATOM      6  O   UNL     1     -10.484  52.424  48.744  0.00  0.00    +0.000 OA
ATOM      7  C   UNL     1     -12.096  54.349  48.625  0.00  0.00    +0.000 C 
ENDROOT
BRANCH   1  13
ATOM      8  S   UNL     1      -8.619  51.598  52.792  0.00  0.00    +0.000 S 
ATOM      9  O   UNL     1      -7.724  50.837  51.952  0.00  0.00    +0.000 OA
ATOM     10  O   UNL     1      -9.289  50.953  53.913  0.00  0.00    +0.000 OA
ATOM     11  N   UNL     1      -9.760  52.259  51.850  0.00  0.00    +0.000 N 
ATOM     12  C   UNL     1      -7.657  52.896  53.485  0.00  0.00    +0.000 A 
ATOM     13  C   UNL     1      -9.675  53.507  51.508  0.00  0.00    +0.000 C 
ATOM     14  C   UNL     1      -7.815  54.164  52.955  0.00  0.00    +0.000 A 
ATOM     15  C   UNL     1      -6.777  52.631  54.534  0.00  0.00    +0.000 A 
ATOM     16  N   UNL     1      -8.722  54.405  51.929  0.00  0.00    +0.000 N 
ATOM     17  C   UNL     1      -7.073  55.212  53.511  0.00  0.00    +0.000 A 
ATOM     18  C   UNL     1      -6.036  53.678  55.074  0.00  0.00    +0.000 A 
ATOM     19  C   UNL     1      -6.187  54.970  54.568  0.00  0.00    +0.000 A 
ATOM     20  H   UNL     1     -10.518  51.714  51.538  0.00  0.00    +0.000 HD
ATOM     21  H   UNL     1      -8.680  55.276  51.474  0.00  0.00    +0.000 HD
ENDBRANCH   1  13
BRANCH   7  22
ATOM     22  C   UNL     1     -11.652  54.918  47.219  0.00  0.00    +0.000 C 
ATOM     23  C   UNL     1     -12.522  56.125  46.782  0.00  0.00    +0.000 C 
ATOM     24  C   UNL     1     -10.204  55.453  47.249  0.00  0.00    +0.000 C 
ATOM     25  C   UNL     1     -11.767  53.857  46.110  0.00  0.00    +0.000 C 
ENDBRANCH   7  22
BRANCH   5  26
ATOM     26  C   UNL     1     -13.360  56.398  49.651  0.00  0.00    +0.000 C 
BRANCH  26  27
ATOM     27  C   UNL     1     -14.660  56.037  50.365  0.00  0.00    +0.000 C 
BRANCH  27  28
ATOM     28  C   UNL     1     -15.317  57.244  51.056  0.00  0.00    +0.000 C 
ATOM     29  C   UNL     1     -15.527  57.025  52.557  0.00  0.00    +0.000 C 
ATOM     30  C   UNL     1     -14.456  58.487  50.829  0.00  0.00    +0.000 C 
ENDBRANCH  27  28
ENDBRANCH  26  27
ENDBRANCH   5  26
TORSDOF 5
ENDMDL
MODEL 6
REMARK VINA RESULT:      -7.1      2.902      7.524
REMARK  Name = 
REMARK  10 active torsions:
REMARK  status: ('A' for Active; 'I' for Inactive)
REMARK    1  A    between atoms: C_6  and  C_10
REMARK    2  A    between atoms: N_17  and  C_20
REMARK    3  A    between atoms: C_19  and  C_21
REMARK    4  A    between atoms: C_20  and  C_22
REMARK    5  A    between atoms: C_21  and  C_23
REMARK    6  A    between atoms: C_21  and  C_24
REMARK    7  A    between atoms: C_21  and  C_25
REMARK    8  A    between atoms: C_22  and  C_26
REMARK    9  A    between atoms: C_26  and  C_27
REMARK   10  A    between atoms: C_26  and  C_28
REMARK                            x       y       z     vdW  Elec       q    Type
REMARK                         _______ _______ _______ _____ _____    ______ ____
ROOT
ATOM      1  C   UNL     1     -12.468  54.801  49.061  0.00  0.00    +0.000 C 
ATOM      2  C   UNL     1     -12.191  54.538  47.645  0.00  0.00    +0.000 C 
ATOM      3  C   UNL     1     -12.077  53.706  49.724  0.00  0.00    +0.000 C 
ATOM      4  O   UNL     1     -12.499  55.312  46.748  0.00  0.00    +0.000 OA
ATOM      5  N   UNL     1     -11.568  53.315  47.547  0.00  0.00    +0.000 N 
ATOM      6  O   UNL     1     -12.209  53.510  51.077  0.00  0.00    +0.000 OA
ATOM      7  C   UNL     1     -11.421  52.647  48.852  0.00  0.00    +0.000 C 
ENDROOT
BRANCH   1  13
ATOM      8  S   UNL     1     -13.437  58.553  49.360  0.00  0.00    +0.000 S 
ATOM      9  O   UNL     1     -14.481  58.842  48.405  0.00  0.00    +0.000 OA
ATOM     10  O   UNL     1     -12.370  59.518  49.586  0.00  0.00    +0.000 OA
ATOM     11  N   UNL     1     -12.750  57.144  48.948  0.00  0.00    +0.000 N 
ATOM     12  C   UNL     1     -14.237  58.344  50.911  0.00  0.00    +0.000 A 
ATOM     13  C   UNL     1     -13.069  56.059  49.582  0.00  0.00    +0.000 C 
ATOM     14  C   UNL     1     -14.393  57.052  51.383  0.00  0.00    +0.000 A 
ATOM     15  C   UNL     1     -14.683  59.456  51.624  0.00  0.00    +0.000 A 
ATOM     16  N   UNL     1     -13.910  55.963  50.665  0.00  0.00    +0.000 N 
ATOM     17  C   UNL     1     -15.006  56.870  52.627  0.00  0.00    +0.000 A 
ATOM     18  C   UNL     1     -15.302  59.264  52.856  0.00  0.00    +0.000 A 
ATOM     19  C   UNL     1     -15.459  57.973  53.362  0.00  0.00    +0.000 A 
ATOM     20  H   UNL     1     -12.090  57.113  48.219  0.00  0.00    +0.000 HD
ATOM     21  H   UNL     1     -14.190  55.064  50.951  0.00  0.00    +0.000 HD
ENDBRANCH   1  13
BRANCH   7  22
ATOM     22  C   UNL     1      -9.951  52.252  49.280  0.00  0.00    +0.000 C 
ATOM     23  C   UNL     1      -9.028  53.493  49.393  0.00  0.00    +0.000 C 
ATOM     24  C   UNL     1      -9.919  51.594  50.675  0.00  0.00    +0.000 C 
ATOM     25  C   UNL     1      -9.297  51.298  48.264  0.00  0.00    +0.000 C 
ENDBRANCH   7  22
BRANCH   5  26
ATOM     26  C   UNL     1     -11.198  52.777  46.248  0.00  0.00    +0.000 C 
BRANCH  26  27
ATOM     27  C   UNL     1     -10.515  53.791  45.332  0.00  0.00    +0.000 C 
BRANCH  27  28
ATOM     28  C   UNL     1      -8.992  53.849  45.536  0.00  0.00    +0.000 C 
ATOM     29  C   UNL     1      -8.213  53.698  44.226  0.00  0.00    +0.000 C 
ATOM     30  C   UNL     1      -8.623  55.173  46.208  0.00  0.00    +0.000 C 
ENDBRANCH  27  28
ENDBRANCH  26  27
ENDBRANCH   5  26
TORSDOF 5
ENDMDL
MODEL 7
REMARK VINA RESULT:      -7.0      2.942      7.680
REMARK  Name = 
REMARK  10 active torsions:
REMARK  status: ('A' for Active; 'I' for Inactive)
REMARK    1  A    between atoms: C_6  and  C_10
REMARK    2  A    between atoms: N_17  and  C_20
REMARK    3  A    between atoms: C_19  and  C_21
REMARK    4  A    between atoms: C_20  and  C_22
REMARK    5  A    between atoms: C_21  and  C_23
REMARK    6  A    between atoms: C_21  and  C_24
REMARK    7  A    between atoms: C_21  and  C_25
REMARK    8  A    between atoms: C_22  and  C_26
REMARK    9  A    between atoms: C_26  and  C_27
REMARK   10  A    between atoms: C_26  and  C_28
REMARK                            x       y       z     vdW  Elec       q    Type
REMARK                         _______ _______ _______ _____ _____    ______ ____
ROOT
ATOM      1  C   UNL     1     -10.886  55.031  50.622  0.00  0.00    +0.000 C 
ATOM      2  C   UNL     1     -10.336  54.354  49.443  0.00  0.00    +0.000 C 
ATOM      3  C   UNL     1     -10.148  54.624  51.661  0.00  0.00    +0.000 C 
ATOM      4  O   UNL     1     -10.829  54.448  48.326  0.00  0.00    +0.000 OA
ATOM      5  N   UNL     1      -9.233  53.631  49.836  0.00  0.00    +0.000 N 
ATOM      6  O   UNL     1     -10.360  54.978  52.971  0.00  0.00    +0.000 OA
ATOM      7  C   UNL     1      -8.984  53.719  51.286  0.00  0.00    +0.000 C 
ENDROOT
BRANCH   1  13
ATOM      8  S   UNL     1     -13.620  57.438  49.267  0.00  0.00    +0.000 S 
ATOM      9  O   UNL     1     -14.667  56.656  48.653  0.00  0.00    +0.000 OA
ATOM     10  O   UNL     1     -13.188  58.685  48.652  0.00  0.00    +0.000 OA
ATOM     11  N   UNL     1     -12.315  56.493  49.437  0.00  0.00    +0.000 N 
ATOM     12  C   UNL     1     -14.204  57.865  50.869  0.00  0.00    +0.000 A 
ATOM     13  C   UNL     1     -12.041  55.969  50.591  0.00  0.00    +0.000 C 
ATOM     14  C   UNL     1     -13.685  57.170  51.947  0.00  0.00    +0.000 A 
ATOM     15  C   UNL     1     -15.151  58.877  51.022  0.00  0.00    +0.000 A 
ATOM     16  N   UNL     1     -12.718  56.186  51.768  0.00  0.00    +0.000 N 
ATOM     17  C   UNL     1     -14.122  57.514  53.231  0.00  0.00    +0.000 A 
ATOM     18  C   UNL     1     -15.588  59.206  52.302  0.00  0.00    +0.000 A 
ATOM     19  C   UNL     1     -15.070  58.529  53.409  0.00  0.00    +0.000 A 
ATOM     20  H   UNL     1     -11.730  56.318  48.665  0.00  0.00    +0.000 HD
ATOM     21  H   UNL     1     -12.504  55.607  52.534  0.00  0.00    +0.000 HD
ENDBRANCH   1  13
BRANCH   7  22
ATOM     22  C   UNL     1      -7.562  54.250  51.726  0.00  0.00    +0.000 C 
ATOM     23  C   UNL     1      -7.481  54.489  53.256  0.00  0.00    +0.000 C 
ATOM     24  C   UNL     1      -6.448  53.228  51.416  0.00  0.00    +0.000 C 
ATOM     25  C   UNL     1      -7.216  55.587  51.044  0.00  0.00    +0.000 C 
ENDBRANCH   7  22
BRANCH   5  26
ATOM     26  C   UNL     1      -8.495  52.828  48.874  0.00  0.00    +0.000 C 
BRANCH  26  27
ATOM     27  C   UNL     1      -7.534  53.636  48.006  0.00  0.00    +0.000 C 
BRANCH  27  28
ATOM     28  C   UNL     1      -7.822  53.494  46.502  0.00  0.00    +0.000 C 
ATOM     29  C   UNL     1      -8.888  52.436  46.201  0.00  0.00    +0.000 C 
ATOM     30  C   UNL     1      -8.262  54.847  45.941  0.00  0.00    +0.000 C 
ENDBRANCH  27  28
ENDBRANCH  26  27
ENDBRANCH   5  26
TORSDOF 5
ENDMDL
MODEL 8
REMARK VINA RESULT:      -7.0      2.837      7.899
REMARK  Name = 
REMARK  10 active torsions:
REMARK  status: ('A' for Active; 'I' for Inactive)
REMARK    1  A    between atoms: C_6  and  C_10
REMARK    2  A    between atoms: N_17  and  C_20
REMARK    3  A    between atoms: C_19  and  C_21
REMARK    4  A    between atoms: C_20  and  C_22
REMARK    5  A    between atoms: C_21  and  C_23
REMARK    6  A    between atoms: C_21  and  C_24
REMARK    7  A    between atoms: C_21  and  C_25
REMARK    8  A    between atoms: C_22  and  C_26
REMARK    9  A    between atoms: C_26  and  C_27
REMARK   10  A    between atoms: C_26  and  C_28
REMARK                            x       y       z     vdW  Elec       q    Type
REMARK                         _______ _______ _______ _____ _____    ______ ____
ROOT
ATOM      1  C   UNL     1     -10.246  55.123  47.902  0.00  0.00    +0.000 C 
ATOM      2  C   UNL     1      -8.788  54.971  47.948  0.00  0.00    +0.000 C 
ATOM      3  C   UNL     1     -10.602  54.894  46.632  0.00  0.00    +0.000 C 
ATOM      4  O   UNL     1      -8.124  55.187  48.953  0.00  0.00    +0.000 OA
ATOM      5  N   UNL     1      -8.356  54.576  46.702  0.00  0.00    +0.000 N 
ATOM      6  O   UNL     1     -11.880  54.986  46.140  0.00  0.00    +0.000 OA
ATOM      7  C   UNL     1      -9.454  54.479  45.725  0.00  0.00    +0.000 C 
ENDROOT
BRANCH   1  13
ATOM      8  S   UNL     1     -11.824  54.991  51.451  0.00  0.00    +0.000 S 
ATOM      9  O   UNL     1     -10.874  55.517  52.403  0.00  0.00    +0.000 OA
ATOM     10  O   UNL     1     -12.632  53.829  51.796  0.00  0.00    +0.000 OA
ATOM     11  N   UNL     1     -11.030  54.650  50.080  0.00  0.00    +0.000 N 
ATOM     12  C   UNL     1     -12.960  56.291  51.122  0.00  0.00    +0.000 A 
ATOM     13  C   UNL     1     -11.093  55.467  49.075  0.00  0.00    +0.000 C 
ATOM     14  C   UNL     1     -12.829  56.968  49.923  0.00  0.00    +0.000 A 
ATOM     15  C   UNL     1     -13.952  56.605  52.050  0.00  0.00    +0.000 A 
ATOM     16  N   UNL     1     -11.849  56.613  49.001  0.00  0.00    +0.000 N 
ATOM     17  C   UNL     1     -13.740  57.990  49.635  0.00  0.00    +0.000 A 
ATOM     18  C   UNL     1     -14.848  57.630  51.761  0.00  0.00    +0.000 A 
ATOM     19  C   UNL     1     -14.747  58.320  50.551  0.00  0.00    +0.000 A 
ATOM     20  H   UNL     1     -10.502  53.822  50.009  0.00  0.00    +0.000 HD
ATOM     21  H   UNL     1     -11.686  57.223  48.247  0.00  0.00    +0.000 HD
ENDBRANCH   1  13
BRANCH   7  22
ATOM     22  C   UNL     1      -9.642  53.080  45.014  0.00  0.00    +0.000 C 
ATOM     23  C   UNL     1     -10.972  53.008  44.220  0.00  0.00    +0.000 C 
ATOM     24  C   UNL     1      -8.535  52.814  43.972  0.00  0.00    +0.000 C 
ATOM     25  C   UNL     1      -9.662  51.922  46.027  0.00  0.00    +0.000 C 
ENDBRANCH   7  22
BRANCH   5  26
ATOM     26  C   UNL     1      -6.939  54.375  46.442  0.00  0.00    +0.000 C 
BRANCH  26  27
ATOM     27  C   UNL     1      -6.359  53.134  47.116  0.00  0.00    +0.000 C 
BRANCH  27  28
ATOM     28  C   UNL     1      -5.157  53.451  48.021  0.00  0.00    +0.000 C 
ATOM     29  C   UNL     1      -5.376  53.015  49.472  0.00  0.00    +0.000 C 
ATOM     30  C   UNL     1      -3.908  52.771  47.458  0.00  0.00    +0.000 C 
ENDBRANCH  27  28
ENDBRANCH  26  27
ENDBRANCH   5  26
TORSDOF 5
ENDMDL
MODEL 9
REMARK VINA RESULT:      -6.9      3.743      6.675
REMARK  Name = 
REMARK  10 active torsions:
REMARK  status: ('A' for Active; 'I' for Inactive)
REMARK    1  A    between atoms: C_6  and  C_10
REMARK    2  A    between atoms: N_17  and  C_20
REMARK    3  A    between atoms: C_19  and  C_21
REMARK    4  A    between atoms: C_20  and  C_22
REMARK    5  A    between atoms: C_21  and  C_23
REMARK    6  A    between atoms: C_21  and  C_24
REMARK    7  A    between atoms: C_21  and  C_25
REMARK    8  A    between atoms: C_22  and  C_26
REMARK    9  A    between atoms: C_26  and  C_27
REMARK   10  A    between atoms: C_26  and  C_28
REMARK                            x       y       z     vdW  Elec       q    Type
REMARK                         _______ _______ _______ _____ _____    ______ ____
ROOT
ATOM      1  C   UNL     1     -10.795  54.004  50.999  0.00  0.00    +0.000 C 
ATOM      2  C   UNL     1     -11.664  55.153  51.276  0.00  0.00    +0.000 C 
ATOM      3  C   UNL     1     -11.117  53.584  49.770  0.00  0.00    +0.000 C 
ATOM      4  O   UNL     1     -11.682  55.735  52.353  0.00  0.00    +0.000 OA
ATOM      5  N   UNL     1     -12.413  55.409  50.150  0.00  0.00    +0.000 N 
ATOM      6  O   UNL     1     -10.576  52.491  49.140  0.00  0.00    +0.000 OA
ATOM      7  C   UNL     1     -12.152  54.447  49.065  0.00  0.00    +0.000 C 
ENDROOT
BRANCH   1  13
ATOM      8  S   UNL     1      -7.356  53.151  52.597  0.00  0.00    +0.000 S 
ATOM      9  O   UNL     1      -6.825  54.340  53.222  0.00  0.00    +0.000 OA
ATOM     10  O   UNL     1      -6.470  52.254  51.870  0.00  0.00    +0.000 OA
ATOM     11  N   UNL     1      -8.543  53.597  51.587  0.00  0.00    +0.000 N 
ATOM     12  C   UNL     1      -8.063  52.193  53.890  0.00  0.00    +0.000 A 
ATOM     13  C   UNL     1      -9.782  53.469  51.948  0.00  0.00    +0.000 C 
ATOM     14  C   UNL     1      -9.441  52.191  54.007  0.00  0.00    +0.000 A 
ATOM     15  C   UNL     1      -7.242  51.464  54.749  0.00  0.00    +0.000 A 
ATOM     16  N   UNL     1     -10.238  52.904  53.116  0.00  0.00    +0.000 N 
ATOM     17  C   UNL     1     -10.021  51.415  55.015  0.00  0.00    +0.000 A 
ATOM     18  C   UNL     1      -7.826  50.702  55.757  0.00  0.00    +0.000 A 
ATOM     19  C   UNL     1      -9.216  50.671  55.888  0.00  0.00    +0.000 A 
ATOM     20  H   UNL     1      -8.324  53.964  50.701  0.00  0.00    +0.000 HD
ATOM     21  H   UNL     1     -11.191  53.010  53.336  0.00  0.00    +0.000 HD
ENDBRANCH   1  13
BRANCH   7  22
ATOM     22  C   UNL     1     -11.680  55.053  47.684  0.00  0.00    +0.000 C 
ATOM     23  C   UNL     1     -11.701  53.996  46.550  0.00  0.00    +0.000 C 
ATOM     24  C   UNL     1     -12.619  56.180  47.203  0.00  0.00    +0.000 C 
ATOM     25  C   UNL     1     -10.244  55.600  47.761  0.00  0.00    +0.000 C 
ENDBRANCH   7  22
BRANCH   5  26
ATOM     26  C   UNL     1     -13.392  56.484  50.143  0.00  0.00    +0.000 C 
BRANCH  26  27
ATOM     27  C   UNL     1     -14.705  56.126  50.835  0.00  0.00    +0.000 C 
BRANCH  27  28
ATOM     28  C   UNL     1     -15.399  57.345  51.467  0.00  0.00    +0.000 C 
ATOM     29  C   UNL     1     -15.123  57.472  52.968  0.00  0.00    +0.000 C 
ATOM     30  C   UNL     1     -14.943  58.615  50.747  0.00  0.00    +0.000 C 
ENDBRANCH  27  28
ENDBRANCH  26  27
ENDBRANCH   5  26
TORSDOF 5
ENDMDL
