MODEL 1
REMARK VINA RESULT:      -8.0      0.000      0.000
REMARK  Name = 
REMARK  11 active torsions:
REMARK  status: ('A' for Active; 'I' for Inactive)
REMARK    1  A    between atoms: C_6  and  C_10
REMARK    2  A    between atoms: N_17  and  C_20
REMARK    3  A    between atoms: C_19  and  C_21
REMARK    4  A    between atoms: C_20  and  C_22
REMARK    5  A    between atoms: C_21  and  C_23
REMARK    6  A    between atoms: C_21  and  C_24
REMARK    7  A    between atoms: C_21  and  C_25
REMARK    8  A    between atoms: C_22  and  C_26
REMARK    9  A    between atoms: C_26  and  C_27
REMARK   10  A    between atoms: C_26  and  C_28
REMARK   11  A    between atoms: C_26  and  C_29
REMARK                            x       y       z     vdW  Elec       q    Type
REMARK                         _______ _______ _______ _____ _____    ______ ____
ROOT
ATOM      1  C   UNL     1     -10.815  55.395  47.939  0.00  0.00    +0.000 C 
ATOM      2  C   UNL     1     -12.161  55.948  47.787  0.00  0.00    +0.000 C 
ATOM      3  C   UNL     1     -10.437  55.687  49.192  0.00  0.00    +0.000 C 
ATOM      4  O   UNL     1     -12.787  55.903  46.737  0.00  0.00    +0.000 OA
ATOM      5  N   UNL     1     -12.540  56.509  48.988  0.00  0.00    +0.000 N 
ATOM      6  O   UNL     1      -9.204  55.409  49.728  0.00  0.00    +0.000 OA
ATOM      7  C   UNL     1     -11.511  56.374  50.031  0.00  0.00    +0.000 C 
ENDROOT
BRANCH   1  13
ATOM      8  S   UNL     1      -7.949  54.333  45.525  0.00  0.00    +0.000 S 
ATOM      9  O   UNL     1      -7.003  53.506  46.247  0.00  0.00    +0.000 OA
ATOM     10  O   UNL     1      -7.479  55.320  44.572  0.00  0.00    +0.000 OA
ATOM     11  N   UNL     1      -8.878  55.102  46.611  0.00  0.00    +0.000 N 
ATOM     12  C   UNL     1      -8.967  53.224  44.615  0.00  0.00    +0.000 A 
ATOM     13  C   UNL     1     -10.081  54.680  46.860  0.00  0.00    +0.000 C 
ATOM     14  C   UNL     1     -10.248  52.992  45.091  0.00  0.00    +0.000 A 
ATOM     15  C   UNL     1      -8.479  52.613  43.459  0.00  0.00    +0.000 A 
ATOM     16  N   UNL     1     -10.723  53.639  46.225  0.00  0.00    +0.000 N 
ATOM     17  C   UNL     1     -11.065  52.106  44.379  0.00  0.00    +0.000 A 
ATOM     18  C   UNL     1      -9.304  51.739  42.757  0.00  0.00    +0.000 A 
ATOM     19  C   UNL     1     -10.597  51.486  43.216  0.00  0.00    +0.000 A 
ATOM     20  H   UNL     1      -8.528  55.892  47.082  0.00  0.00    +0.000 HD
ATOM     21  H   UNL     1     -11.580  53.332  46.601  0.00  0.00    +0.000 HD
ENDBRANCH   1  13
BRANCH   7  22
ATOM     22  C   UNL     1     -11.924  55.588  51.339  0.00  0.00    +0.000 C 
ATOM     23  C   UNL     1     -12.507  54.195  50.991  0.00  0.00    +0.000 C 
ATOM     24  C   UNL     1     -10.717  55.277  52.251  0.00  0.00    +0.000 C 
ATOM     25  C   UNL     1     -12.972  56.362  52.160  0.00  0.00    +0.000 C 
ENDBRANCH   7  22
BRANCH   5  26
ATOM     26  C   UNL     1     -13.849  57.124  49.121  0.00  0.00    +0.000 C 
BRANCH  26  27
ATOM     27  C   UNL     1     -13.990  58.495  48.458  0.00  0.00    +0.000 C 
BRANCH  27  28
ATOM     28  C   UNL     1     -14.155  59.669  49.464  0.00  0.00    +0.000 C 
ATOM     29  C   UNL     1     -14.912  59.223  50.728  0.00  0.00    +0.000 C 
ATOM     30  C   UNL     1     -12.757  60.152  49.889  0.00  0.00    +0.000 C 
ATOM     31  C   UNL     1     -14.905  60.844  48.815  0.00  0.00    +0.000 C 
ENDBRANCH  27  28
ENDBRANCH  26  27
ENDBRANCH   5  26
TORSDOF 5
ENDMDL
MODEL 2
REMARK VINA RESULT:      -7.9      3.495      6.012
REMARK  Name = 
REMARK  11 active torsions:
REMARK  status: ('A' for Active; 'I' for Inactive)
REMARK    1  A    between atoms: C_6  and  C_10
REMARK    2  A    between atoms: N_17  and  C_20
REMARK    3  A    between atoms: C_19  and  C_21
REMARK    4  A    between atoms: C_20  and  C_22
REMARK    5  A    between atoms: C_21  and  C_23
REMARK    6  A    between atoms: C_21  and  C_24
REMARK    7  A    between atoms: C_21  and  C_25
REMARK    8  A    between atoms: C_22  and  C_26
REMARK    9  A    between atoms: C_26  and  C_27
REMARK   10  A    between atoms: C_26  and  C_28
REMARK   11  A    between atoms: C_26  and  C_29
REMARK                            x       y       z     vdW  Elec       q    Type
REMARK                         _______ _______ _______ _____ _____    ______ ____
ROOT
ATOM      1  C   UNL     1     -10.102  54.984  50.558  0.00  0.00    +0.000 C 
ATOM      2  C   UNL     1     -11.152  55.247  51.542  0.00  0.00    +0.000 C 
ATOM      3  C   UNL     1     -10.720  54.907  49.371  0.00  0.00    +0.000 C 
ATOM      4  O   UNL     1     -10.938  55.325  52.743  0.00  0.00    +0.000 OA
ATOM      5  N   UNL     1     -12.355  55.359  50.876  0.00  0.00    +0.000 N 
ATOM      6  O   UNL     1     -10.107  54.600  48.181  0.00  0.00    +0.000 OA
ATOM      7  C   UNL     1     -12.218  55.198  49.419  0.00  0.00    +0.000 C 
ENDROOT
BRANCH   1  13
ATOM      8  S   UNL     1      -6.296  54.246  50.184  0.00  0.00    +0.000 S 
ATOM      9  O   UNL     1      -5.665  55.352  49.490  0.00  0.00    +0.000 OA
ATOM     10  O   UNL     1      -5.907  52.881  49.889  0.00  0.00    +0.000 OA
ATOM     11  N   UNL     1      -7.899  54.359  49.958  0.00  0.00    +0.000 N 
ATOM     12  C   UNL     1      -5.960  54.491  51.893  0.00  0.00    +0.000 A 
ATOM     13  C   UNL     1      -8.661  54.833  50.898  0.00  0.00    +0.000 C 
ATOM     14  C   UNL     1      -6.991  54.967  52.688  0.00  0.00    +0.000 A 
ATOM     15  C   UNL     1      -4.693  54.209  52.406  0.00  0.00    +0.000 A 
ATOM     16  N   UNL     1      -8.255  55.207  52.160  0.00  0.00    +0.000 N 
ATOM     17  C   UNL     1      -6.734  55.172  54.047  0.00  0.00    +0.000 A 
ATOM     18  C   UNL     1      -4.452  54.411  53.761  0.00  0.00    +0.000 A 
ATOM     19  C   UNL     1      -5.473  54.892  54.582  0.00  0.00    +0.000 A 
ATOM     20  H   UNL     1      -8.296  54.068  49.106  0.00  0.00    +0.000 HD
ATOM     21  H   UNL     1      -8.905  55.679  52.730  0.00  0.00    +0.000 HD
ENDBRANCH   1  13
BRANCH   7  22
ATOM     22  C   UNL     1     -12.678  56.416  48.524  0.00  0.00    +0.000 C 
ATOM     23  C   UNL     1     -12.292  56.195  47.040  0.00  0.00    +0.000 C 
ATOM     24  C   UNL     1     -14.214  56.586  48.495  0.00  0.00    +0.000 C 
ATOM     25  C   UNL     1     -12.049  57.740  48.997  0.00  0.00    +0.000 C 
ENDBRANCH   7  22
BRANCH   5  26
ATOM     26  C   UNL     1     -13.573  55.634  51.618  0.00  0.00    +0.000 C 
BRANCH  26  27
ATOM     27  C   UNL     1     -13.614  56.998  52.310  0.00  0.00    +0.000 C 
BRANCH  27  28
ATOM     28  C   UNL     1     -14.972  57.742  52.159  0.00  0.00    +0.000 C 
ATOM     29  C   UNL     1     -16.059  56.813  51.588  0.00  0.00    +0.000 C 
ATOM     30  C   UNL     1     -15.429  58.217  53.549  0.00  0.00    +0.000 C 
ATOM     31  C   UNL     1     -14.824  58.969  51.244  0.00  0.00    +0.000 C 
ENDBRANCH  27  28
ENDBRANCH  26  27
ENDBRANCH   5  26
TORSDOF 5
ENDMDL
MODEL 3
REMARK VINA RESULT:      -7.6      3.042      7.899
REMARK  Name = 
REMARK  11 active torsions:
REMARK  status: ('A' for Active; 'I' for Inactive)
REMARK    1  A    between atoms: C_6  and  C_10
REMARK    2  A    between atoms: N_17  and  C_20
REMARK    3  A    between atoms: C_19  and  C_21
REMARK    4  A    between atoms: C_20  and  C_22
REMARK    5  A    between atoms: C_21  and  C_23
REMARK    6  A    between atoms: C_21  and  C_24
REMARK    7  A    between atoms: C_21  and  C_25
REMARK    8  A    between atoms: C_22  and  C_26
REMARK    9  A    between atoms: C_26  and  C_27
REMARK   10  A    between atoms: C_26  and  C_28
REMARK   11  A    between atoms: C_26  and  C_29
REMARK                            x       y       z     vdW  Elec       q    Type
REMARK                         _______ _______ _______ _____ _____    ______ ____
ROOT
ATOM      1  C   UNL     1     -11.471  55.874  48.856  0.00  0.00    +0.000 C 
ATOM      2  C   UNL     1     -10.495  55.093  49.616  0.00  0.00    +0.000 C 
ATOM      3  C   UNL     1     -11.311  55.517  47.574  0.00  0.00    +0.000 C 
ATOM      4  O   UNL     1     -10.336  55.214  50.822  0.00  0.00    +0.000 OA
ATOM      5  N   UNL     1      -9.823  54.265  48.741  0.00  0.00    +0.000 N 
ATOM      6  O   UNL     1     -11.986  56.067  46.512  0.00  0.00    +0.000 OA
ATOM      7  C   UNL     1     -10.288  54.405  47.352  0.00  0.00    +0.000 C 
ENDROOT
BRANCH   1  13
ATOM      8  S   UNL     1     -13.506  59.146  49.423  0.00  0.00    +0.000 S 
ATOM      9  O   UNL     1     -14.618  59.180  48.493  0.00  0.00    +0.000 OA
ATOM     10  O   UNL     1     -12.760  60.355  49.713  0.00  0.00    +0.000 OA
ATOM     11  N   UNL     1     -12.450  58.028  48.904  0.00  0.00    +0.000 N 
ATOM     12  C   UNL     1     -14.174  58.606  50.957  0.00  0.00    +0.000 A 
ATOM     13  C   UNL     1     -12.407  56.858  49.466  0.00  0.00    +0.000 C 
ATOM     14  C   UNL     1     -13.925  57.296  51.340  0.00  0.00    +0.000 A 
ATOM     15  C   UNL     1     -14.924  59.482  51.744  0.00  0.00    +0.000 A 
ATOM     16  N   UNL     1     -13.146  56.453  50.556  0.00  0.00    +0.000 N 
ATOM     17  C   UNL     1     -14.456  56.853  52.556  0.00  0.00    +0.000 A 
ATOM     18  C   UNL     1     -15.441  59.030  52.954  0.00  0.00    +0.000 A 
ATOM     19  C   UNL     1     -15.207  57.715  53.360  0.00  0.00    +0.000 A 
ATOM     20  H   UNL     1     -11.839  58.239  48.162  0.00  0.00    +0.000 HD
ATOM     21  H   UNL     1     -13.121  55.499  50.798  0.00  0.00    +0.000 HD
ENDBRANCH   1  13
BRANCH   7  22
ATOM     22  C   UNL     1     -10.871  53.107  46.664  0.00  0.00    +0.000 C 
ATOM     23  C   UNL     1     -11.315  53.399  45.208  0.00  0.00    +0.000 C 
ATOM     24  C   UNL     1      -9.817  51.987  46.521  0.00  0.00    +0.000 C 
ATOM     25  C   UNL     1     -12.080  52.547  47.436  0.00  0.00    +0.000 C 
ENDBRANCH   7  22
BRANCH   5  26
ATOM     26  C   UNL     1      -8.797  53.365  49.237  0.00  0.00    +0.000 C 
BRANCH  26  27
ATOM     27  C   UNL     1      -7.360  53.792  48.934  0.00  0.00    +0.000 C 
BRANCH  27  28
ATOM     28  C   UNL     1      -6.629  54.447  50.141  0.00  0.00    +0.000 C 
ATOM     29  C   UNL     1      -6.924  55.956  50.224  0.00  0.00    +0.000 C 
ATOM     30  C   UNL     1      -7.133  53.788  51.437  0.00  0.00    +0.000 C 
ATOM     31  C   UNL     1      -5.109  54.234  50.040  0.00  0.00    +0.000 C 
ENDBRANCH  27  28
ENDBRANCH  26  27
ENDBRANCH   5  26
TORSDOF 5
ENDMDL
MODEL 4
REMARK VINA RESULT:      -7.5      3.632      6.521
REMARK  Name = 
REMARK  11 active torsions:
REMARK  status: ('A' for Active; 'I' for Inactive)
REMARK    1  A    between atoms: C_6  and  C_10
REMARK    2  A    between atoms: N_17  and  C_20
REMARK    3  A    between atoms: C_19  and  C_21
REMARK    4  A    between atoms: C_20  and  C_22
REMARK    5  A    between atoms: C_21  and  C_23
REMARK    6  A    between atoms: C_21  and  C_24
REMARK    7  A    between atoms: C_21  and  C_25
REMARK    8  A    between atoms: C_22  and  C_26
REMARK    9  A    between atoms: C_26  and  C_27
REMARK   10  A    between atoms: C_26  and  C_28
REMARK   11  A    between atoms: C_26  and  C_29
REMARK                            x       y       z     vdW  Elec       q    Type
REMARK                         _______ _______ _______ _____ _____    ______ ____
ROOT
ATOM      1  C   UNL     1     -10.713  53.747  50.485  0.00  0.00    +0.000 C 
ATOM      2  C   UNL     1     -11.781  54.673  50.865  0.00  0.00    +0.000 C 
ATOM      3  C   UNL     1     -10.937  53.433  49.201  0.00  0.00    +0.000 C 
ATOM      4  O   UNL     1     -11.907  55.120  51.995  0.00  0.00    +0.000 OA
ATOM      5  N   UNL     1     -12.572  54.902  49.758  0.00  0.00    +0.000 N 
ATOM      6  O   UNL     1     -10.203  52.531  48.471  0.00  0.00    +0.000 OA
ATOM      7  C   UNL     1     -12.108  54.177  48.564  0.00  0.00    +0.000 C 
ENDROOT
BRANCH   1  13
ATOM      8  S   UNL     1      -8.370  51.386  52.511  0.00  0.00    +0.000 S 
ATOM      9  O   UNL     1      -7.365  50.838  51.621  0.00  0.00    +0.000 OA
ATOM     10  O   UNL     1      -8.981  50.550  53.526  0.00  0.00    +0.000 OA
ATOM     11  N   UNL     1      -9.563  52.006  51.602  0.00  0.00    +0.000 N 
ATOM     12  C   UNL     1      -7.588  52.705  53.372  0.00  0.00    +0.000 A 
ATOM     13  C   UNL     1      -9.641  53.288  51.409  0.00  0.00    +0.000 C 
ATOM     14  C   UNL     1      -7.901  53.999  52.983  0.00  0.00    +0.000 A 
ATOM     15  C   UNL     1      -6.691  52.434  54.405  0.00  0.00    +0.000 A 
ATOM     16  N   UNL     1      -8.825  54.244  51.975  0.00  0.00    +0.000 N 
ATOM     17  C   UNL     1      -7.280  55.057  53.656  0.00  0.00    +0.000 A 
ATOM     18  C   UNL     1      -6.085  53.496  55.071  0.00  0.00    +0.000 A 
ATOM     19  C   UNL     1      -6.380  54.807  54.697  0.00  0.00    +0.000 A 
ATOM     20  H   UNL     1     -10.230  51.408  51.195  0.00  0.00    +0.000 HD
ATOM     21  H   UNL     1      -8.901  55.167  51.639  0.00  0.00    +0.000 HD
ENDBRANCH   1  13
BRANCH   7  22
ATOM     22  C   UNL     1     -11.723  55.053  47.307  0.00  0.00    +0.000 C 
ATOM     23  C   UNL     1     -11.780  54.215  46.005  0.00  0.00    +0.000 C 
ATOM     24  C   UNL     1     -12.720  56.207  47.059  0.00  0.00    +0.000 C 
ATOM     25  C   UNL     1     -10.309  55.648  47.440  0.00  0.00    +0.000 C 
ENDBRANCH   7  22
BRANCH   5  26
ATOM     26  C   UNL     1     -13.709  55.801  49.853  0.00  0.00    +0.000 C 
BRANCH  26  27
ATOM     27  C   UNL     1     -13.405  57.164  50.475  0.00  0.00    +0.000 C 
BRANCH  27  28
ATOM     28  C   UNL     1     -14.522  57.690  51.421  0.00  0.00    +0.000 C 
ATOM     29  C   UNL     1     -14.052  57.712  52.887  0.00  0.00    +0.000 C 
ATOM     30  C   UNL     1     -14.877  59.130  51.010  0.00  0.00    +0.000 C 
ATOM     31  C   UNL     1     -15.786  56.821  51.310  0.00  0.00    +0.000 C 
ENDBRANCH  27  28
ENDBRANCH  26  27
ENDBRANCH   5  26
TORSDOF 5
ENDMDL
MODEL 5
REMARK VINA RESULT:      -7.5      2.615      7.931
REMARK  Name = 
REMARK  11 active torsions:
REMARK  status: ('A' for Active; 'I' for Inactive)
REMARK    1  A    between atoms: C_6  and  C_10
REMARK    2  A    between atoms: N_17  and  C_20
REMARK    3  A    between atoms: C_19  and  C_21
REMARK    4  A    between atoms: C_20  and  C_22
REMARK    5  A    between atoms: C_21  and  C_23
REMARK    6  A    between atoms: C_21  and  C_24
REMARK    7  A    between atoms: C_21  and  C_25
REMARK    8  A    between atoms: C_22  and  C_26
REMARK    9  A    between atoms: C_26  and  C_27
REMARK   10  A    between atoms: C_26  and  C_28
REMARK   11  A    between atoms: C_26  and  C_29
REMARK                            x       y       z     vdW  Elec       q    Type
REMARK                         _______ _______ _______ _____ _____    ______ ____
ROOT
ATOM      1  C   UNL     1     -11.688  55.576  48.809  0.00  0.00    +0.000 C 
ATOM      2  C   UNL     1     -11.492  55.416  47.368  0.00  0.00    +0.000 C 
ATOM      3  C   UNL     1     -10.969  54.604  49.388  0.00  0.00    +0.000 C 
ATOM      4  O   UNL     1     -12.053  56.115  46.536  0.00  0.00    +0.000 OA
ATOM      5  N   UNL     1     -10.618  54.369  47.161  0.00  0.00    +0.000 N 
ATOM      6  O   UNL     1     -10.931  54.349  50.737  0.00  0.00    +0.000 OA
ATOM      7  C   UNL     1     -10.151  53.758  48.415  0.00  0.00    +0.000 C 
ENDROOT
BRANCH   1  13
ATOM      8  S   UNL     1     -13.479  58.988  49.374  0.00  0.00    +0.000 S 
ATOM      9  O   UNL     1     -14.596  59.095  48.456  0.00  0.00    +0.000 OA
ATOM     10  O   UNL     1     -12.645  60.142  49.647  0.00  0.00    +0.000 OA
ATOM     11  N   UNL     1     -12.511  57.795  48.852  0.00  0.00    +0.000 N 
ATOM     12  C   UNL     1     -14.166  58.507  50.920  0.00  0.00    +0.000 A 
ATOM     13  C   UNL     1     -12.544  56.628  49.422  0.00  0.00    +0.000 C 
ATOM     14  C   UNL     1     -14.006  57.186  51.309  0.00  0.00    +0.000 A 
ATOM     15  C   UNL     1     -14.842  59.439  51.708  0.00  0.00    +0.000 A 
ATOM     16  N   UNL     1     -13.298  56.284  50.523  0.00  0.00    +0.000 N 
ATOM     17  C   UNL     1     -14.553  56.789  52.534  0.00  0.00    +0.000 A 
ATOM     18  C   UNL     1     -15.376  59.033  52.927  0.00  0.00    +0.000 A 
ATOM     19  C   UNL     1     -15.232  57.708  53.340  0.00  0.00    +0.000 A 
ATOM     20  H   UNL     1     -11.895  57.957  48.102  0.00  0.00    +0.000 HD
ATOM     21  H   UNL     1     -13.338  55.332  50.771  0.00  0.00    +0.000 HD
ENDBRANCH   1  13
BRANCH   7  22
ATOM     22  C   UNL     1      -8.594  53.778  48.679  0.00  0.00    +0.000 C 
ATOM     23  C   UNL     1      -8.266  53.325  50.124  0.00  0.00    +0.000 C 
ATOM     24  C   UNL     1      -7.827  52.779  47.785  0.00  0.00    +0.000 C 
ATOM     25  C   UNL     1      -7.999  55.183  48.465  0.00  0.00    +0.000 C 
ENDBRANCH   7  22
BRANCH   5  26
ATOM     26  C   UNL     1     -10.237  54.000  45.809  0.00  0.00    +0.000 C 
BRANCH  26  27
ATOM     27  C   UNL     1     -10.699  52.611  45.364  0.00  0.00    +0.000 C 
BRANCH  27  28
ATOM     28  C   UNL     1      -9.689  51.877  44.436  0.00  0.00    +0.000 C 
ATOM     29  C   UNL     1      -8.463  52.757  44.134  0.00  0.00    +0.000 C 
ATOM     30  C   UNL     1      -9.201  50.604  45.150  0.00  0.00    +0.000 C 
ATOM     31  C   UNL     1     -10.358  51.473  43.111  0.00  0.00    +0.000 C 
ENDBRANCH  27  28
ENDBRANCH  26  27
ENDBRANCH   5  26
TORSDOF 5
ENDMDL
MODEL 6
REMARK VINA RESULT:      -7.4      3.163      7.664
REMARK  Name = 
REMARK  11 active torsions:
REMARK  status: ('A' for Active; 'I' for Inactive)
REMARK    1  A    between atoms: C_6  and  C_10
REMARK    2  A    between atoms: N_17  and  C_20
REMARK    3  A    between atoms: C_19  and  C_21
REMARK    4  A    between atoms: C_20  and  C_22
REMARK    5  A    between atoms: C_21  and  C_23
REMARK    6  A    between atoms: C_21  and  C_24
REMARK    7  A    between atoms: C_21  and  C_25
REMARK    8  A    between atoms: C_22  and  C_26
REMARK    9  A    between atoms: C_26  and  C_27
REMARK   10  A    between atoms: C_26  and  C_28
REMARK   11  A    between atoms: C_26  and  C_29
REMARK                            x       y       z     vdW  Elec       q    Type
REMARK                         _______ _______ _______ _____ _____    ______ ____
ROOT
ATOM      1  C   UNL     1     -12.084  54.405  49.850  0.00  0.00    +0.000 C 
ATOM      2  C   UNL     1     -11.209  54.366  48.677  0.00  0.00    +0.000 C 
ATOM      3  C   UNL     1     -11.880  53.251  50.499  0.00  0.00    +0.000 C 
ATOM      4  O   UNL     1     -11.184  55.250  47.833  0.00  0.00    +0.000 OA
ATOM      5  N   UNL     1     -10.485  53.193  48.713  0.00  0.00    +0.000 N 
ATOM      6  O   UNL     1     -12.558  52.849  51.624  0.00  0.00    +0.000 OA
ATOM      7  C   UNL     1     -10.793  52.367  49.892  0.00  0.00    +0.000 C 
ENDROOT
BRANCH   1  13
ATOM      8  S   UNL     1     -15.191  56.367  51.140  0.00  0.00    +0.000 S 
ATOM      9  O   UNL     1     -15.129  56.454  52.587  0.00  0.00    +0.000 OA
ATOM     10  O   UNL     1     -16.457  56.124  50.477  0.00  0.00    +0.000 OA
ATOM     11  N   UNL     1     -14.155  55.213  50.661  0.00  0.00    +0.000 N 
ATOM     12  C   UNL     1     -14.613  57.914  50.537  0.00  0.00    +0.000 A 
ATOM     13  C   UNL     1     -12.996  55.536  50.171  0.00  0.00    +0.000 C 
ATOM     14  C   UNL     1     -13.331  57.959  50.011  0.00  0.00    +0.000 A 
ATOM     15  C   UNL     1     -15.434  59.041  50.595  0.00  0.00    +0.000 A 
ATOM     16  N   UNL     1     -12.545  56.816  49.932  0.00  0.00    +0.000 N 
ATOM     17  C   UNL     1     -12.857  59.186  49.534  0.00  0.00    +0.000 A 
ATOM     18  C   UNL     1     -14.954  60.254  50.111  0.00  0.00    +0.000 A 
ATOM     19  C   UNL     1     -13.665  60.326  49.579  0.00  0.00    +0.000 A 
ATOM     20  H   UNL     1     -14.406  54.265  50.741  0.00  0.00    +0.000 HD
ATOM     21  H   UNL     1     -11.597  56.929  49.688  0.00  0.00    +0.000 HD
ENDBRANCH   1  13
BRANCH   7  22
ATOM     22  C   UNL     1      -9.592  52.042  50.865  0.00  0.00    +0.000 C 
ATOM     23  C   UNL     1     -10.035  51.079  51.996  0.00  0.00    +0.000 C 
ATOM     24  C   UNL     1      -8.441  51.293  50.158  0.00  0.00    +0.000 C 
ATOM     25  C   UNL     1      -9.022  53.319  51.511  0.00  0.00    +0.000 C 
ENDBRANCH   7  22
BRANCH   5  26
ATOM     26  C   UNL     1      -9.523  52.902  47.665  0.00  0.00    +0.000 C 
BRANCH  26  27
ATOM     27  C   UNL     1     -10.071  52.089  46.491  0.00  0.00    +0.000 C 
BRANCH  27  28
ATOM     28  C   UNL     1     -10.037  52.843  45.131  0.00  0.00    +0.000 C 
ATOM     29  C   UNL     1      -9.718  51.887  43.967  0.00  0.00    +0.000 C 
ATOM     30  C   UNL     1     -11.424  53.461  44.877  0.00  0.00    +0.000 C 
ATOM     31  C   UNL     1      -8.993  53.972  45.157  0.00  0.00    +0.000 C 
ENDBRANCH  27  28
ENDBRANCH  26  27
ENDBRANCH   5  26
TORSDOF 5
ENDMDL
MODEL 7
REMARK VINA RESULT:      -7.3      3.732      8.142
REMARK  Name = 
REMARK  11 active torsions:
REMARK  status: ('A' for Active; 'I' for Inactive)
REMARK    1  A    between atoms: C_6  and  C_10
REMARK    2  A    between atoms: N_17  and  C_20
REMARK    3  A    between atoms: C_19  and  C_21
REMARK    4  A    between atoms: C_20  and  C_22
REMARK    5  A    between atoms: C_21  and  C_23
REMARK    6  A    between atoms: C_21  and  C_24
REMARK    7  A    between atoms: C_21  and  C_25
REMARK    8  A    between atoms: C_22  and  C_26
REMARK    9  A    between atoms: C_26  and  C_27
REMARK   10  A    between atoms: C_26  and  C_28
REMARK   11  A    between atoms: C_26  and  C_29
REMARK                            x       y       z     vdW  Elec       q    Type
REMARK                         _______ _______ _______ _____ _____    ______ ____
ROOT
ATOM      1  C   UNL     1     -11.040  54.738  50.828  0.00  0.00    +0.000 C 
ATOM      2  C   UNL     1     -10.199  54.521  52.006  0.00  0.00    +0.000 C 
ATOM      3  C   UNL     1     -10.603  53.875  49.900  0.00  0.00    +0.000 C 
ATOM      4  O   UNL     1     -10.296  55.185  53.028  0.00  0.00    +0.000 OA
ATOM      5  N   UNL     1      -9.320  53.494  51.731  0.00  0.00    +0.000 N 
ATOM      6  O   UNL     1     -11.075  53.796  48.613  0.00  0.00    +0.000 OA
ATOM      7  C   UNL     1      -9.499  52.936  50.381  0.00  0.00    +0.000 C 
ENDROOT
BRANCH   1  13
ATOM      8  S   UNL     1     -13.590  57.297  49.374  0.00  0.00    +0.000 S 
ATOM      9  O   UNL     1     -14.682  56.576  48.749  0.00  0.00    +0.000 OA
ATOM     10  O   UNL     1     -13.055  58.493  48.754  0.00  0.00    +0.000 OA
ATOM     11  N   UNL     1     -12.359  56.262  49.587  0.00  0.00    +0.000 N 
ATOM     12  C   UNL     1     -14.179  57.790  50.956  0.00  0.00    +0.000 A 
ATOM     13  C   UNL     1     -12.131  55.747  50.758  0.00  0.00    +0.000 C 
ATOM     14  C   UNL     1     -13.723  57.083  52.059  0.00  0.00    +0.000 A 
ATOM     15  C   UNL     1     -15.071  58.857  51.072  0.00  0.00    +0.000 A 
ATOM     16  N   UNL     1     -12.807  56.047  51.921  0.00  0.00    +0.000 N 
ATOM     17  C   UNL     1     -14.189  57.462  53.322  0.00  0.00    +0.000 A 
ATOM     18  C   UNL     1     -15.522  59.227  52.336  0.00  0.00    +0.000 A 
ATOM     19  C   UNL     1     -15.080  58.530  53.461  0.00  0.00    +0.000 A 
ATOM     20  H   UNL     1     -11.783  56.023  48.827  0.00  0.00    +0.000 HD
ATOM     21  H   UNL     1     -12.629  55.487  52.711  0.00  0.00    +0.000 HD
ENDBRANCH   1  13
BRANCH   7  22
ATOM     22  C   UNL     1      -9.859  51.401  50.289  0.00  0.00    +0.000 C 
ATOM     23  C   UNL     1     -10.077  50.965  48.817  0.00  0.00    +0.000 C 
ATOM     24  C   UNL     1      -8.713  50.491  50.787  0.00  0.00    +0.000 C 
ATOM     25  C   UNL     1     -11.132  51.066  51.088  0.00  0.00    +0.000 C 
ENDBRANCH   7  22
BRANCH   5  26
ATOM     26  C   UNL     1      -8.371  53.062  52.741  0.00  0.00    +0.000 C 
BRANCH  26  27
ATOM     27  C   UNL     1      -6.909  53.399  52.441  0.00  0.00    +0.000 C 
BRANCH  27  28
ATOM     28  C   UNL     1      -6.206  54.214  53.564  0.00  0.00    +0.000 C 
ATOM     29  C   UNL     1      -6.908  55.563  53.802  0.00  0.00    +0.000 C 
ATOM     30  C   UNL     1      -6.269  53.404  54.871  0.00  0.00    +0.000 C 
ATOM     31  C   UNL     1      -4.730  54.468  53.213  0.00  0.00    +0.000 C 
ENDBRANCH  27  28
ENDBRANCH  26  27
ENDBRANCH   5  26
TORSDOF 5
ENDMDL
MODEL 8
REMARK VINA RESULT:      -7.3      3.059      7.919
REMARK  Name = 
REMARK  11 active torsions:
REMARK  status: ('A' for Active; 'I' for Inactive)
REMARK    1  A    between atoms: C_6  and  C_10
REMARK    2  A    between atoms: N_17  and  C_20
REMARK    3  A    between atoms: C_19  and  C_21
REMARK    4  A    between atoms: C_20  and  C_22
REMARK    5  A    between atoms: C_21  and  C_23
REMARK    6  A    between atoms: C_21  and  C_24
REMARK    7  A    between atoms: C_21  and  C_25
REMARK    8  A    between atoms: C_22  and  C_26
REMARK    9  A    between atoms: C_26  and  C_27
REMARK   10  A    between atoms: C_26  and  C_28
REMARK   11  A    between atoms: C_26  and  C_29
REMARK                            x       y       z     vdW  Elec       q    Type
REMARK                         _______ _______ _______ _____ _____    ______ ____
ROOT
ATOM      1  C   UNL     1     -11.116  55.348  48.549  0.00  0.00    +0.000 C 
ATOM      2  C   UNL     1      -9.980  54.594  49.082  0.00  0.00    +0.000 C 
ATOM      3  C   UNL     1     -11.073  55.186  47.219  0.00  0.00    +0.000 C 
ATOM      4  O   UNL     1      -9.691  54.572  50.269  0.00  0.00    +0.000 OA
ATOM      5  N   UNL     1      -9.335  53.977  48.030  0.00  0.00    +0.000 N 
ATOM      6  O   UNL     1     -11.924  55.787  46.324  0.00  0.00    +0.000 OA
ATOM      7  C   UNL     1      -9.974  54.244  46.732  0.00  0.00    +0.000 C 
ENDROOT
BRANCH   1  13
ATOM      8  S   UNL     1     -13.589  56.250  51.419  0.00  0.00    +0.000 S 
ATOM      9  O   UNL     1     -12.834  56.524  52.626  0.00  0.00    +0.000 OA
ATOM     10  O   UNL     1     -14.832  55.507  51.487  0.00  0.00    +0.000 OA
ATOM     11  N   UNL     1     -12.611  55.478  50.378  0.00  0.00    +0.000 N 
ATOM     12  C   UNL     1     -13.995  57.819  50.735  0.00  0.00    +0.000 A 
ATOM     13  C   UNL     1     -12.069  56.122  49.388  0.00  0.00    +0.000 C 
ATOM     14  C   UNL     1     -13.275  58.242  49.628  0.00  0.00    +0.000 A 
ATOM     15  C   UNL     1     -15.010  58.590  51.304  0.00  0.00    +0.000 A 
ATOM     16  N   UNL     1     -12.293  57.441  49.059  0.00  0.00    +0.000 N 
ATOM     17  C   UNL     1     -13.585  59.491  49.080  0.00  0.00    +0.000 A 
ATOM     18  C   UNL     1     -15.313  59.828  50.744  0.00  0.00    +0.000 A 
ATOM     19  C   UNL     1     -14.601  60.279  49.632  0.00  0.00    +0.000 A 
ATOM     20  H   UNL     1     -12.429  54.519  50.497  0.00  0.00    +0.000 HD
ATOM     21  H   UNL     1     -11.716  57.845  48.371  0.00  0.00    +0.000 HD
ENDBRANCH   1  13
BRANCH   7  22
ATOM     22  C   UNL     1     -10.496  52.989  45.926  0.00  0.00    +0.000 C 
ATOM     23  C   UNL     1     -11.466  52.138  46.785  0.00  0.00    +0.000 C 
ATOM     24  C   UNL     1     -11.333  53.383  44.689  0.00  0.00    +0.000 C 
ATOM     25  C   UNL     1      -9.336  52.086  45.465  0.00  0.00    +0.000 C 
ENDBRANCH   7  22
BRANCH   5  26
ATOM     26  C   UNL     1      -8.169  53.148  48.280  0.00  0.00    +0.000 C 
BRANCH  26  27
ATOM     27  C   UNL     1      -6.824  53.821  48.002  0.00  0.00    +0.000 C 
BRANCH  27  28
ATOM     28  C   UNL     1      -5.987  54.112  49.281  0.00  0.00    +0.000 C 
ATOM     29  C   UNL     1      -6.271  53.076  50.384  0.00  0.00    +0.000 C 
ATOM     30  C   UNL     1      -4.493  54.030  48.919  0.00  0.00    +0.000 C 
ATOM     31  C   UNL     1      -6.286  55.520  49.821  0.00  0.00    +0.000 C 
ENDBRANCH  27  28
ENDBRANCH  26  27
ENDBRANCH   5  26
TORSDOF 5
ENDMDL
MODEL 9
REMARK VINA RESULT:      -7.2      3.937      5.728
REMARK  Name = 
REMARK  11 active torsions:
REMARK  status: ('A' for Active; 'I' for Inactive)
REMARK    1  A    between atoms: C_6  and  C_10
REMARK    2  A    between atoms: N_17  and  C_20
REMARK    3  A    between atoms: C_19  and  C_21
REMARK    4  A    between atoms: C_20  and  C_22
REMARK    5  A    between atoms: C_21  and  C_23
REMARK    6  A    between atoms: C_21  and  C_24
REMARK    7  A    between atoms: C_21  and  C_25
REMARK    8  A    between atoms: C_22  and  C_26
REMARK    9  A    between atoms: C_26  and  C_27
REMARK   10  A    between atoms: C_26  and  C_28
REMARK   11  A    between atoms: C_26  and  C_29
REMARK                            x       y       z     vdW  Elec       q    Type
REMARK                         _______ _______ _______ _____ _____    ______ ____
ROOT
ATOM      1  C   UNL     1     -10.128  54.446  50.839  0.00  0.00    +0.000 C 
ATOM      2  C   UNL     1     -11.231  54.861  51.707  0.00  0.00    +0.000 C 
ATOM      3  C   UNL     1     -10.636  54.393  49.599  0.00  0.00    +0.000 C 
ATOM      4  O   UNL     1     -11.125  54.960  52.921  0.00  0.00    +0.000 OA
ATOM      5  N   UNL     1     -12.344  55.080  50.922  0.00  0.00    +0.000 N 
ATOM      6  O   UNL     1      -9.951  53.975  48.484  0.00  0.00    +0.000 OA
ATOM      7  C   UNL     1     -12.089  54.850  49.491  0.00  0.00    +0.000 C 
ENDROOT
BRANCH   1  13
ATOM      8  S   UNL     1      -6.986  54.338  53.137  0.00  0.00    +0.000 S 
ATOM      9  O   UNL     1      -7.198  53.357  54.184  0.00  0.00    +0.000 OA
ATOM     10  O   UNL     1      -6.335  55.597  53.437  0.00  0.00    +0.000 OA
ATOM     11  N   UNL     1      -8.424  54.675  52.464  0.00  0.00    +0.000 N 
ATOM     12  C   UNL     1      -5.983  53.546  51.928  0.00  0.00    +0.000 A 
ATOM     13  C   UNL     1      -8.753  54.149  51.323  0.00  0.00    +0.000 C 
ATOM     14  C   UNL     1      -6.599  53.123  50.760  0.00  0.00    +0.000 A 
ATOM     15  C   UNL     1      -4.619  53.363  52.159  0.00  0.00    +0.000 A 
ATOM     16  N   UNL     1      -7.953  53.348  50.538  0.00  0.00    +0.000 N 
ATOM     17  C   UNL     1      -5.813  52.486  49.794  0.00  0.00    +0.000 A 
ATOM     18  C   UNL     1      -3.847  52.734  51.187  0.00  0.00    +0.000 A 
ATOM     19  C   UNL     1      -4.444  52.296  50.004  0.00  0.00    +0.000 A 
ATOM     20  H   UNL     1      -9.048  55.282  52.923  0.00  0.00    +0.000 HD
ATOM     21  H   UNL     1      -8.369  52.902  49.765  0.00  0.00    +0.000 HD
ENDBRANCH   1  13
BRANCH   7  22
ATOM     22  C   UNL     1     -12.320  56.077  48.523  0.00  0.00    +0.000 C 
ATOM     23  C   UNL     1     -11.550  57.329  49.014  0.00  0.00    +0.000 C 
ATOM     24  C   UNL     1     -11.766  55.825  47.103  0.00  0.00    +0.000 C 
ATOM     25  C   UNL     1     -13.813  56.439  48.409  0.00  0.00    +0.000 C 
ENDBRANCH   7  22
BRANCH   5  26
ATOM     26  C   UNL     1     -13.587  55.517  51.533  0.00  0.00    +0.000 C 
BRANCH  26  27
ATOM     27  C   UNL     1     -13.561  56.931  52.114  0.00  0.00    +0.000 C 
BRANCH  27  28
ATOM     28  C   UNL     1     -14.909  57.695  51.978  0.00  0.00    +0.000 C 
ATOM     29  C   UNL     1     -16.012  56.789  51.401  0.00  0.00    +0.000 C 
ATOM     30  C   UNL     1     -15.354  58.160  53.376  0.00  0.00    +0.000 C 
ATOM     31  C   UNL     1     -14.749  58.931  51.077  0.00  0.00    +0.000 C 
ENDBRANCH  27  28
ENDBRANCH  26  27
ENDBRANCH   5  26
TORSDOF 5
ENDMDL
