MODEL 1
REMARK VINA RESULT:      -8.4      0.000      0.000
REMARK  Name = 
REMARK  8 active torsions:
REMARK  status: ('A' for Active; 'I' for Inactive)
REMARK    1  A    between atoms: C_6  and  C_10
REMARK    2  A    between atoms: N_17  and  C_20
REMARK    3  A    between atoms: C_19  and  C_21
REMARK    4  A    between atoms: C_20  and  C_22
REMARK    5  A    between atoms: C_22  and  C_25
REMARK    6  A    between atoms: C_25  and  C_28
REMARK    7  A    between atoms: C_25  and  C_29
REMARK    8  A    between atoms: C_25  and  C_30
REMARK                            x       y       z     vdW  Elec       q    Type
REMARK                         _______ _______ _______ _____ _____    ______ ____
ROOT
ATOM      1  C   UNL     1     -10.800  55.219  47.923  0.00  0.00    +0.000 C 
ATOM      2  C   UNL     1     -12.161  55.769  47.838  0.00  0.00    +0.000 C 
ATOM      3  C   UNL     1     -10.378  55.471  49.167  0.00  0.00    +0.000 C 
ATOM      4  O   UNL     1     -12.832  55.757  46.818  0.00  0.00    +0.000 OA
ATOM      5  N   UNL     1     -12.467  56.306  49.071  0.00  0.00    +0.000 N 
ATOM      6  O   UNL     1      -9.099  55.298  49.629  0.00  0.00    +0.000 OA
ATOM      7  C   UNL     1     -11.433  56.040  50.067  0.00  0.00    +0.000 C 
ENDROOT
BRANCH   1  13
ATOM      8  S   UNL     1      -7.912  54.336  45.482  0.00  0.00    +0.000 S 
ATOM      9  O   UNL     1      -6.936  53.519  46.175  0.00  0.00    +0.000 OA
ATOM     10  O   UNL     1      -7.484  55.366  44.559  0.00  0.00    +0.000 OA
ATOM     11  N   UNL     1      -8.869  55.035  46.585  0.00  0.00    +0.000 N 
ATOM     12  C   UNL     1      -8.898  53.220  44.542  0.00  0.00    +0.000 A 
ATOM     13  C   UNL     1     -10.056  54.559  46.825  0.00  0.00    +0.000 C 
ATOM     14  C   UNL     1     -10.167  52.926  45.017  0.00  0.00    +0.000 A 
ATOM     15  C   UNL     1      -8.399  52.679  43.356  0.00  0.00    +0.000 A 
ATOM     16  N   UNL     1     -10.658  53.505  46.178  0.00  0.00    +0.000 N 
ATOM     17  C   UNL     1     -10.963  52.050  44.268  0.00  0.00    +0.000 A 
ATOM     18  C   UNL     1      -9.204  51.814  42.621  0.00  0.00    +0.000 A 
ATOM     19  C   UNL     1     -10.486  51.506  43.075  0.00  0.00    +0.000 A 
ATOM     20  H   UNL     1      -8.552  55.826  47.078  0.00  0.00    +0.000 HD
ATOM     21  H   UNL     1     -11.487  53.139  46.563  0.00  0.00    +0.000 HD
ENDBRANCH   1  13
BRANCH   7  22
ATOM     22  C   UNL     1     -11.953  55.143  51.235  0.00  0.00    +0.000 C 
ATOM     23  C   UNL     1     -11.154  55.264  52.546  0.00  0.00    +0.000 C 
ATOM     24  C   UNL     1     -12.164  53.651  50.911  0.00  0.00    +0.000 C 
ATOM     25  C   UNL     1      -9.899  54.397  52.648  0.00  0.00    +0.000 C 
ATOM     26  C   UNL     1     -10.876  52.847  50.846  0.00  0.00    +0.000 C 
ATOM     27  C   UNL     1     -10.052  52.973  52.122  0.00  0.00    +0.000 C 
ENDBRANCH   7  22
BRANCH   5  28
ATOM     28  C   UNL     1     -13.722  56.975  49.368  0.00  0.00    +0.000 C 
BRANCH  28  29
ATOM     29  C   UNL     1     -13.572  58.043  50.453  0.00  0.00    +0.000 C 
BRANCH  29  30
ATOM     30  C   UNL     1     -14.627  57.970  51.584  0.00  0.00    +0.000 C 
ATOM     31  C   UNL     1     -13.965  57.638  52.934  0.00  0.00    +0.000 C 
ATOM     32  C   UNL     1     -15.314  59.343  51.701  0.00  0.00    +0.000 C 
ATOM     33  C   UNL     1     -15.697  56.912  51.266  0.00  0.00    +0.000 C 
ENDBRANCH  29  30
ENDBRANCH  28  29
ENDBRANCH   5  28
TORSDOF 5
ENDMDL
MODEL 2
REMARK VINA RESULT:      -8.1      2.611      7.656
REMARK  Name = 
REMARK  8 active torsions:
REMARK  status: ('A' for Active; 'I' for Inactive)
REMARK    1  A    between atoms: C_6  and  C_10
REMARK    2  A    between atoms: N_17  and  C_20
REMARK    3  A    between atoms: C_19  and  C_21
REMARK    4  A    between atoms: C_20  and  C_22
REMARK    5  A    between atoms: C_22  and  C_25
REMARK    6  A    between atoms: C_25  and  C_28
REMARK    7  A    between atoms: C_25  and  C_29
REMARK    8  A    between atoms: C_25  and  C_30
REMARK                            x       y       z     vdW  Elec       q    Type
REMARK                         _______ _______ _______ _____ _____    ______ ____
ROOT
ATOM      1  C   UNL     1     -11.730  55.335  49.154  0.00  0.00    +0.000 C 
ATOM      2  C   UNL     1     -11.695  54.826  47.775  0.00  0.00    +0.000 C 
ATOM      3  C   UNL     1     -10.874  54.576  49.848  0.00  0.00    +0.000 C 
ATOM      4  O   UNL     1     -12.399  55.260  46.876  0.00  0.00    +0.000 OA
ATOM      5  N   UNL     1     -10.787  53.789  47.740  0.00  0.00    +0.000 N 
ATOM      6  O   UNL     1     -10.728  54.579  51.211  0.00  0.00    +0.000 OA
ATOM      7  C   UNL     1     -10.076  53.629  49.006  0.00  0.00    +0.000 C 
ENDROOT
BRANCH   1  13
ATOM      8  S   UNL     1     -13.437  58.815  49.380  0.00  0.00    +0.000 S 
ATOM      9  O   UNL     1     -14.514  58.881  48.411  0.00  0.00    +0.000 OA
ATOM     10  O   UNL     1     -12.583  59.962  49.605  0.00  0.00    +0.000 OA
ATOM     11  N   UNL     1     -12.485  57.562  49.001  0.00  0.00    +0.000 N 
ATOM     12  C   UNL     1     -14.201  58.465  50.928  0.00  0.00    +0.000 A 
ATOM     13  C   UNL     1     -12.581  56.440  49.654  0.00  0.00    +0.000 C 
ATOM     14  C   UNL     1     -14.098  57.172  51.418  0.00  0.00    +0.000 A 
ATOM     15  C   UNL     1     -14.863  59.478  51.622  0.00  0.00    +0.000 A 
ATOM     16  N   UNL     1     -13.401  56.189  50.729  0.00  0.00    +0.000 N 
ATOM     17  C   UNL     1     -14.690  56.889  52.655  0.00  0.00    +0.000 A 
ATOM     18  C   UNL     1     -15.442  59.181  52.853  0.00  0.00    +0.000 A 
ATOM     19  C   UNL     1     -15.349  57.889  53.370  0.00  0.00    +0.000 A 
ATOM     20  H   UNL     1     -11.829  57.648  48.272  0.00  0.00    +0.000 HD
ATOM     21  H   UNL     1     -13.501  55.257  51.027  0.00  0.00    +0.000 HD
ENDBRANCH   1  13
BRANCH   7  22
ATOM     22  C   UNL     1      -8.544  53.897  48.862  0.00  0.00    +0.000 C 
ATOM     23  C   UNL     1      -7.677  53.304  49.988  0.00  0.00    +0.000 C 
ATOM     24  C   UNL     1      -8.125  55.360  48.621  0.00  0.00    +0.000 C 
ATOM     25  C   UNL     1      -7.548  54.156  51.252  0.00  0.00    +0.000 C 
ATOM     26  C   UNL     1      -8.176  56.228  49.868  0.00  0.00    +0.000 C 
ATOM     27  C   UNL     1      -7.348  55.649  51.009  0.00  0.00    +0.000 C 
ENDBRANCH   7  22
BRANCH   5  28
ATOM     28  C   UNL     1     -10.502  53.008  46.549  0.00  0.00    +0.000 C 
BRANCH  28  29
ATOM     29  C   UNL     1     -10.002  53.871  45.389  0.00  0.00    +0.000 C 
BRANCH  29  30
ATOM     30  C   UNL     1      -8.584  53.515  44.881  0.00  0.00    +0.000 C 
ATOM     31  C   UNL     1      -8.612  53.140  43.389  0.00  0.00    +0.000 C 
ATOM     32  C   UNL     1      -7.677  54.747  45.058  0.00  0.00    +0.000 C 
ATOM     33  C   UNL     1      -7.989  52.350  45.690  0.00  0.00    +0.000 C 
ENDBRANCH  29  30
ENDBRANCH  28  29
ENDBRANCH   5  28
TORSDOF 5
ENDMDL
MODEL 3
REMARK VINA RESULT:      -7.9      3.132      6.394
REMARK  Name = 
REMARK  8 active torsions:
REMARK  status: ('A' for Active; 'I' for Inactive)
REMARK    1  A    between atoms: C_6  and  C_10
REMARK    2  A    between atoms: N_17  and  C_20
REMARK    3  A    between atoms: C_19  and  C_21
REMARK    4  A    between atoms: C_20  and  C_22
REMARK    5  A    between atoms: C_22  and  C_25
REMARK    6  A    between atoms: C_25  and  C_28
REMARK    7  A    between atoms: C_25  and  C_29
REMARK    8  A    between atoms: C_25  and  C_30
REMARK                            x       y       z     vdW  Elec       q    Type
REMARK                         _______ _______ _______ _____ _____    ______ ____
ROOT
ATOM      1  C   UNL     1     -10.788  53.781  50.619  0.00  0.00    +0.000 C 
ATOM      2  C   UNL     1     -11.833  54.741  51.005  0.00  0.00    +0.000 C 
ATOM      3  C   UNL     1     -11.073  53.410  49.366  0.00  0.00    +0.000 C 
ATOM      4  O   UNL     1     -11.909  55.248  52.114  0.00  0.00    +0.000 OA
ATOM      5  N   UNL     1     -12.675  54.892  49.924  0.00  0.00    +0.000 N 
ATOM      6  O   UNL     1     -10.469  52.392  48.677  0.00  0.00    +0.000 OA
ATOM      7  C   UNL     1     -12.195  54.182  48.741  0.00  0.00    +0.000 C 
ENDROOT
BRANCH   1  13
ATOM      8  S   UNL     1      -8.345  51.369  52.434  0.00  0.00    +0.000 S 
ATOM      9  O   UNL     1      -7.362  50.885  51.485  0.00  0.00    +0.000 OA
ATOM     10  O   UNL     1      -8.906  50.478  53.428  0.00  0.00    +0.000 OA
ATOM     11  N   UNL     1      -9.577  52.018  51.607  0.00  0.00    +0.000 N 
ATOM     12  C   UNL     1      -7.556  52.663  53.331  0.00  0.00    +0.000 A 
ATOM     13  C   UNL     1      -9.678  53.309  51.480  0.00  0.00    +0.000 C 
ATOM     14  C   UNL     1      -7.901  53.969  53.014  0.00  0.00    +0.000 A 
ATOM     15  C   UNL     1      -6.634  52.355  54.331  0.00  0.00    +0.000 A 
ATOM     16  N   UNL     1      -8.849  54.252  52.041  0.00  0.00    +0.000 N 
ATOM     17  C   UNL     1      -7.288  55.003  53.732  0.00  0.00    +0.000 A 
ATOM     18  C   UNL     1      -6.037  53.394  55.040  0.00  0.00    +0.000 A 
ATOM     19  C   UNL     1      -6.370  54.716  54.743  0.00  0.00    +0.000 A 
ATOM     20  H   UNL     1     -10.254  51.432  51.198  0.00  0.00    +0.000 HD
ATOM     21  H   UNL     1      -8.933  55.183  51.736  0.00  0.00    +0.000 HD
ENDBRANCH   1  13
BRANCH   7  22
ATOM     22  C   UNL     1     -11.845  55.154  47.569  0.00  0.00    +0.000 C 
ATOM     23  C   UNL     1     -11.875  54.514  46.169  0.00  0.00    +0.000 C 
ATOM     24  C   UNL     1     -10.545  55.969  47.721  0.00  0.00    +0.000 C 
ATOM     25  C   UNL     1     -10.602  53.786  45.738  0.00  0.00    +0.000 C 
ATOM     26  C   UNL     1      -9.281  55.168  47.456  0.00  0.00    +0.000 C 
ATOM     27  C   UNL     1      -9.298  54.500  46.086  0.00  0.00    +0.000 C 
ENDBRANCH   7  22
BRANCH   5  28
ATOM     28  C   UNL     1     -13.855  55.739  49.933  0.00  0.00    +0.000 C 
BRANCH  28  29
ATOM     29  C   UNL     1     -13.560  57.146  50.456  0.00  0.00    +0.000 C 
BRANCH  29  30
ATOM     30  C   UNL     1     -14.619  57.707  51.436  0.00  0.00    +0.000 C 
ATOM     31  C   UNL     1     -14.064  57.767  52.870  0.00  0.00    +0.000 C 
ATOM     32  C   UNL     1     -14.986  59.136  50.993  0.00  0.00    +0.000 C 
ATOM     33  C   UNL     1     -15.893  56.847  51.416  0.00  0.00    +0.000 C 
ENDBRANCH  29  30
ENDBRANCH  28  29
ENDBRANCH   5  28
TORSDOF 5
ENDMDL
MODEL 4
REMARK VINA RESULT:      -7.9      3.239      6.288
REMARK  Name = 
REMARK  8 active torsions:
REMARK  status: ('A' for Active; 'I' for Inactive)
REMARK    1  A    between atoms: C_6  and  C_10
REMARK    2  A    between atoms: N_17  and  C_20
REMARK    3  A    between atoms: C_19  and  C_21
REMARK    4  A    between atoms: C_20  and  C_22
REMARK    5  A    between atoms: C_22  and  C_25
REMARK    6  A    between atoms: C_25  and  C_28
REMARK    7  A    between atoms: C_25  and  C_29
REMARK    8  A    between atoms: C_25  and  C_30
REMARK                            x       y       z     vdW  Elec       q    Type
REMARK                         _______ _______ _______ _____ _____    ______ ____
ROOT
ATOM      1  C   UNL     1      -9.069  54.166  49.900  0.00  0.00    +0.000 C 
ATOM      2  C   UNL     1     -10.162  55.026  50.379  0.00  0.00    +0.000 C 
ATOM      3  C   UNL     1      -9.597  53.402  48.937  0.00  0.00    +0.000 C 
ATOM      4  O   UNL     1     -10.043  55.821  51.298  0.00  0.00    +0.000 OA
ATOM      5  N   UNL     1     -11.284  54.719  49.638  0.00  0.00    +0.000 N 
ATOM      6  O   UNL     1      -8.985  52.329  48.342  0.00  0.00    +0.000 OA
ATOM      7  C   UNL     1     -10.999  53.773  48.562  0.00  0.00    +0.000 C 
ENDROOT
BRANCH   1  13
ATOM      8  S   UNL     1      -5.238  53.556  50.071  0.00  0.00    +0.000 S 
ATOM      9  O   UNL     1      -4.560  54.564  49.280  0.00  0.00    +0.000 OA
ATOM     10  O   UNL     1      -4.782  52.183  50.056  0.00  0.00    +0.000 OA
ATOM     11  N   UNL     1      -6.805  53.557  49.665  0.00  0.00    +0.000 N 
ATOM     12  C   UNL     1      -5.114  54.092  51.745  0.00  0.00    +0.000 A 
ATOM     13  C   UNL     1      -7.683  54.145  50.423  0.00  0.00    +0.000 C 
ATOM     14  C   UNL     1      -6.245  54.645  52.328  0.00  0.00    +0.000 A 
ATOM     15  C   UNL     1      -3.915  53.935  52.439  0.00  0.00    +0.000 A 
ATOM     16  N   UNL     1      -7.439  54.756  51.631  0.00  0.00    +0.000 N 
ATOM     17  C   UNL     1      -6.159  55.060  53.663  0.00  0.00    +0.000 A 
ATOM     18  C   UNL     1      -3.847  54.349  53.766  0.00  0.00    +0.000 A 
ATOM     19  C   UNL     1      -4.971  54.905  54.378  0.00  0.00    +0.000 A 
ATOM     20  H   UNL     1      -7.096  53.109  48.838  0.00  0.00    +0.000 HD
ATOM     21  H   UNL     1      -8.155  55.305  52.025  0.00  0.00    +0.000 HD
ENDBRANCH   1  13
BRANCH   7  22
ATOM     22  C   UNL     1     -11.234  54.396  47.149  0.00  0.00    +0.000 C 
ATOM     23  C   UNL     1     -11.408  53.371  46.013  0.00  0.00    +0.000 C 
ATOM     24  C   UNL     1     -10.231  55.477  46.702  0.00  0.00    +0.000 C 
ATOM     25  C   UNL     1     -10.117  52.837  45.391  0.00  0.00    +0.000 C 
ATOM     26  C   UNL     1      -8.888  54.923  46.253  0.00  0.00    +0.000 C 
ATOM     27  C   UNL     1      -9.034  53.884  45.148  0.00  0.00    +0.000 C 
ENDBRANCH   7  22
BRANCH   5  28
ATOM     28  C   UNL     1     -12.580  55.341  49.845  0.00  0.00    +0.000 C 
BRANCH  28  29
ATOM     29  C   UNL     1     -12.557  56.846  49.574  0.00  0.00    +0.000 C 
BRANCH  29  30
ATOM     30  C   UNL     1     -13.885  57.427  49.032  0.00  0.00    +0.000 C 
ATOM     31  C   UNL     1     -13.982  57.252  47.506  0.00  0.00    +0.000 C 
ATOM     32  C   UNL     1     -15.054  56.667  49.687  0.00  0.00    +0.000 C 
ATOM     33  C   UNL     1     -14.014  58.919  49.384  0.00  0.00    +0.000 C 
ENDBRANCH  29  30
ENDBRANCH  28  29
ENDBRANCH   5  28
TORSDOF 5
ENDMDL
MODEL 5
REMARK VINA RESULT:      -7.9      2.889      8.085
REMARK  Name = 
REMARK  8 active torsions:
REMARK  status: ('A' for Active; 'I' for Inactive)
REMARK    1  A    between atoms: C_6  and  C_10
REMARK    2  A    between atoms: N_17  and  C_20
REMARK    3  A    between atoms: C_19  and  C_21
REMARK    4  A    between atoms: C_20  and  C_22
REMARK    5  A    between atoms: C_22  and  C_25
REMARK    6  A    between atoms: C_25  and  C_28
REMARK    7  A    between atoms: C_25  and  C_29
REMARK    8  A    between atoms: C_25  and  C_30
REMARK                            x       y       z     vdW  Elec       q    Type
REMARK                         _______ _______ _______ _____ _____    ______ ____
ROOT
ATOM      1  C   UNL     1     -11.307  55.786  49.067  0.00  0.00    +0.000 C 
ATOM      2  C   UNL     1     -10.308  55.046  49.853  0.00  0.00    +0.000 C 
ATOM      3  C   UNL     1     -11.117  55.420  47.794  0.00  0.00    +0.000 C 
ATOM      4  O   UNL     1     -10.165  55.178  51.059  0.00  0.00    +0.000 OA
ATOM      5  N   UNL     1      -9.591  54.260  48.977  0.00  0.00    +0.000 N 
ATOM      6  O   UNL     1     -11.703  56.001  46.700  0.00  0.00    +0.000 OA
ATOM      7  C   UNL     1     -10.127  54.309  47.618  0.00  0.00    +0.000 C 
ENDROOT
BRANCH   1  13
ATOM      8  S   UNL     1     -13.438  59.016  49.388  0.00  0.00    +0.000 S 
ATOM      9  O   UNL     1     -14.522  58.968  48.427  0.00  0.00    +0.000 OA
ATOM     10  O   UNL     1     -12.733  60.255  49.638  0.00  0.00    +0.000 OA
ATOM     11  N   UNL     1     -12.338  57.902  48.974  0.00  0.00    +0.000 N 
ATOM     12  C   UNL     1     -14.138  58.535  50.931  0.00  0.00    +0.000 A 
ATOM     13  C   UNL     1     -12.286  56.762  49.598  0.00  0.00    +0.000 C 
ATOM     14  C   UNL     1     -13.869  57.253  51.388  0.00  0.00    +0.000 A 
ATOM     15  C   UNL     1     -14.917  59.438  51.653  0.00  0.00    +0.000 A 
ATOM     16  N   UNL     1     -13.060  56.384  50.671  0.00  0.00    +0.000 N 
ATOM     17  C   UNL     1     -14.410  56.868  52.620  0.00  0.00    +0.000 A 
ATOM     18  C   UNL     1     -15.444  59.041  52.879  0.00  0.00    +0.000 A 
ATOM     19  C   UNL     1     -15.185  57.759  53.363  0.00  0.00    +0.000 A 
ATOM     20  H   UNL     1     -11.704  58.088  48.244  0.00  0.00    +0.000 HD
ATOM     21  H   UNL     1     -13.038  55.439  50.946  0.00  0.00    +0.000 HD
ENDBRANCH   1  13
BRANCH   7  22
ATOM     22  C   UNL     1     -10.666  52.922  47.145  0.00  0.00    +0.000 C 
ATOM     23  C   UNL     1      -9.590  51.962  46.605  0.00  0.00    +0.000 C 
ATOM     24  C   UNL     1     -11.854  52.948  46.163  0.00  0.00    +0.000 C 
ATOM     25  C   UNL     1      -9.209  52.141  45.135  0.00  0.00    +0.000 C 
ATOM     26  C   UNL     1     -11.466  53.303  44.736  0.00  0.00    +0.000 C 
ATOM     27  C   UNL     1     -10.380  52.385  44.188  0.00  0.00    +0.000 C 
ENDBRANCH   7  22
BRANCH   5  28
ATOM     28  C   UNL     1      -8.487  53.406  49.378  0.00  0.00    +0.000 C 
BRANCH  28  29
ATOM     29  C   UNL     1      -7.135  54.114  49.286  0.00  0.00    +0.000 C 
BRANCH  29  30
ATOM     30  C   UNL     1      -6.147  53.493  48.268  0.00  0.00    +0.000 C 
ATOM     31  C   UNL     1      -6.243  51.958  48.274  0.00  0.00    +0.000 C 
ATOM     32  C   UNL     1      -6.512  54.001  46.861  0.00  0.00    +0.000 C 
ATOM     33  C   UNL     1      -4.702  53.917  48.581  0.00  0.00    +0.000 C 
ENDBRANCH  29  30
ENDBRANCH  28  29
ENDBRANCH   5  28
TORSDOF 5
ENDMDL
MODEL 6
REMARK VINA RESULT:      -7.9      3.495      6.094
REMARK  Name = 
REMARK  8 active torsions:
REMARK  status: ('A' for Active; 'I' for Inactive)
REMARK    1  A    between atoms: C_6  and  C_10
REMARK    2  A    between atoms: N_17  and  C_20
REMARK    3  A    between atoms: C_19  and  C_21
REMARK    4  A    between atoms: C_20  and  C_22
REMARK    5  A    between atoms: C_22  and  C_25
REMARK    6  A    between atoms: C_25  and  C_28
REMARK    7  A    between atoms: C_25  and  C_29
REMARK    8  A    between atoms: C_25  and  C_30
REMARK                            x       y       z     vdW  Elec       q    Type
REMARK                         _______ _______ _______ _____ _____    ______ ____
ROOT
ATOM      1  C   UNL     1     -10.157  54.167  50.789  0.00  0.00    +0.000 C 
ATOM      2  C   UNL     1     -11.320  54.977  51.185  0.00  0.00    +0.000 C 
ATOM      3  C   UNL     1     -10.520  53.525  49.672  0.00  0.00    +0.000 C 
ATOM      4  O   UNL     1     -11.355  55.659  52.198  0.00  0.00    +0.000 OA
ATOM      5  N   UNL     1     -12.307  54.770  50.245  0.00  0.00    +0.000 N 
ATOM      6  O   UNL     1      -9.813  52.522  49.062  0.00  0.00    +0.000 OA
ATOM      7  C   UNL     1     -11.848  53.952  49.126  0.00  0.00    +0.000 C 
ENDROOT
BRANCH   1  13
ATOM      8  S   UNL     1      -7.628  54.081  53.733  0.00  0.00    +0.000 S 
ATOM      9  O   UNL     1      -7.707  52.792  54.391  0.00  0.00    +0.000 OA
ATOM     10  O   UNL     1      -7.470  55.293  54.510  0.00  0.00    +0.000 OA
ATOM     11  N   UNL     1      -8.942  54.263  52.805  0.00  0.00    +0.000 N 
ATOM     12  C   UNL     1      -6.224  53.998  52.673  0.00  0.00    +0.000 A 
ATOM     13  C   UNL     1      -8.873  54.071  51.520  0.00  0.00    +0.000 C 
ATOM     14  C   UNL     1      -6.453  53.838  51.314  0.00  0.00    +0.000 A 
ATOM     15  C   UNL     1      -4.940  54.108  53.207  0.00  0.00    +0.000 A 
ATOM     16  N   UNL     1      -7.740  53.769  50.800  0.00  0.00    +0.000 N 
ATOM     17  C   UNL     1      -5.343  53.785  50.462  0.00  0.00    +0.000 A 
ATOM     18  C   UNL     1      -3.848  54.058  52.346  0.00  0.00    +0.000 A 
ATOM     19  C   UNL     1      -4.051  53.903  50.975  0.00  0.00    +0.000 A 
ATOM     20  H   UNL     1      -9.799  54.520  53.214  0.00  0.00    +0.000 HD
ATOM     21  H   UNL     1      -7.849  53.487  49.863  0.00  0.00    +0.000 HD
ENDBRANCH   1  13
BRANCH   7  22
ATOM     22  C   UNL     1     -11.860  54.737  47.775  0.00  0.00    +0.000 C 
ATOM     23  C   UNL     1     -11.825  53.854  46.515  0.00  0.00    +0.000 C 
ATOM     24  C   UNL     1     -10.818  55.863  47.628  0.00  0.00    +0.000 C 
ATOM     25  C   UNL     1     -10.440  53.396  46.056  0.00  0.00    +0.000 C 
ATOM     26  C   UNL     1      -9.410  55.365  47.345  0.00  0.00    +0.000 C 
ATOM     27  C   UNL     1      -9.352  54.464  46.118  0.00  0.00    +0.000 C 
ENDBRANCH   7  22
BRANCH   5  28
ATOM     28  C   UNL     1     -13.625  55.378  50.314  0.00  0.00    +0.000 C 
BRANCH  28  29
ATOM     29  C   UNL     1     -13.562  56.905  50.387  0.00  0.00    +0.000 C 
BRANCH  29  30
ATOM     30  C   UNL     1     -14.625  57.553  51.307  0.00  0.00    +0.000 C 
ATOM     31  C   UNL     1     -14.923  58.998  50.870  0.00  0.00    +0.000 C 
ATOM     32  C   UNL     1     -15.924  56.733  51.205  0.00  0.00    +0.000 C 
ATOM     33  C   UNL     1     -14.157  57.548  52.772  0.00  0.00    +0.000 C 
ENDBRANCH  29  30
ENDBRANCH  28  29
ENDBRANCH   5  28
TORSDOF 5
ENDMDL
MODEL 7
REMARK VINA RESULT:      -7.8      1.094      1.563
REMARK  Name = 
REMARK  8 active torsions:
REMARK  status: ('A' for Active; 'I' for Inactive)
REMARK    1  A    between atoms: C_6  and  C_10
REMARK    2  A    between atoms: N_17  and  C_20
REMARK    3  A    between atoms: C_19  and  C_21
REMARK    4  A    between atoms: C_20  and  C_22
REMARK    5  A    between atoms: C_22  and  C_25
REMARK    6  A    between atoms: C_25  and  C_28
REMARK    7  A    between atoms: C_25  and  C_29
REMARK    8  A    between atoms: C_25  and  C_30
REMARK                            x       y       z     vdW  Elec       q    Type
REMARK                         _______ _______ _______ _____ _____    ______ ____
ROOT
ATOM      1  C   UNL     1     -10.328  54.626  48.972  0.00  0.00    +0.000 C 
ATOM      2  C   UNL     1     -11.745  54.881  49.276  0.00  0.00    +0.000 C 
ATOM      3  C   UNL     1      -9.644  55.021  50.052  0.00  0.00    +0.000 C 
ATOM      4  O   UNL     1     -12.652  54.681  48.482  0.00  0.00    +0.000 OA
ATOM      5  N   UNL     1     -11.807  55.403  50.550  0.00  0.00    +0.000 N 
ATOM      6  O   UNL     1      -8.281  55.137  50.136  0.00  0.00    +0.000 OA
ATOM      7  C   UNL     1     -10.507  55.404  51.216  0.00  0.00    +0.000 C 
ENDROOT
BRANCH   1  13
ATOM      8  S   UNL     1      -7.917  54.003  45.993  0.00  0.00    +0.000 S 
ATOM      9  O   UNL     1      -6.844  53.129  46.424  0.00  0.00    +0.000 OA
ATOM     10  O   UNL     1      -7.646  55.119  45.112  0.00  0.00    +0.000 OA
ATOM     11  N   UNL     1      -8.661  54.586  47.307  0.00  0.00    +0.000 N 
ATOM     12  C   UNL     1      -9.062  52.975  45.136  0.00  0.00    +0.000 A 
ATOM     13  C   UNL     1      -9.793  54.081  47.703  0.00  0.00    +0.000 C 
ATOM     14  C   UNL     1     -10.233  52.628  45.794  0.00  0.00    +0.000 A 
ATOM     15  C   UNL     1      -8.782  52.554  43.836  0.00  0.00    +0.000 A 
ATOM     16  N   UNL     1     -10.508  53.089  47.073  0.00  0.00    +0.000 N 
ATOM     17  C   UNL     1     -11.155  51.823  45.114  0.00  0.00    +0.000 A 
ATOM     18  C   UNL     1      -9.711  51.758  43.172  0.00  0.00    +0.000 A 
ATOM     19  C   UNL     1     -10.898  51.399  43.810  0.00  0.00    +0.000 A 
ATOM     20  H   UNL     1      -8.255  55.328  47.811  0.00  0.00    +0.000 HD
ATOM     21  H   UNL     1     -11.262  52.682  47.558  0.00  0.00    +0.000 HD
ENDBRANCH   1  13
BRANCH   7  22
ATOM     22  C   UNL     1     -10.485  54.478  52.473  0.00  0.00    +0.000 C 
ATOM     23  C   UNL     1      -9.370  54.793  53.487  0.00  0.00    +0.000 C 
ATOM     24  C   UNL     1     -10.507  52.960  52.206  0.00  0.00    +0.000 C 
ATOM     25  C   UNL     1      -8.005  54.168  53.197  0.00  0.00    +0.000 C 
ATOM     26  C   UNL     1      -9.172  52.396  51.747  0.00  0.00    +0.000 C 
ATOM     27  C   UNL     1      -8.044  52.719  52.720  0.00  0.00    +0.000 C 
ENDBRANCH   7  22
BRANCH   5  28
ATOM     28  C   UNL     1     -13.043  55.814  51.192  0.00  0.00    +0.000 C 
BRANCH  28  29
ATOM     29  C   UNL     1     -13.524  57.185  50.713  0.00  0.00    +0.000 C 
BRANCH  29  30
ATOM     30  C   UNL     1     -14.755  57.740  51.469  0.00  0.00    +0.000 C 
ATOM     31  C   UNL     1     -15.094  59.165  50.998  0.00  0.00    +0.000 C 
ATOM     32  C   UNL     1     -15.961  56.828  51.174  0.00  0.00    +0.000 C 
ATOM     33  C   UNL     1     -14.508  57.748  52.986  0.00  0.00    +0.000 C 
ENDBRANCH  29  30
ENDBRANCH  28  29
ENDBRANCH   5  28
TORSDOF 5
ENDMDL
MODEL 8
REMARK VINA RESULT:      -7.8      2.921      7.416
REMARK  Name = 
REMARK  8 active torsions:
REMARK  status: ('A' for Active; 'I' for Inactive)
REMARK    1  A    between atoms: C_6  and  C_10
REMARK    2  A    between atoms: N_17  and  C_20
REMARK    3  A    between atoms: C_19  and  C_21
REMARK    4  A    between atoms: C_20  and  C_22
REMARK    5  A    between atoms: C_22  and  C_25
REMARK    6  A    between atoms: C_25  and  C_28
REMARK    7  A    between atoms: C_25  and  C_29
REMARK    8  A    between atoms: C_25  and  C_30
REMARK                            x       y       z     vdW  Elec       q    Type
REMARK                         _______ _______ _______ _____ _____    ______ ____
ROOT
ATOM      1  C   UNL     1     -12.432  54.396  49.950  0.00  0.00    +0.000 C 
ATOM      2  C   UNL     1     -12.132  54.059  48.551  0.00  0.00    +0.000 C 
ATOM      3  C   UNL     1     -12.032  53.346  50.676  0.00  0.00    +0.000 C 
ATOM      4  O   UNL     1     -12.415  54.780  47.606  0.00  0.00    +0.000 OA
ATOM      5  N   UNL     1     -11.544  52.812  48.543  0.00  0.00    +0.000 N 
ATOM      6  O   UNL     1     -12.288  53.150  52.008  0.00  0.00    +0.000 OA
ATOM      7  C   UNL     1     -11.291  52.307  49.890  0.00  0.00    +0.000 C 
ENDROOT
BRANCH   1  13
ATOM      8  S   UNL     1     -14.389  56.848  52.239  0.00  0.00    +0.000 S 
ATOM      9  O   UNL     1     -13.519  57.300  53.306  0.00  0.00    +0.000 OA
ATOM     10  O   UNL     1     -15.779  56.543  52.505  0.00  0.00    +0.000 OA
ATOM     11  N   UNL     1     -13.723  55.540  51.555  0.00  0.00    +0.000 N 
ATOM     12  C   UNL     1     -14.395  58.139  51.041  0.00  0.00    +0.000 A 
ATOM     13  C   UNL     1     -13.083  55.639  50.427  0.00  0.00    +0.000 C 
ATOM     14  C   UNL     1     -13.650  57.948  49.886  0.00  0.00    +0.000 A 
ATOM     15  C   UNL     1     -15.146  59.293  51.265  0.00  0.00    +0.000 A 
ATOM     16  N   UNL     1     -12.941  56.776  49.667  0.00  0.00    +0.000 N 
ATOM     17  C   UNL     1     -13.661  58.964  48.922  0.00  0.00    +0.000 A 
ATOM     18  C   UNL     1     -15.150  60.291  50.294  0.00  0.00    +0.000 A 
ATOM     19  C   UNL     1     -14.413  60.122  49.122  0.00  0.00    +0.000 A 
ATOM     20  H   UNL     1     -13.803  54.663  51.996  0.00  0.00    +0.000 HD
ATOM     21  H   UNL     1     -12.298  56.758  48.922  0.00  0.00    +0.000 HD
ENDBRANCH   1  13
BRANCH   7  22
ATOM     22  C   UNL     1      -9.767  52.127  50.178  0.00  0.00    +0.000 C 
ATOM     23  C   UNL     1      -9.435  51.120  51.295  0.00  0.00    +0.000 C 
ATOM     24  C   UNL     1      -8.956  53.418  50.409  0.00  0.00    +0.000 C 
ATOM     25  C   UNL     1      -9.481  51.665  52.723  0.00  0.00    +0.000 C 
ATOM     26  C   UNL     1      -9.160  54.035  51.783  0.00  0.00    +0.000 C 
ATOM     27  C   UNL     1      -8.866  53.050  52.907  0.00  0.00    +0.000 C 
ENDBRANCH   7  22
BRANCH   5  28
ATOM     28  C   UNL     1     -11.134  52.122  47.332  0.00  0.00    +0.000 C 
BRANCH  28  29
ATOM     29  C   UNL     1      -9.697  52.455  46.927  0.00  0.00    +0.000 C 
BRANCH  29  30
ATOM     30  C   UNL     1      -9.571  53.446  45.744  0.00  0.00    +0.000 C 
ATOM     31  C   UNL     1      -9.252  54.865  46.246  0.00  0.00    +0.000 C 
ATOM     32  C   UNL     1      -8.419  52.978  44.835  0.00  0.00    +0.000 C 
ATOM     33  C   UNL     1     -10.866  53.476  44.916  0.00  0.00    +0.000 C 
ENDBRANCH  29  30
ENDBRANCH  28  29
ENDBRANCH   5  28
TORSDOF 5
ENDMDL
MODEL 9
REMARK VINA RESULT:      -7.7      2.930      7.971
REMARK  Name = 
REMARK  8 active torsions:
REMARK  status: ('A' for Active; 'I' for Inactive)
REMARK    1  A    between atoms: C_6  and  C_10
REMARK    2  A    between atoms: N_17  and  C_20
REMARK    3  A    between atoms: C_19  and  C_21
REMARK    4  A    between atoms: C_20  and  C_22
REMARK    5  A    between atoms: C_22  and  C_25
REMARK    6  A    between atoms: C_25  and  C_28
REMARK    7  A    between atoms: C_25  and  C_29
REMARK    8  A    between atoms: C_25  and  C_30
REMARK                            x       y       z     vdW  Elec       q    Type
REMARK                         _______ _______ _______ _____ _____    ______ ____
ROOT
ATOM      1  C   UNL     1     -10.556  55.772  48.405  0.00  0.00    +0.000 C 
ATOM      2  C   UNL     1      -9.153  55.536  48.778  0.00  0.00    +0.000 C 
ATOM      3  C   UNL     1     -10.661  55.412  47.120  0.00  0.00    +0.000 C 
ATOM      4  O   UNL     1      -8.692  55.806  49.877  0.00  0.00    +0.000 OA
ATOM      5  N   UNL     1      -8.511  55.024  47.671  0.00  0.00    +0.000 N 
ATOM      6  O   UNL     1     -11.744  55.636  46.313  0.00  0.00    +0.000 OA
ATOM      7  C   UNL     1      -9.431  54.758  46.568  0.00  0.00    +0.000 C 
ENDROOT
BRANCH   1  13
ATOM      8  S   UNL     1     -13.169  56.038  51.265  0.00  0.00    +0.000 S 
ATOM      9  O   UNL     1     -12.479  56.269  52.520  0.00  0.00    +0.000 OA
ATOM     10  O   UNL     1     -14.310  55.149  51.209  0.00  0.00    +0.000 OA
ATOM     11  N   UNL     1     -12.089  55.519  50.176  0.00  0.00    +0.000 N 
ATOM     12  C   UNL     1     -13.753  57.614  50.737  0.00  0.00    +0.000 A 
ATOM     13  C   UNL     1     -11.610  56.333  49.282  0.00  0.00    +0.000 C 
ATOM     14  C   UNL     1     -13.066  58.243  49.709  0.00  0.00    +0.000 A 
ATOM     15  C   UNL     1     -14.879  58.176  51.338  0.00  0.00    +0.000 A 
ATOM     16  N   UNL     1     -11.970  57.648  49.100  0.00  0.00    +0.000 N 
ATOM     17  C   UNL     1     -13.532  59.489  49.274  0.00  0.00    +0.000 A 
ATOM     18  C   UNL     1     -15.332  59.414  50.891  0.00  0.00    +0.000 A 
ATOM     19  C   UNL     1     -14.662  60.065  49.855  0.00  0.00    +0.000 A 
ATOM     20  H   UNL     1     -11.792  54.580  50.191  0.00  0.00    +0.000 HD
ATOM     21  H   UNL     1     -11.419  58.200  48.500  0.00  0.00    +0.000 HD
ENDBRANCH   1  13
BRANCH   7  22
ATOM     22  C   UNL     1      -9.510  53.239  46.216  0.00  0.00    +0.000 C 
ATOM     23  C   UNL     1      -8.439  52.750  45.223  0.00  0.00    +0.000 C 
ATOM     24  C   UNL     1     -10.887  52.710  45.769  0.00  0.00    +0.000 C 
ATOM     25  C   UNL     1      -8.758  52.950  43.741  0.00  0.00    +0.000 C 
ATOM     26  C   UNL     1     -11.254  53.077  44.340  0.00  0.00    +0.000 C 
ATOM     27  C   UNL     1     -10.195  52.629  43.340  0.00  0.00    +0.000 C 
ENDBRANCH   7  22
BRANCH   5  28
ATOM     28  C   UNL     1      -7.097  54.694  47.641  0.00  0.00    +0.000 C 
BRANCH  28  29
ATOM     29  C   UNL     1      -6.772  53.438  48.452  0.00  0.00    +0.000 C 
BRANCH  29  30
ATOM     30  C   UNL     1      -5.691  53.635  49.544  0.00  0.00    +0.000 C 
ATOM     31  C   UNL     1      -4.503  52.684  49.319  0.00  0.00    +0.000 C 
ATOM     32  C   UNL     1      -5.178  55.085  49.468  0.00  0.00    +0.000 C 
ATOM     33  C   UNL     1      -6.279  53.396  50.945  0.00  0.00    +0.000 C 
ENDBRANCH  29  30
ENDBRANCH  28  29
ENDBRANCH   5  28
TORSDOF 5
ENDMDL
