MODEL 1
REMARK VINA RESULT:      -8.8      0.000      0.000
REMARK  Name = 
REMARK  7 active torsions:
REMARK  status: ('A' for Active; 'I' for Inactive)
REMARK    1  A    between atoms: C_6  and  C_10
REMARK    2  A    between atoms: N_17  and  C_20
REMARK    3  A    between atoms: C_19  and  C_21
REMARK    4  A    between atoms: C_20  and  C_22
REMARK    5  A    between atoms: C_21  and  C_23
REMARK    6  A    between atoms: C_21  and  C_24
REMARK    7  A    between atoms: C_23  and  C_27
REMARK                            x       y       z     vdW  Elec       q    Type
REMARK                         _______ _______ _______ _____ _____    ______ ____
ROOT
ATOM      1  C   UNL     1     -10.925  55.233  47.907  0.00  0.00    +0.000 C 
ATOM      2  C   UNL     1     -12.249  55.837  47.726  0.00  0.00    +0.000 C 
ATOM      3  C   UNL     1     -10.605  55.445  49.190  0.00  0.00    +0.000 C 
ATOM      4  O   UNL     1     -12.768  55.991  46.631  0.00  0.00    +0.000 OA
ATOM      5  N   UNL     1     -12.735  56.200  48.967  0.00  0.00    +0.000 N 
ATOM      6  O   UNL     1      -9.396  55.132  49.763  0.00  0.00    +0.000 OA
ATOM      7  C   UNL     1     -11.698  56.132  50.003  0.00  0.00    +0.000 C 
ENDROOT
BRANCH   1  13
ATOM      8  S   UNL     1      -7.973  54.350  45.516  0.00  0.00    +0.000 S 
ATOM      9  O   UNL     1      -7.030  53.521  46.242  0.00  0.00    +0.000 OA
ATOM     10  O   UNL     1      -7.497  55.376  44.609  0.00  0.00    +0.000 OA
ATOM     11  N   UNL     1      -8.953  55.065  46.596  0.00  0.00    +0.000 N 
ATOM     12  C   UNL     1      -8.937  53.247  44.543  0.00  0.00    +0.000 A 
ATOM     13  C   UNL     1     -10.144  54.589  46.812  0.00  0.00    +0.000 C 
ATOM     14  C   UNL     1     -10.221  52.960  44.983  0.00  0.00    +0.000 A 
ATOM     15  C   UNL     1      -8.410  52.692  43.373  0.00  0.00    +0.000 A 
ATOM     16  N   UNL     1     -10.733  53.542  46.135  0.00  0.00    +0.000 N 
ATOM     17  C   UNL     1     -11.000  52.085  44.219  0.00  0.00    +0.000 A 
ATOM     18  C   UNL     1      -9.199  51.826  42.620  0.00  0.00    +0.000 A 
ATOM     19  C   UNL     1     -10.493  51.523  43.041  0.00  0.00    +0.000 A 
ATOM     20  H   UNL     1      -8.646  55.860  47.089  0.00  0.00    +0.000 HD
ATOM     21  H   UNL     1     -11.575  53.182  46.495  0.00  0.00    +0.000 HD
ENDBRANCH   1  13
BRANCH   7  22
ATOM     22  C   UNL     1     -12.092  55.366  51.309  0.00  0.00    +0.000 C 
ATOM     23  C   UNL     1     -12.415  53.883  51.037  0.00  0.00    +0.000 C 
BRANCH  22  24
ATOM     24  C   UNL     1     -11.050  55.410  52.453  0.00  0.00    +0.000 C 
ATOM     25  C   UNL     1     -10.540  54.056  52.930  0.00  0.00    +0.000 C 
ENDBRANCH  22  24
ENDBRANCH   7  22
BRANCH   5  26
ATOM     26  C   UNL     1     -13.931  57.022  49.044  0.00  0.00    +0.000 C 
BRANCH  26  27
ATOM     27  C   UNL     1     -14.330  57.435  50.451  0.00  0.00    +0.000 A 
ATOM     28  C   UNL     1     -13.903  58.624  51.064  0.00  0.00    +0.000 A 
ATOM     29  C   UNL     1     -15.181  56.585  51.178  0.00  0.00    +0.000 A 
ATOM     30  C   UNL     1     -14.334  58.964  52.351  0.00  0.00    +0.000 A 
ATOM     31  C   UNL     1     -15.615  56.928  52.462  0.00  0.00    +0.000 A 
ATOM     32  C   UNL     1     -15.196  58.121  53.044  0.00  0.00    +0.000 A 
ENDBRANCH  26  27
ENDBRANCH   5  26
TORSDOF 5
ENDMDL
MODEL 2
REMARK VINA RESULT:      -8.7      2.713      8.163
REMARK  Name = 
REMARK  7 active torsions:
REMARK  status: ('A' for Active; 'I' for Inactive)
REMARK    1  A    between atoms: C_6  and  C_10
REMARK    2  A    between atoms: N_17  and  C_20
REMARK    3  A    between atoms: C_19  and  C_21
REMARK    4  A    between atoms: C_20  and  C_22
REMARK    5  A    between atoms: C_21  and  C_23
REMARK    6  A    between atoms: C_21  and  C_24
REMARK    7  A    between atoms: C_23  and  C_27
REMARK                            x       y       z     vdW  Elec       q    Type
REMARK                         _______ _______ _______ _____ _____    ______ ____
ROOT
ATOM      1  C   UNL     1     -11.092  55.778  49.281  0.00  0.00    +0.000 C 
ATOM      2  C   UNL     1     -11.404  54.459  48.720  0.00  0.00    +0.000 C 
ATOM      3  C   UNL     1      -9.755  55.841  49.330  0.00  0.00    +0.000 C 
ATOM      4  O   UNL     1     -12.532  53.991  48.705  0.00  0.00    +0.000 OA
ATOM      5  N   UNL     1     -10.229  53.886  48.276  0.00  0.00    +0.000 N 
ATOM      6  O   UNL     1      -9.034  56.868  49.888  0.00  0.00    +0.000 OA
ATOM      7  C   UNL     1      -9.049  54.622  48.743  0.00  0.00    +0.000 C 
ENDROOT
BRANCH   1  13
ATOM      8  S   UNL     1     -13.368  58.943  49.385  0.00  0.00    +0.000 S 
ATOM      9  O   UNL     1     -14.414  58.786  48.393  0.00  0.00    +0.000 OA
ATOM     10  O   UNL     1     -12.737  60.234  49.584  0.00  0.00    +0.000 OA
ATOM     11  N   UNL     1     -12.196  57.867  49.058  0.00  0.00    +0.000 N 
ATOM     12  C   UNL     1     -14.095  58.513  50.928  0.00  0.00    +0.000 A 
ATOM     13  C   UNL     1     -12.121  56.758  49.732  0.00  0.00    +0.000 C 
ATOM     14  C   UNL     1     -13.784  57.269  51.457  0.00  0.00    +0.000 A 
ATOM     15  C   UNL     1     -14.950  59.407  51.579  0.00  0.00    +0.000 A 
ATOM     16  N   UNL     1     -12.913  56.407  50.804  0.00  0.00    +0.000 N 
ATOM     17  C   UNL     1     -14.355  56.914  52.684  0.00  0.00    +0.000 A 
ATOM     18  C   UNL     1     -15.506  59.041  52.803  0.00  0.00    +0.000 A 
ATOM     19  C   UNL     1     -15.209  57.796  53.356  0.00  0.00    +0.000 A 
ATOM     20  H   UNL     1     -11.540  58.055  48.348  0.00  0.00    +0.000 HD
ATOM     21  H   UNL     1     -12.858  55.480  51.129  0.00  0.00    +0.000 HD
ENDBRANCH   1  13
BRANCH   7  22
ATOM     22  C   UNL     1      -7.987  54.971  47.648  0.00  0.00    +0.000 C 
ATOM     23  C   UNL     1      -6.963  53.835  47.452  0.00  0.00    +0.000 C 
BRANCH  22  24
ATOM     24  C   UNL     1      -8.555  55.329  46.253  0.00  0.00    +0.000 C 
ATOM     25  C   UNL     1      -7.786  54.763  45.066  0.00  0.00    +0.000 C 
ENDBRANCH  22  24
ENDBRANCH   7  22
BRANCH   5  26
ATOM     26  C   UNL     1     -10.230  52.487  47.881  0.00  0.00    +0.000 C 
BRANCH  26  27
ATOM     27  C   UNL     1     -10.214  52.248  46.381  0.00  0.00    +0.000 A 
ATOM     28  C   UNL     1     -11.094  52.875  45.484  0.00  0.00    +0.000 A 
ATOM     29  C   UNL     1      -9.263  51.355  45.859  0.00  0.00    +0.000 A 
ATOM     30  C   UNL     1     -11.006  52.639  44.108  0.00  0.00    +0.000 A 
ATOM     31  C   UNL     1      -9.173  51.123  44.484  0.00  0.00    +0.000 A 
ATOM     32  C   UNL     1     -10.040  51.771  43.608  0.00  0.00    +0.000 A 
ENDBRANCH  26  27
ENDBRANCH   5  26
TORSDOF 5
ENDMDL
MODEL 3
REMARK VINA RESULT:      -8.5      3.429      5.874
REMARK  Name = 
REMARK  7 active torsions:
REMARK  status: ('A' for Active; 'I' for Inactive)
REMARK    1  A    between atoms: C_6  and  C_10
REMARK    2  A    between atoms: N_17  and  C_20
REMARK    3  A    between atoms: C_19  and  C_21
REMARK    4  A    between atoms: C_20  and  C_22
REMARK    5  A    between atoms: C_21  and  C_23
REMARK    6  A    between atoms: C_21  and  C_24
REMARK    7  A    between atoms: C_23  and  C_27
REMARK                            x       y       z     vdW  Elec       q    Type
REMARK                         _______ _______ _______ _____ _____    ______ ____
ROOT
ATOM      1  C   UNL     1      -9.454  54.918  50.079  0.00  0.00    +0.000 C 
ATOM      2  C   UNL     1     -10.608  54.639  50.940  0.00  0.00    +0.000 C 
ATOM      3  C   UNL     1      -9.967  55.258  48.889  0.00  0.00    +0.000 C 
ATOM      4  O   UNL     1     -10.507  54.123  52.043  0.00  0.00    +0.000 OA
ATOM      5  N   UNL     1     -11.753  55.025  50.272  0.00  0.00    +0.000 N 
ATOM      6  O   UNL     1      -9.234  55.500  47.754  0.00  0.00    +0.000 OA
ATOM      7  C   UNL     1     -11.492  55.315  48.859  0.00  0.00    +0.000 C 
ENDROOT
BRANCH   1  13
ATOM      8  S   UNL     1      -5.628  54.174  49.957  0.00  0.00    +0.000 S 
ATOM      9  O   UNL     1      -4.971  55.272  49.275  0.00  0.00    +0.000 OA
ATOM     10  O   UNL     1      -5.204  52.807  49.720  0.00  0.00    +0.000 OA
ATOM     11  N   UNL     1      -7.218  54.258  49.636  0.00  0.00    +0.000 N 
ATOM     12  C   UNL     1      -5.399  54.465  51.676  0.00  0.00    +0.000 A 
ATOM     13  C   UNL     1      -8.035  54.768  50.509  0.00  0.00    +0.000 C 
ATOM     14  C   UNL     1      -6.478  54.960  52.392  0.00  0.00    +0.000 A 
ATOM     15  C   UNL     1      -4.165  54.199  52.279  0.00  0.00    +0.000 A 
ATOM     16  N   UNL     1      -7.702  55.194  51.777  0.00  0.00    +0.000 N 
ATOM     17  C   UNL     1      -6.310  55.196  53.760  0.00  0.00    +0.000 A 
ATOM     18  C   UNL     1      -4.015  54.434  53.643  0.00  0.00    +0.000 A 
ATOM     19  C   UNL     1      -5.086  54.931  54.385  0.00  0.00    +0.000 A 
ATOM     20  H   UNL     1      -7.565  53.923  48.777  0.00  0.00    +0.000 HD
ATOM     21  H   UNL     1      -8.378  55.699  52.282  0.00  0.00    +0.000 HD
ENDBRANCH   1  13
BRANCH   7  22
ATOM     22  C   UNL     1     -12.065  56.671  48.326  0.00  0.00    +0.000 C 
ATOM     23  C   UNL     1     -13.477  56.509  47.729  0.00  0.00    +0.000 C 
BRANCH  22  24
ATOM     24  C   UNL     1     -12.127  57.825  49.356  0.00  0.00    +0.000 C 
ATOM     25  C   UNL     1     -13.358  58.717  49.270  0.00  0.00    +0.000 C 
ENDBRANCH  22  24
ENDBRANCH   7  22
BRANCH   5  26
ATOM     26  C   UNL     1     -13.049  54.649  50.816  0.00  0.00    +0.000 C 
BRANCH  26  27
ATOM     27  C   UNL     1     -13.850  55.798  51.404  0.00  0.00    +0.000 A 
ATOM     28  C   UNL     1     -15.168  56.102  51.024  0.00  0.00    +0.000 A 
ATOM     29  C   UNL     1     -13.244  56.598  52.388  0.00  0.00    +0.000 A 
ATOM     30  C   UNL     1     -15.865  57.153  51.630  0.00  0.00    +0.000 A 
ATOM     31  C   UNL     1     -13.943  57.645  52.994  0.00  0.00    +0.000 A 
ATOM     32  C   UNL     1     -15.256  57.917  52.620  0.00  0.00    +0.000 A 
ENDBRANCH  26  27
ENDBRANCH   5  26
TORSDOF 5
ENDMDL
MODEL 4
REMARK VINA RESULT:      -8.4      2.790      8.176
REMARK  Name = 
REMARK  7 active torsions:
REMARK  status: ('A' for Active; 'I' for Inactive)
REMARK    1  A    between atoms: C_6  and  C_10
REMARK    2  A    between atoms: N_17  and  C_20
REMARK    3  A    between atoms: C_19  and  C_21
REMARK    4  A    between atoms: C_20  and  C_22
REMARK    5  A    between atoms: C_21  and  C_23
REMARK    6  A    between atoms: C_21  and  C_24
REMARK    7  A    between atoms: C_23  and  C_27
REMARK                            x       y       z     vdW  Elec       q    Type
REMARK                         _______ _______ _______ _____ _____    ______ ____
ROOT
ATOM      1  C   UNL     1     -11.205  55.120  49.132  0.00  0.00    +0.000 C 
ATOM      2  C   UNL     1     -11.400  53.874  48.382  0.00  0.00    +0.000 C 
ATOM      3  C   UNL     1      -9.880  55.251  49.275  0.00  0.00    +0.000 C 
ATOM      4  O   UNL     1     -12.493  53.350  48.233  0.00  0.00    +0.000 OA
ATOM      5  N   UNL     1     -10.167  53.434  47.943  0.00  0.00    +0.000 N 
ATOM      6  O   UNL     1      -9.259  56.232  50.009  0.00  0.00    +0.000 OA
ATOM      7  C   UNL     1      -9.065  54.164  48.579  0.00  0.00    +0.000 C 
ENDROOT
BRANCH   1  13
ATOM      8  S   UNL     1     -14.535  56.178  50.865  0.00  0.00    +0.000 S 
ATOM      9  O   UNL     1     -14.335  56.136  52.301  0.00  0.00    +0.000 OA
ATOM     10  O   UNL     1     -15.783  55.719  50.287  0.00  0.00    +0.000 OA
ATOM     11  N   UNL     1     -13.331  55.343  50.163  0.00  0.00    +0.000 N 
ATOM     12  C   UNL     1     -14.375  57.867  50.403  0.00  0.00    +0.000 A 
ATOM     13  C   UNL     1     -12.319  55.971  49.642  0.00  0.00    +0.000 C 
ATOM     14  C   UNL     1     -13.191  58.255  49.794  0.00  0.00    +0.000 A 
ATOM     15  C   UNL     1     -15.415  58.768  50.648  0.00  0.00    +0.000 A 
ATOM     16  N   UNL     1     -12.180  57.338  49.537  0.00  0.00    +0.000 N 
ATOM     17  C   UNL     1     -13.050  59.596  49.420  0.00  0.00    +0.000 A 
ATOM     18  C   UNL     1     -15.262  60.099  50.266  0.00  0.00    +0.000 A 
ATOM     19  C   UNL     1     -14.082  60.513  49.651  0.00  0.00    +0.000 A 
ATOM     20  H   UNL     1     -13.367  54.359  50.132  0.00  0.00    +0.000 HD
ATOM     21  H   UNL     1     -11.303  57.688  49.262  0.00  0.00    +0.000 HD
ENDBRANCH   1  13
BRANCH   7  22
ATOM     22  C   UNL     1      -7.968  54.718  47.610  0.00  0.00    +0.000 C 
ATOM     23  C   UNL     1      -6.880  53.669  47.308  0.00  0.00    +0.000 C 
BRANCH  22  24
ATOM     24  C   UNL     1      -8.481  55.257  46.252  0.00  0.00    +0.000 C 
ATOM     25  C   UNL     1      -7.663  54.853  45.033  0.00  0.00    +0.000 C 
ENDBRANCH  22  24
ENDBRANCH   7  22
BRANCH   5  26
ATOM     26  C   UNL     1     -10.056  52.103  47.368  0.00  0.00    +0.000 C 
BRANCH  26  27
ATOM     27  C   UNL     1      -9.921  52.072  45.855  0.00  0.00    +0.000 A 
ATOM     28  C   UNL     1     -10.795  52.742  44.982  0.00  0.00    +0.000 A 
ATOM     29  C   UNL     1      -8.860  51.340  45.295  0.00  0.00    +0.000 A 
ATOM     30  C   UNL     1     -10.596  52.702  43.598  0.00  0.00    +0.000 A 
ATOM     31  C   UNL     1      -8.660  51.306  43.913  0.00  0.00    +0.000 A 
ATOM     32  C   UNL     1      -9.524  51.993  43.065  0.00  0.00    +0.000 A 
ENDBRANCH  26  27
ENDBRANCH   5  26
TORSDOF 5
ENDMDL
MODEL 5
REMARK VINA RESULT:      -8.3      3.715      6.054
REMARK  Name = 
REMARK  7 active torsions:
REMARK  status: ('A' for Active; 'I' for Inactive)
REMARK    1  A    between atoms: C_6  and  C_10
REMARK    2  A    between atoms: N_17  and  C_20
REMARK    3  A    between atoms: C_19  and  C_21
REMARK    4  A    between atoms: C_20  and  C_22
REMARK    5  A    between atoms: C_21  and  C_23
REMARK    6  A    between atoms: C_21  and  C_24
REMARK    7  A    between atoms: C_23  and  C_27
REMARK                            x       y       z     vdW  Elec       q    Type
REMARK                         _______ _______ _______ _____ _____    ______ ____
ROOT
ATOM      1  C   UNL     1     -10.254  54.290  50.680  0.00  0.00    +0.000 C 
ATOM      2  C   UNL     1     -11.421  55.051  51.140  0.00  0.00    +0.000 C 
ATOM      3  C   UNL     1     -10.632  53.711  49.533  0.00  0.00    +0.000 C 
ATOM      4  O   UNL     1     -11.492  55.555  52.250  0.00  0.00    +0.000 OA
ATOM      5  N   UNL     1     -12.368  55.046  50.135  0.00  0.00    +0.000 N 
ATOM      6  O   UNL     1      -9.875  52.819  48.813  0.00  0.00    +0.000 OA
ATOM      7  C   UNL     1     -12.041  54.083  49.078  0.00  0.00    +0.000 C 
ENDROOT
BRANCH   1  13
ATOM      8  S   UNL     1      -7.726  54.166  53.646  0.00  0.00    +0.000 S 
ATOM      9  O   UNL     1      -7.827  52.865  54.278  0.00  0.00    +0.000 OA
ATOM     10  O   UNL     1      -7.557  55.360  54.452  0.00  0.00    +0.000 OA
ATOM     11  N   UNL     1      -9.041  54.381  52.717  0.00  0.00    +0.000 N 
ATOM     12  C   UNL     1      -6.318  54.085  52.595  0.00  0.00    +0.000 A 
ATOM     13  C   UNL     1      -8.971  54.191  51.433  0.00  0.00    +0.000 C 
ATOM     14  C   UNL     1      -6.542  53.944  51.234  0.00  0.00    +0.000 A 
ATOM     15  C   UNL     1      -5.029  54.163  53.133  0.00  0.00    +0.000 A 
ATOM     16  N   UNL     1      -7.831  53.893  50.719  0.00  0.00    +0.000 N 
ATOM     17  C   UNL     1      -5.431  53.878  50.386  0.00  0.00    +0.000 A 
ATOM     18  C   UNL     1      -3.933  54.102  52.275  0.00  0.00    +0.000 A 
ATOM     19  C   UNL     1      -4.133  53.961  50.903  0.00  0.00    +0.000 A 
ATOM     20  H   UNL     1      -9.893  54.655  53.127  0.00  0.00    +0.000 HD
ATOM     21  H   UNL     1      -7.937  53.624  49.779  0.00  0.00    +0.000 HD
ENDBRANCH   1  13
BRANCH   7  22
ATOM     22  C   UNL     1     -12.109  54.631  47.614  0.00  0.00    +0.000 C 
ATOM     23  C   UNL     1     -11.045  55.714  47.350  0.00  0.00    +0.000 C 
BRANCH  22  24
ATOM     24  C   UNL     1     -11.978  53.570  46.494  0.00  0.00    +0.000 C 
ATOM     25  C   UNL     1     -10.890  53.836  45.461  0.00  0.00    +0.000 C 
ENDBRANCH  22  24
ENDBRANCH   7  22
BRANCH   5  26
ATOM     26  C   UNL     1     -13.705  55.540  50.422  0.00  0.00    +0.000 C 
BRANCH  26  27
ATOM     27  C   UNL     1     -13.849  57.051  50.375  0.00  0.00    +0.000 A 
ATOM     28  C   UNL     1     -13.353  57.849  49.331  0.00  0.00    +0.000 A 
ATOM     29  C   UNL     1     -14.523  57.689  51.431  0.00  0.00    +0.000 A 
ATOM     30  C   UNL     1     -13.549  59.234  49.331  0.00  0.00    +0.000 A 
ATOM     31  C   UNL     1     -14.722  59.072  51.427  0.00  0.00    +0.000 A 
ATOM     32  C   UNL     1     -14.241  59.843  50.372  0.00  0.00    +0.000 A 
ENDBRANCH  26  27
ENDBRANCH   5  26
TORSDOF 5
ENDMDL
MODEL 6
REMARK VINA RESULT:      -8.3      3.383      6.079
REMARK  Name = 
REMARK  7 active torsions:
REMARK  status: ('A' for Active; 'I' for Inactive)
REMARK    1  A    between atoms: C_6  and  C_10
REMARK    2  A    between atoms: N_17  and  C_20
REMARK    3  A    between atoms: C_19  and  C_21
REMARK    4  A    between atoms: C_20  and  C_22
REMARK    5  A    between atoms: C_21  and  C_23
REMARK    6  A    between atoms: C_21  and  C_24
REMARK    7  A    between atoms: C_23  and  C_27
REMARK                            x       y       z     vdW  Elec       q    Type
REMARK                         _______ _______ _______ _____ _____    ______ ____
ROOT
ATOM      1  C   UNL     1      -9.466  54.328  50.157  0.00  0.00    +0.000 C 
ATOM      2  C   UNL     1     -10.575  54.971  50.869  0.00  0.00    +0.000 C 
ATOM      3  C   UNL     1     -10.025  53.699  49.115  0.00  0.00    +0.000 C 
ATOM      4  O   UNL     1     -10.453  55.479  51.974  0.00  0.00    +0.000 OA
ATOM      5  N   UNL     1     -11.714  54.857  50.097  0.00  0.00    +0.000 N 
ATOM      6  O   UNL     1      -9.356  52.881  48.237  0.00  0.00    +0.000 OA
ATOM      7  C   UNL     1     -11.529  53.920  48.983  0.00  0.00    +0.000 C 
ENDROOT
BRANCH   1  13
ATOM      8  S   UNL     1      -5.572  54.132  50.089  0.00  0.00    +0.000 S 
ATOM      9  O   UNL     1      -5.066  55.325  49.438  0.00  0.00    +0.000 OA
ATOM     10  O   UNL     1      -4.956  52.844  49.836  0.00  0.00    +0.000 OA
ATOM     11  N   UNL     1      -7.153  53.998  49.741  0.00  0.00    +0.000 N 
ATOM     12  C   UNL     1      -5.411  54.419  51.817  0.00  0.00    +0.000 A 
ATOM     13  C   UNL     1      -8.046  54.371  50.609  0.00  0.00    +0.000 C 
ATOM     14  C   UNL     1      -6.560  54.743  52.522  0.00  0.00    +0.000 A 
ATOM     15  C   UNL     1      -4.162  54.318  52.436  0.00  0.00    +0.000 A 
ATOM     16  N   UNL     1      -7.795  54.814  51.890  0.00  0.00    +0.000 N 
ATOM     17  C   UNL     1      -6.448  54.974  53.897  0.00  0.00    +0.000 A 
ATOM     18  C   UNL     1      -4.066  54.545  53.807  0.00  0.00    +0.000 A 
ATOM     19  C   UNL     1      -5.208  54.872  54.538  0.00  0.00    +0.000 A 
ATOM     20  H   UNL     1      -7.436  53.634  48.871  0.00  0.00    +0.000 HD
ATOM     21  H   UNL     1      -8.544  55.209  52.392  0.00  0.00    +0.000 HD
ENDBRANCH   1  13
BRANCH   7  22
ATOM     22  C   UNL     1     -11.973  54.439  47.576  0.00  0.00    +0.000 C 
ATOM     23  C   UNL     1     -11.087  55.599  47.080  0.00  0.00    +0.000 C 
BRANCH  22  24
ATOM     24  C   UNL     1     -12.016  53.376  46.451  0.00  0.00    +0.000 C 
ATOM     25  C   UNL     1     -11.268  53.740  45.174  0.00  0.00    +0.000 C 
ENDBRANCH  22  24
ENDBRANCH   7  22
BRANCH   5  26
ATOM     26  C   UNL     1     -12.999  55.214  50.674  0.00  0.00    +0.000 C 
BRANCH  26  27
ATOM     27  C   UNL     1     -13.343  56.692  50.598  0.00  0.00    +0.000 A 
ATOM     28  C   UNL     1     -13.057  57.502  49.487  0.00  0.00    +0.000 A 
ATOM     29  C   UNL     1     -13.990  57.283  51.697  0.00  0.00    +0.000 A 
ATOM     30  C   UNL     1     -13.431  58.849  49.465  0.00  0.00    +0.000 A 
ATOM     31  C   UNL     1     -14.367  58.628  51.672  0.00  0.00    +0.000 A 
ATOM     32  C   UNL     1     -14.094  59.409  50.553  0.00  0.00    +0.000 A 
ENDBRANCH  26  27
ENDBRANCH   5  26
TORSDOF 5
ENDMDL
MODEL 7
REMARK VINA RESULT:      -8.2      3.182      6.407
REMARK  Name = 
REMARK  7 active torsions:
REMARK  status: ('A' for Active; 'I' for Inactive)
REMARK    1  A    between atoms: C_6  and  C_10
REMARK    2  A    between atoms: N_17  and  C_20
REMARK    3  A    between atoms: C_19  and  C_21
REMARK    4  A    between atoms: C_20  and  C_22
REMARK    5  A    between atoms: C_21  and  C_23
REMARK    6  A    between atoms: C_21  and  C_24
REMARK    7  A    between atoms: C_23  and  C_27
REMARK                            x       y       z     vdW  Elec       q    Type
REMARK                         _______ _______ _______ _____ _____    ______ ____
ROOT
ATOM      1  C   UNL     1     -10.729  54.281  50.923  0.00  0.00    +0.000 C 
ATOM      2  C   UNL     1     -11.902  55.117  51.205  0.00  0.00    +0.000 C 
ATOM      3  C   UNL     1     -10.967  53.717  49.732  0.00  0.00    +0.000 C 
ATOM      4  O   UNL     1     -12.106  55.633  52.293  0.00  0.00    +0.000 OA
ATOM      5  N   UNL     1     -12.686  55.163  50.069  0.00  0.00    +0.000 N 
ATOM      6  O   UNL     1     -10.169  52.774  49.132  0.00  0.00    +0.000 OA
ATOM      7  C   UNL     1     -12.265  54.173  49.072  0.00  0.00    +0.000 C 
ENDROOT
BRANCH   1  13
ATOM      8  S   UNL     1      -7.356  54.923  52.772  0.00  0.00    +0.000 S 
ATOM      9  O   UNL     1      -7.553  56.004  53.718  0.00  0.00    +0.000 OA
ATOM     10  O   UNL     1      -6.128  54.836  52.005  0.00  0.00    +0.000 OA
ATOM     11  N   UNL     1      -8.593  54.941  51.719  0.00  0.00    +0.000 N 
ATOM     12  C   UNL     1      -7.452  53.437  53.708  0.00  0.00    +0.000 A 
ATOM     13  C   UNL     1      -9.582  54.109  51.860  0.00  0.00    +0.000 C 
ATOM     14  C   UNL     1      -8.622  52.698  53.619  0.00  0.00    +0.000 A 
ATOM     15  C   UNL     1      -6.377  53.034  54.506  0.00  0.00    +0.000 A 
ATOM     16  N   UNL     1      -9.669  53.105  52.801  0.00  0.00    +0.000 N 
ATOM     17  C   UNL     1      -8.713  51.514  54.358  0.00  0.00    +0.000 A 
ATOM     18  C   UNL     1      -6.480  51.850  55.232  0.00  0.00    +0.000 A 
ATOM     19  C   UNL     1      -7.646  51.089  55.158  0.00  0.00    +0.000 A 
ATOM     20  H   UNL     1      -8.595  55.583  50.973  0.00  0.00    +0.000 HD
ATOM     21  H   UNL     1     -10.533  52.645  52.900  0.00  0.00    +0.000 HD
ENDBRANCH   1  13
BRANCH   7  22
ATOM     22  C   UNL     1     -12.080  54.712  47.615  0.00  0.00    +0.000 C 
ATOM     23  C   UNL     1     -10.910  55.710  47.511  0.00  0.00    +0.000 C 
BRANCH  22  24
ATOM     24  C   UNL     1     -11.868  53.635  46.522  0.00  0.00    +0.000 C 
ATOM     25  C   UNL     1     -10.831  53.973  45.459  0.00  0.00    +0.000 C 
ENDBRANCH  22  24
ENDBRANCH   7  22
BRANCH   5  26
ATOM     26  C   UNL     1     -14.017  55.741  50.153  0.00  0.00    +0.000 C 
BRANCH  26  27
ATOM     27  C   UNL     1     -14.053  57.259  50.158  0.00  0.00    +0.000 A 
ATOM     28  C   UNL     1     -13.271  58.060  49.309  0.00  0.00    +0.000 A 
ATOM     29  C   UNL     1     -14.921  57.902  51.057  0.00  0.00    +0.000 A 
ATOM     30  C   UNL     1     -13.376  59.454  49.338  0.00  0.00    +0.000 A 
ATOM     31  C   UNL     1     -15.028  59.295  51.083  0.00  0.00    +0.000 A 
ATOM     32  C   UNL     1     -14.260  60.070  50.218  0.00  0.00    +0.000 A 
ENDBRANCH  26  27
ENDBRANCH   5  26
TORSDOF 5
ENDMDL
MODEL 8
REMARK VINA RESULT:      -8.1      3.159      7.826
REMARK  Name = 
REMARK  7 active torsions:
REMARK  status: ('A' for Active; 'I' for Inactive)
REMARK    1  A    between atoms: C_6  and  C_10
REMARK    2  A    between atoms: N_17  and  C_20
REMARK    3  A    between atoms: C_19  and  C_21
REMARK    4  A    between atoms: C_20  and  C_22
REMARK    5  A    between atoms: C_21  and  C_23
REMARK    6  A    between atoms: C_21  and  C_24
REMARK    7  A    between atoms: C_23  and  C_27
REMARK                            x       y       z     vdW  Elec       q    Type
REMARK                         _______ _______ _______ _____ _____    ______ ____
ROOT
ATOM      1  C   UNL     1     -12.368  54.490  49.831  0.00  0.00    +0.000 C 
ATOM      2  C   UNL     1     -12.078  54.259  48.412  0.00  0.00    +0.000 C 
ATOM      3  C   UNL     1     -11.927  53.399  50.471  0.00  0.00    +0.000 C 
ATOM      4  O   UNL     1     -12.512  54.970  47.519  0.00  0.00    +0.000 OA
ATOM      5  N   UNL     1     -11.295  53.127  48.307  0.00  0.00    +0.000 N 
ATOM      6  O   UNL     1     -12.093  53.150  51.811  0.00  0.00    +0.000 OA
ATOM      7  C   UNL     1     -11.238  52.380  49.568  0.00  0.00    +0.000 C 
ENDROOT
BRANCH   1  13
ATOM      8  S   UNL     1     -14.399  56.833  52.196  0.00  0.00    +0.000 S 
ATOM      9  O   UNL     1     -13.525  57.270  53.267  0.00  0.00    +0.000 OA
ATOM     10  O   UNL     1     -15.782  56.494  52.473  0.00  0.00    +0.000 OA
ATOM     11  N   UNL     1     -13.713  55.550  51.474  0.00  0.00    +0.000 N 
ATOM     12  C   UNL     1     -14.444  58.156  51.038  0.00  0.00    +0.000 A 
ATOM     13  C   UNL     1     -13.070  55.698  50.355  0.00  0.00    +0.000 C 
ATOM     14  C   UNL     1     -13.700  58.016  49.876  0.00  0.00    +0.000 A 
ATOM     15  C   UNL     1     -15.210  59.297  51.298  0.00  0.00    +0.000 A 
ATOM     16  N   UNL     1     -12.966  56.864  49.627  0.00  0.00    +0.000 N 
ATOM     17  C   UNL     1     -13.726  59.061  48.946  0.00  0.00    +0.000 A 
ATOM     18  C   UNL     1     -15.231  60.326  50.360  0.00  0.00    +0.000 A 
ATOM     19  C   UNL     1     -14.491  60.209  49.184  0.00  0.00    +0.000 A 
ATOM     20  H   UNL     1     -13.784  54.658  51.886  0.00  0.00    +0.000 HD
ATOM     21  H   UNL     1     -12.327  56.881  48.880  0.00  0.00    +0.000 HD
ENDBRANCH   1  13
BRANCH   7  22
ATOM     22  C   UNL     1      -9.808  51.970  50.051  0.00  0.00    +0.000 C 
ATOM     23  C   UNL     1      -9.283  50.721  49.316  0.00  0.00    +0.000 C 
BRANCH  22  24
ATOM     24  C   UNL     1      -8.720  53.066  49.936  0.00  0.00    +0.000 C 
ATOM     25  C   UNL     1      -8.256  53.672  51.254  0.00  0.00    +0.000 C 
ENDBRANCH  22  24
ENDBRANCH   7  22
BRANCH   5  26
ATOM     26  C   UNL     1     -11.055  52.554  46.992  0.00  0.00    +0.000 C 
BRANCH  26  27
ATOM     27  C   UNL     1      -9.961  53.236  46.190  0.00  0.00    +0.000 A 
ATOM     28  C   UNL     1      -9.191  54.307  46.675  0.00  0.00    +0.000 A 
ATOM     29  C   UNL     1      -9.696  52.768  44.891  0.00  0.00    +0.000 A 
ATOM     30  C   UNL     1      -8.174  54.870  45.898  0.00  0.00    +0.000 A 
ATOM     31  C   UNL     1      -8.676  53.329  44.118  0.00  0.00    +0.000 A 
ATOM     32  C   UNL     1      -7.911  54.375  44.625  0.00  0.00    +0.000 A 
ENDBRANCH  26  27
ENDBRANCH   5  26
TORSDOF 5
ENDMDL
MODEL 9
REMARK VINA RESULT:      -8.0      4.174      7.886
REMARK  Name = 
REMARK  7 active torsions:
REMARK  status: ('A' for Active; 'I' for Inactive)
REMARK    1  A    between atoms: C_6  and  C_10
REMARK    2  A    between atoms: N_17  and  C_20
REMARK    3  A    between atoms: C_19  and  C_21
REMARK    4  A    between atoms: C_20  and  C_22
REMARK    5  A    between atoms: C_21  and  C_23
REMARK    6  A    between atoms: C_21  and  C_24
REMARK    7  A    between atoms: C_23  and  C_27
REMARK                            x       y       z     vdW  Elec       q    Type
REMARK                         _______ _______ _______ _____ _____    ______ ____
ROOT
ATOM      1  C   UNL     1     -10.913  54.859  50.604  0.00  0.00    +0.000 C 
ATOM      2  C   UNL     1      -9.497  55.242  50.603  0.00  0.00    +0.000 C 
ATOM      3  C   UNL     1     -10.924  53.520  50.593  0.00  0.00    +0.000 C 
ATOM      4  O   UNL     1      -9.117  56.389  50.426  0.00  0.00    +0.000 OA
ATOM      5  N   UNL     1      -8.739  54.105  50.797  0.00  0.00    +0.000 N 
ATOM      6  O   UNL     1     -12.050  52.742  50.485  0.00  0.00    +0.000 OA
ATOM      7  C   UNL     1      -9.539  52.883  50.662  0.00  0.00    +0.000 C 
ENDROOT
BRANCH   1  13
ATOM      8  S   UNL     1     -13.613  57.311  49.223  0.00  0.00    +0.000 S 
ATOM      9  O   UNL     1     -14.690  56.527  48.647  0.00  0.00    +0.000 OA
ATOM     10  O   UNL     1     -13.165  58.527  48.572  0.00  0.00    +0.000 OA
ATOM     11  N   UNL     1     -12.321  56.343  49.400  0.00  0.00    +0.000 N 
ATOM     12  C   UNL     1     -14.166  57.789  50.823  0.00  0.00    +0.000 A 
ATOM     13  C   UNL     1     -12.042  55.833  50.563  0.00  0.00    +0.000 C 
ATOM     14  C   UNL     1     -13.643  57.106  51.911  0.00  0.00    +0.000 A 
ATOM     15  C   UNL     1     -15.096  58.822  50.970  0.00  0.00    +0.000 A 
ATOM     16  N   UNL     1     -12.701  56.100  51.743  0.00  0.00    +0.000 N 
ATOM     17  C   UNL     1     -14.073  57.476  53.190  0.00  0.00    +0.000 A 
ATOM     18  C   UNL     1     -15.511  59.182  52.250  0.00  0.00    +0.000 A 
ATOM     19  C   UNL     1     -14.999  58.511  53.360  0.00  0.00    +0.000 A 
ATOM     20  H   UNL     1     -11.749  56.140  48.625  0.00  0.00    +0.000 HD
ATOM     21  H   UNL     1     -12.490  55.536  52.522  0.00  0.00    +0.000 HD
ENDBRANCH   1  13
BRANCH   7  22
ATOM     22  C   UNL     1      -9.381  51.836  51.815  0.00  0.00    +0.000 C 
ATOM     23  C   UNL     1      -8.188  50.889  51.577  0.00  0.00    +0.000 C 
BRANCH  22  24
ATOM     24  C   UNL     1      -9.229  52.423  53.239  0.00  0.00    +0.000 C 
ATOM     25  C   UNL     1     -10.519  52.545  54.040  0.00  0.00    +0.000 C 
ENDBRANCH  22  24
ENDBRANCH   7  22
BRANCH   5  26
ATOM     26  C   UNL     1      -7.298  54.176  50.614  0.00  0.00    +0.000 C 
BRANCH  26  27
ATOM     27  C   UNL     1      -6.496  54.253  51.902  0.00  0.00    +0.000 A 
ATOM     28  C   UNL     1      -5.427  53.393  52.205  0.00  0.00    +0.000 A 
ATOM     29  C   UNL     1      -6.835  55.242  52.840  0.00  0.00    +0.000 A 
ATOM     30  C   UNL     1      -4.704  53.537  53.394  0.00  0.00    +0.000 A 
ATOM     31  C   UNL     1      -6.110  55.388  54.026  0.00  0.00    +0.000 A 
ATOM     32  C   UNL     1      -5.040  54.540  54.299  0.00  0.00    +0.000 A 
ENDBRANCH  26  27
ENDBRANCH   5  26
TORSDOF 5
ENDMDL
