MODEL 1
REMARK VINA RESULT:      -7.8      0.000      0.000
REMARK  Name = 
REMARK  8 active torsions:
REMARK  status: ('A' for Active; 'I' for Inactive)
REMARK    1  A    between atoms: C_6  and  C_10
REMARK    2  A    between atoms: N_17  and  C_20
REMARK    3  A    between atoms: C_19  and  C_21
REMARK    4  A    between atoms: C_20  and  C_22
REMARK    5  A    between atoms: C_21  and  C_23
REMARK    6  A    between atoms: C_22  and  C_24
REMARK    7  A    between atoms: C_24  and  C_27
REMARK    8  A    between atoms: C_24  and  C_28
REMARK                            x       y       z     vdW  Elec       q    Type
REMARK                         _______ _______ _______ _____ _____    ______ ____
ROOT
ATOM      1  C   UNL     1     -12.431  55.002  48.673  0.00  0.00    +0.000 C 
ATOM      2  C   UNL     1     -12.083  53.736  49.341  0.00  0.00    +0.000 C 
ATOM      3  C   UNL     1     -11.984  54.892  47.415  0.00  0.00    +0.000 C 
ATOM      4  O   UNL     1     -12.245  53.532  50.533  0.00  0.00    +0.000 OA
ATOM      5  N   UNL     1     -11.540  52.892  48.390  0.00  0.00    +0.000 N 
ATOM      6  O   UNL     1     -12.053  55.850  46.433  0.00  0.00    +0.000 OA
ATOM      7  C   UNL     1     -11.316  53.578  47.126  0.00  0.00    +0.000 C 
ENDROOT
BRANCH   1  13
ATOM      8  S   UNL     1     -13.480  58.691  49.306  0.00  0.00    +0.000 S 
ATOM      9  O   UNL     1     -14.550  59.070  48.405  0.00  0.00    +0.000 OA
ATOM     10  O   UNL     1     -12.400  59.618  49.590  0.00  0.00    +0.000 OA
ATOM     11  N   UNL     1     -12.813  57.327  48.753  0.00  0.00    +0.000 N 
ATOM     12  C   UNL     1     -14.239  58.339  50.849  0.00  0.00    +0.000 A 
ATOM     13  C   UNL     1     -13.078  56.180  49.311  0.00  0.00    +0.000 C 
ATOM     14  C   UNL     1     -14.354  57.008  51.227  0.00  0.00    +0.000 A 
ATOM     15  C   UNL     1     -14.695  59.390  51.650  0.00  0.00    +0.000 A 
ATOM     16  N   UNL     1     -13.868  55.984  50.420  0.00  0.00    +0.000 N 
ATOM     17  C   UNL     1     -14.953  56.732  52.461  0.00  0.00    +0.000 A 
ATOM     18  C   UNL     1     -15.286  59.098  52.875  0.00  0.00    +0.000 A 
ATOM     19  C   UNL     1     -15.412  57.770  53.281  0.00  0.00    +0.000 A 
ATOM     20  H   UNL     1     -12.198  57.363  47.985  0.00  0.00    +0.000 HD
ATOM     21  H   UNL     1     -14.105  55.059  50.658  0.00  0.00    +0.000 HD
ENDBRANCH   1  13
BRANCH   5  22
ATOM     22  C   UNL     1     -10.990  51.584  48.699  0.00  0.00    +0.000 C 
BRANCH  22  23
ATOM     23  C   UNL     1      -9.528  51.448  48.287  0.00  0.00    +0.000 C 
BRANCH  23  24
ATOM     24  C   UNL     1      -9.225  50.143  47.528  0.00  0.00    +0.000 C 
ATOM     25  C   UNL     1     -10.472  49.515  46.902  0.00  0.00    +0.000 C 
ATOM     26  C   UNL     1      -8.191  50.429  46.436  0.00  0.00    +0.000 C 
ENDBRANCH  23  24
ENDBRANCH  22  23
ENDBRANCH   5  22
BRANCH   7  27
ATOM     27  C   UNL     1     -11.802  52.845  45.857  0.00  0.00    +0.000 C 
BRANCH  27  28
ATOM     28  C   UNL     1     -10.750  52.586  44.804  0.00  0.00    +0.000 A 
ATOM     29  C   UNL     1      -9.592  53.373  44.747  0.00  0.00    +0.000 A 
ATOM     30  C   UNL     1     -10.925  51.574  43.852  0.00  0.00    +0.000 A 
ATOM     31  C   UNL     1      -8.655  53.179  43.730  0.00  0.00    +0.000 A 
ATOM     32  C   UNL     1      -9.994  51.387  42.831  0.00  0.00    +0.000 A 
ATOM     33  C   UNL     1      -8.862  52.194  42.765  0.00  0.00    +0.000 A 
ENDBRANCH  27  28
ENDBRANCH   7  27
TORSDOF 6
ENDMDL
MODEL 2
REMARK VINA RESULT:      -7.6      1.914      2.234
REMARK  Name = 
REMARK  8 active torsions:
REMARK  status: ('A' for Active; 'I' for Inactive)
REMARK    1  A    between atoms: C_6  and  C_10
REMARK    2  A    between atoms: N_17  and  C_20
REMARK    3  A    between atoms: C_19  and  C_21
REMARK    4  A    between atoms: C_20  and  C_22
REMARK    5  A    between atoms: C_21  and  C_23
REMARK    6  A    between atoms: C_22  and  C_24
REMARK    7  A    between atoms: C_24  and  C_27
REMARK    8  A    between atoms: C_24  and  C_28
REMARK                            x       y       z     vdW  Elec       q    Type
REMARK                         _______ _______ _______ _____ _____    ______ ____
ROOT
ATOM      1  C   UNL     1     -11.358  56.009  48.811  0.00  0.00    +0.000 C 
ATOM      2  C   UNL     1     -10.125  55.506  49.444  0.00  0.00    +0.000 C 
ATOM      3  C   UNL     1     -11.352  55.532  47.559  0.00  0.00    +0.000 C 
ATOM      4  O   UNL     1      -9.751  55.837  50.557  0.00  0.00    +0.000 OA
ATOM      5  N   UNL     1      -9.508  54.653  48.547  0.00  0.00    +0.000 N 
ATOM      6  O   UNL     1     -12.289  55.775  46.585  0.00  0.00    +0.000 OA
ATOM      7  C   UNL     1     -10.153  54.684  47.242  0.00  0.00    +0.000 C 
ENDROOT
BRANCH   1  13
ATOM      8  S   UNL     1     -13.516  59.185  49.410  0.00  0.00    +0.000 S 
ATOM      9  O   UNL     1     -14.636  59.211  48.491  0.00  0.00    +0.000 OA
ATOM     10  O   UNL     1     -12.786  60.403  49.708  0.00  0.00    +0.000 OA
ATOM     11  N   UNL     1     -12.447  58.098  48.874  0.00  0.00    +0.000 N 
ATOM     12  C   UNL     1     -14.153  58.612  50.942  0.00  0.00    +0.000 A 
ATOM     13  C   UNL     1     -12.350  56.925  49.433  0.00  0.00    +0.000 C 
ATOM     14  C   UNL     1     -13.853  57.311  51.324  0.00  0.00    +0.000 A 
ATOM     15  C   UNL     1     -14.929  59.467  51.731  0.00  0.00    +0.000 A 
ATOM     16  N   UNL     1     -13.059  56.491  50.530  0.00  0.00    +0.000 N 
ATOM     17  C   UNL     1     -14.356  56.861  52.550  0.00  0.00    +0.000 A 
ATOM     18  C   UNL     1     -15.419  59.004  52.948  0.00  0.00    +0.000 A 
ATOM     19  C   UNL     1     -15.131  57.702  53.358  0.00  0.00    +0.000 A 
ATOM     20  H   UNL     1     -11.862  58.325  48.116  0.00  0.00    +0.000 HD
ATOM     21  H   UNL     1     -12.998  55.538  50.769  0.00  0.00    +0.000 HD
ENDBRANCH   1  13
BRANCH   5  22
ATOM     22  C   UNL     1      -8.214  54.038  48.786  0.00  0.00    +0.000 C 
BRANCH  22  23
ATOM     23  C   UNL     1      -7.092  54.702  47.995  0.00  0.00    +0.000 C 
BRANCH  23  24
ATOM     24  C   UNL     1      -6.071  53.703  47.423  0.00  0.00    +0.000 C 
ATOM     25  C   UNL     1      -4.753  53.686  48.202  0.00  0.00    +0.000 C 
ATOM     26  C   UNL     1      -6.687  52.302  47.428  0.00  0.00    +0.000 C 
ENDBRANCH  23  24
ENDBRANCH  22  23
ENDBRANCH   5  22
BRANCH   7  27
ATOM     27  C   UNL     1     -10.454  53.314  46.597  0.00  0.00    +0.000 C 
BRANCH  27  28
ATOM     28  C   UNL     1      -9.907  53.111  45.203  0.00  0.00    +0.000 A 
ATOM     29  C   UNL     1      -8.742  53.771  44.793  0.00  0.00    +0.000 A 
ATOM     30  C   UNL     1     -10.571  52.282  44.289  0.00  0.00    +0.000 A 
ATOM     31  C   UNL     1      -8.278  53.637  43.482  0.00  0.00    +0.000 A 
ATOM     32  C   UNL     1     -10.113  52.157  42.978  0.00  0.00    +0.000 A 
ATOM     33  C   UNL     1      -8.971  52.841  42.572  0.00  0.00    +0.000 A 
ENDBRANCH  27  28
ENDBRANCH   7  27
TORSDOF 6
ENDMDL
MODEL 3
REMARK VINA RESULT:      -7.4      4.311      7.957
REMARK  Name = 
REMARK  8 active torsions:
REMARK  status: ('A' for Active; 'I' for Inactive)
REMARK    1  A    between atoms: C_6  and  C_10
REMARK    2  A    between atoms: N_17  and  C_20
REMARK    3  A    between atoms: C_19  and  C_21
REMARK    4  A    between atoms: C_20  and  C_22
REMARK    5  A    between atoms: C_21  and  C_23
REMARK    6  A    between atoms: C_22  and  C_24
REMARK    7  A    between atoms: C_24  and  C_27
REMARK    8  A    between atoms: C_24  and  C_28
REMARK                            x       y       z     vdW  Elec       q    Type
REMARK                         _______ _______ _______ _____ _____    ______ ____
ROOT
ATOM      1  C   UNL     1     -10.546  54.060  51.298  0.00  0.00    +0.000 C 
ATOM      2  C   UNL     1     -10.703  53.654  49.889  0.00  0.00    +0.000 C 
ATOM      3  C   UNL     1     -11.413  55.063  51.493  0.00  0.00    +0.000 C 
ATOM      4  O   UNL     1      -9.988  52.835  49.336  0.00  0.00    +0.000 OA
ATOM      5  N   UNL     1     -11.753  54.380  49.356  0.00  0.00    +0.000 N 
ATOM      6  O   UNL     1     -11.590  55.780  52.651  0.00  0.00    +0.000 OA
ATOM      7  C   UNL     1     -12.214  55.413  50.272  0.00  0.00    +0.000 C 
ENDROOT
BRANCH   1  13
ATOM      8  S   UNL     1      -7.128  53.219  52.944  0.00  0.00    +0.000 S 
ATOM      9  O   UNL     1      -6.627  54.366  53.675  0.00  0.00    +0.000 OA
ATOM     10  O   UNL     1      -6.224  52.406  52.152  0.00  0.00    +0.000 OA
ATOM     11  N   UNL     1      -8.312  53.721  51.965  0.00  0.00    +0.000 N 
ATOM     12  C   UNL     1      -7.830  52.143  54.140  0.00  0.00    +0.000 A 
ATOM     13  C   UNL     1      -9.561  53.505  52.264  0.00  0.00    +0.000 C 
ATOM     14  C   UNL     1      -9.214  52.071  54.215  0.00  0.00    +0.000 A 
ATOM     15  C   UNL     1      -6.992  51.393  54.971  0.00  0.00    +0.000 A 
ATOM     16  N   UNL     1     -10.023  52.811  53.359  0.00  0.00    +0.000 N 
ATOM     17  C   UNL     1      -9.770  51.205  55.164  0.00  0.00    +0.000 A 
ATOM     18  C   UNL     1      -7.561  50.536  55.908  0.00  0.00    +0.000 A 
ATOM     19  C   UNL     1      -8.949  50.441  56.003  0.00  0.00    +0.000 A 
ATOM     20  H   UNL     1      -8.086  54.194  51.132  0.00  0.00    +0.000 HD
ATOM     21  H   UNL     1     -10.989  52.840  53.548  0.00  0.00    +0.000 HD
ENDBRANCH   1  13
BRANCH   5  22
ATOM     22  C   UNL     1     -12.141  54.318  47.958  0.00  0.00    +0.000 C 
BRANCH  22  23
ATOM     23  C   UNL     1     -11.619  55.501  47.149  0.00  0.00    +0.000 C 
BRANCH  23  24
ATOM     24  C   UNL     1     -10.409  55.151  46.264  0.00  0.00    +0.000 C 
ATOM     25  C   UNL     1      -9.072  55.322  46.989  0.00  0.00    +0.000 C 
ATOM     26  C   UNL     1     -10.548  53.707  45.777  0.00  0.00    +0.000 C 
ENDBRANCH  23  24
ENDBRANCH  22  23
ENDBRANCH   5  22
BRANCH   7  27
ATOM     27  C   UNL     1     -13.741  55.508  50.478  0.00  0.00    +0.000 C 
BRANCH  27  28
ATOM     28  C   UNL     1     -14.243  56.800  51.081  0.00  0.00    +0.000 A 
ATOM     29  C   UNL     1     -14.086  58.012  50.397  0.00  0.00    +0.000 A 
ATOM     30  C   UNL     1     -14.848  56.811  52.344  0.00  0.00    +0.000 A 
ATOM     31  C   UNL     1     -14.486  59.213  50.987  0.00  0.00    +0.000 A 
ATOM     32  C   UNL     1     -15.239  58.012  52.936  0.00  0.00    +0.000 A 
ATOM     33  C   UNL     1     -15.050  59.214  52.261  0.00  0.00    +0.000 A 
ENDBRANCH  27  28
ENDBRANCH   7  27
TORSDOF 6
ENDMDL
MODEL 4
REMARK VINA RESULT:      -7.3      4.352      8.694
REMARK  Name = 
REMARK  8 active torsions:
REMARK  status: ('A' for Active; 'I' for Inactive)
REMARK    1  A    between atoms: C_6  and  C_10
REMARK    2  A    between atoms: N_17  and  C_20
REMARK    3  A    between atoms: C_19  and  C_21
REMARK    4  A    between atoms: C_20  and  C_22
REMARK    5  A    between atoms: C_21  and  C_23
REMARK    6  A    between atoms: C_22  and  C_24
REMARK    7  A    between atoms: C_24  and  C_27
REMARK    8  A    between atoms: C_24  and  C_28
REMARK                            x       y       z     vdW  Elec       q    Type
REMARK                         _______ _______ _______ _____ _____    ______ ____
ROOT
ATOM      1  C   UNL     1      -9.557  53.776  51.469  0.00  0.00    +0.000 C 
ATOM      2  C   UNL     1     -10.020  53.588  50.083  0.00  0.00    +0.000 C 
ATOM      3  C   UNL     1     -10.330  54.737  51.991  0.00  0.00    +0.000 C 
ATOM      4  O   UNL     1      -9.465  52.862  49.275  0.00  0.00    +0.000 OA
ATOM      5  N   UNL     1     -11.135  54.385  49.899  0.00  0.00    +0.000 N 
ATOM      6  O   UNL     1     -10.235  55.271  53.253  0.00  0.00    +0.000 OA
ATOM      7  C   UNL     1     -11.360  55.268  51.035  0.00  0.00    +0.000 C 
ENDROOT
BRANCH   1  13
ATOM      8  S   UNL     1      -7.125  52.537  54.237  0.00  0.00    +0.000 S 
ATOM      9  O   UNL     1      -7.708  51.421  54.955  0.00  0.00    +0.000 OA
ATOM     10  O   UNL     1      -6.400  53.569  54.954  0.00  0.00    +0.000 OA
ATOM     11  N   UNL     1      -8.297  53.265  53.394  0.00  0.00    +0.000 N 
ATOM     12  C   UNL     1      -5.985  51.844  53.096  0.00  0.00    +0.000 A 
ATOM     13  C   UNL     1      -8.407  53.082  52.110  0.00  0.00    +0.000 C 
ATOM     14  C   UNL     1      -6.344  51.817  51.755  0.00  0.00    +0.000 A 
ATOM     15  C   UNL     1      -4.760  51.352  53.556  0.00  0.00    +0.000 A 
ATOM     16  N   UNL     1      -7.559  52.336  51.323  0.00  0.00    +0.000 N 
ATOM     17  C   UNL     1      -5.429  51.271  50.848  0.00  0.00    +0.000 A 
ATOM     18  C   UNL     1      -3.861  50.814  52.641  0.00  0.00    +0.000 A 
ATOM     19  C   UNL     1      -4.195  50.776  51.287  0.00  0.00    +0.000 A 
ATOM     20  H   UNL     1      -8.935  53.854  53.858  0.00  0.00    +0.000 HD
ATOM     21  H   UNL     1      -7.831  52.159  50.393  0.00  0.00    +0.000 HD
ENDBRANCH   1  13
BRANCH   5  22
ATOM     22  C   UNL     1     -11.812  54.535  48.623  0.00  0.00    +0.000 C 
BRANCH  22  23
ATOM     23  C   UNL     1     -11.289  55.718  47.815  0.00  0.00    +0.000 C 
BRANCH  23  24
ATOM     24  C   UNL     1     -10.558  55.302  46.525  0.00  0.00    +0.000 C 
ATOM     25  C   UNL     1      -9.036  55.281  46.684  0.00  0.00    +0.000 C 
ATOM     26  C   UNL     1     -11.049  53.918  46.097  0.00  0.00    +0.000 C 
ENDBRANCH  23  24
ENDBRANCH  22  23
ENDBRANCH   5  22
BRANCH   7  27
ATOM     27  C   UNL     1     -12.805  55.330  51.574  0.00  0.00    +0.000 C 
BRANCH  27  28
ATOM     28  C   UNL     1     -13.459  56.692  51.543  0.00  0.00    +0.000 A 
ATOM     29  C   UNL     1     -13.894  57.300  52.727  0.00  0.00    +0.000 A 
ATOM     30  C   UNL     1     -13.668  57.356  50.327  0.00  0.00    +0.000 A 
ATOM     31  C   UNL     1     -14.563  58.525  52.689  0.00  0.00    +0.000 A 
ATOM     32  C   UNL     1     -14.344  58.575  50.288  0.00  0.00    +0.000 A 
ATOM     33  C   UNL     1     -14.799  59.156  51.469  0.00  0.00    +0.000 A 
ENDBRANCH  27  28
ENDBRANCH   7  27
TORSDOF 6
ENDMDL
MODEL 5
REMARK VINA RESULT:      -7.3      4.070      6.795
REMARK  Name = 
REMARK  8 active torsions:
REMARK  status: ('A' for Active; 'I' for Inactive)
REMARK    1  A    between atoms: C_6  and  C_10
REMARK    2  A    between atoms: N_17  and  C_20
REMARK    3  A    between atoms: C_19  and  C_21
REMARK    4  A    between atoms: C_20  and  C_22
REMARK    5  A    between atoms: C_21  and  C_23
REMARK    6  A    between atoms: C_22  and  C_24
REMARK    7  A    between atoms: C_24  and  C_27
REMARK    8  A    between atoms: C_24  and  C_28
REMARK                            x       y       z     vdW  Elec       q    Type
REMARK                         _______ _______ _______ _____ _____    ______ ____
ROOT
ATOM      1  C   UNL     1     -10.471  54.762  50.732  0.00  0.00    +0.000 C 
ATOM      2  C   UNL     1     -11.686  55.578  50.900  0.00  0.00    +0.000 C 
ATOM      3  C   UNL     1     -10.447  54.392  49.444  0.00  0.00    +0.000 C 
ATOM      4  O   UNL     1     -12.082  55.991  51.977  0.00  0.00    +0.000 OA
ATOM      5  N   UNL     1     -12.262  55.738  49.653  0.00  0.00    +0.000 N 
ATOM      6  O   UNL     1      -9.513  53.587  48.839  0.00  0.00    +0.000 OA
ATOM      7  C   UNL     1     -11.609  54.913  48.647  0.00  0.00    +0.000 C 
ENDROOT
BRANCH   1  13
ATOM      8  S   UNL     1      -7.353  54.849  53.051  0.00  0.00    +0.000 S 
ATOM      9  O   UNL     1      -7.524  55.850  54.086  0.00  0.00    +0.000 OA
ATOM     10  O   UNL     1      -6.068  54.689  52.395  0.00  0.00    +0.000 OA
ATOM     11  N   UNL     1      -8.454  55.118  51.899  0.00  0.00    +0.000 N 
ATOM     12  C   UNL     1      -7.714  53.303  53.799  0.00  0.00    +0.000 A 
ATOM     13  C   UNL     1      -9.520  54.375  51.809  0.00  0.00    +0.000 C 
ATOM     14  C   UNL     1      -8.924  52.697  53.486  0.00  0.00    +0.000 A 
ATOM     15  C   UNL     1      -6.788  52.724  54.672  0.00  0.00    +0.000 A 
ATOM     16  N   UNL     1      -9.815  53.284  52.595  0.00  0.00    +0.000 N 
ATOM     17  C   UNL     1      -9.204  51.461  54.079  0.00  0.00    +0.000 A 
ATOM     18  C   UNL     1      -7.082  51.494  55.251  0.00  0.00    +0.000 A 
ATOM     19  C   UNL     1      -8.289  50.862  54.952  0.00  0.00    +0.000 A 
ATOM     20  H   UNL     1      -8.318  55.852  51.258  0.00  0.00    +0.000 HD
ATOM     21  H   UNL     1     -10.717  52.895  52.521  0.00  0.00    +0.000 HD
ENDBRANCH   1  13
BRANCH   5  22
ATOM     22  C   UNL     1     -13.532  56.409  49.436  0.00  0.00    +0.000 C 
BRANCH  22  23
ATOM     23  C   UNL     1     -13.367  57.883  49.082  0.00  0.00    +0.000 C 
BRANCH  23  24
ATOM     24  C   UNL     1     -13.918  58.836  50.158  0.00  0.00    +0.000 C 
ATOM     25  C   UNL     1     -14.379  60.178  49.584  0.00  0.00    +0.000 C 
ATOM     26  C   UNL     1     -15.086  58.157  50.876  0.00  0.00    +0.000 C 
ENDBRANCH  23  24
ENDBRANCH  22  23
ENDBRANCH   5  22
BRANCH   7  27
ATOM     27  C   UNL     1     -11.249  55.613  47.319  0.00  0.00    +0.000 C 
BRANCH  27  28
ATOM     28  C   UNL     1     -10.783  54.706  46.204  0.00  0.00    +0.000 A 
ATOM     29  C   UNL     1     -11.698  53.904  45.510  0.00  0.00    +0.000 A 
ATOM     30  C   UNL     1      -9.426  54.631  45.864  0.00  0.00    +0.000 A 
ATOM     31  C   UNL     1     -11.256  53.014  44.529  0.00  0.00    +0.000 A 
ATOM     32  C   UNL     1      -8.984  53.735  44.890  0.00  0.00    +0.000 A 
ATOM     33  C   UNL     1      -9.898  52.921  44.228  0.00  0.00    +0.000 A 
ENDBRANCH  27  28
ENDBRANCH   7  27
TORSDOF 6
ENDMDL
MODEL 6
REMARK VINA RESULT:      -7.3      2.952      8.322
REMARK  Name = 
REMARK  8 active torsions:
REMARK  status: ('A' for Active; 'I' for Inactive)
REMARK    1  A    between atoms: C_6  and  C_10
REMARK    2  A    between atoms: N_17  and  C_20
REMARK    3  A    between atoms: C_19  and  C_21
REMARK    4  A    between atoms: C_20  and  C_22
REMARK    5  A    between atoms: C_21  and  C_23
REMARK    6  A    between atoms: C_22  and  C_24
REMARK    7  A    between atoms: C_24  and  C_27
REMARK    8  A    between atoms: C_24  and  C_28
REMARK                            x       y       z     vdW  Elec       q    Type
REMARK                         _______ _______ _______ _____ _____    ______ ____
ROOT
ATOM      1  C   UNL     1     -10.672  54.867  48.103  0.00  0.00    +0.000 C 
ATOM      2  C   UNL     1     -10.208  54.826  49.502  0.00  0.00    +0.000 C 
ATOM      3  C   UNL     1     -11.865  55.476  48.127  0.00  0.00    +0.000 C 
ATOM      4  O   UNL     1      -9.201  54.241  49.864  0.00  0.00    +0.000 OA
ATOM      5  N   UNL     1     -11.120  55.526  50.269  0.00  0.00    +0.000 N 
ATOM      6  O   UNL     1     -12.691  55.703  47.053  0.00  0.00    +0.000 OA
ATOM      7  C   UNL     1     -12.302  55.894  49.502  0.00  0.00    +0.000 C 
ENDROOT
BRANCH   1  13
ATOM      8  S   UNL     1      -7.896  54.190  45.469  0.00  0.00    +0.000 S 
ATOM      9  O   UNL     1      -6.867  53.338  46.032  0.00  0.00    +0.000 OA
ATOM     10  O   UNL     1      -7.533  55.313  44.624  0.00  0.00    +0.000 OA
ATOM     11  N   UNL     1      -8.795  54.767  46.682  0.00  0.00    +0.000 N 
ATOM     12  C   UNL     1      -8.911  53.149  44.486  0.00  0.00    +0.000 A 
ATOM     13  C   UNL     1      -9.974  54.274  46.931  0.00  0.00    +0.000 C 
ATOM     14  C   UNL     1     -10.164  52.810  44.981  0.00  0.00    +0.000 A 
ATOM     15  C   UNL     1      -8.445  52.699  43.247  0.00  0.00    +0.000 A 
ATOM     16  N   UNL     1     -10.611  53.293  46.206  0.00  0.00    +0.000 N 
ATOM     17  C   UNL     1     -10.974  51.986  44.191  0.00  0.00    +0.000 A 
ATOM     18  C   UNL     1      -9.264  51.882  42.474  0.00  0.00    +0.000 A 
ATOM     19  C   UNL     1     -10.528  51.528  42.945  0.00  0.00    +0.000 A 
ATOM     20  H   UNL     1      -8.446  55.500  47.239  0.00  0.00    +0.000 HD
ATOM     21  H   UNL     1     -11.437  52.908  46.579  0.00  0.00    +0.000 HD
ENDBRANCH   1  13
BRANCH   5  22
ATOM     22  C   UNL     1     -11.045  55.620  51.717  0.00  0.00    +0.000 C 
BRANCH  22  23
ATOM     23  C   UNL     1     -11.262  54.277  52.406  0.00  0.00    +0.000 C 
BRANCH  23  24
ATOM     24  C   UNL     1     -10.182  53.944  53.451  0.00  0.00    +0.000 C 
ATOM     25  C   UNL     1      -9.671  52.505  53.343  0.00  0.00    +0.000 C 
ATOM     26  C   UNL     1      -9.012  54.917  53.288  0.00  0.00    +0.000 C 
ENDBRANCH  23  24
ENDBRANCH  22  23
ENDBRANCH   5  22
BRANCH   7  27
ATOM     27  C   UNL     1     -12.775  57.356  49.639  0.00  0.00    +0.000 C 
BRANCH  27  28
ATOM     28  C   UNL     1     -13.740  57.632  50.768  0.00  0.00    +0.000 A 
ATOM     29  C   UNL     1     -13.991  58.945  51.186  0.00  0.00    +0.000 A 
ATOM     30  C   UNL     1     -14.379  56.578  51.436  0.00  0.00    +0.000 A 
ATOM     31  C   UNL     1     -14.828  59.193  52.276  0.00  0.00    +0.000 A 
ATOM     32  C   UNL     1     -15.206  56.825  52.530  0.00  0.00    +0.000 A 
ATOM     33  C   UNL     1     -15.425  58.133  52.956  0.00  0.00    +0.000 A 
ENDBRANCH  27  28
ENDBRANCH   7  27
TORSDOF 6
ENDMDL
MODEL 7
REMARK VINA RESULT:      -7.2      3.941      5.902
REMARK  Name = 
REMARK  8 active torsions:
REMARK  status: ('A' for Active; 'I' for Inactive)
REMARK    1  A    between atoms: C_6  and  C_10
REMARK    2  A    between atoms: N_17  and  C_20
REMARK    3  A    between atoms: C_19  and  C_21
REMARK    4  A    between atoms: C_20  and  C_22
REMARK    5  A    between atoms: C_21  and  C_23
REMARK    6  A    between atoms: C_22  and  C_24
REMARK    7  A    between atoms: C_24  and  C_27
REMARK    8  A    between atoms: C_24  and  C_28
REMARK                            x       y       z     vdW  Elec       q    Type
REMARK                         _______ _______ _______ _____ _____    ______ ____
ROOT
ATOM      1  C   UNL     1     -11.012  54.626  50.817  0.00  0.00    +0.000 C 
ATOM      2  C   UNL     1      -9.707  54.709  50.136  0.00  0.00    +0.000 C 
ATOM      3  C   UNL     1     -11.027  53.443  51.445  0.00  0.00    +0.000 C 
ATOM      4  O   UNL     1      -9.396  55.610  49.375  0.00  0.00    +0.000 OA
ATOM      5  N   UNL     1      -8.969  53.597  50.501  0.00  0.00    +0.000 N 
ATOM      6  O   UNL     1     -12.062  52.918  52.180  0.00  0.00    +0.000 OA
ATOM      7  C   UNL     1      -9.769  52.644  51.256  0.00  0.00    +0.000 C 
ENDROOT
BRANCH   1  13
ATOM      8  S   UNL     1     -13.497  57.204  49.306  0.00  0.00    +0.000 S 
ATOM      9  O   UNL     1     -14.597  56.519  48.655  0.00  0.00    +0.000 OA
ATOM     10  O   UNL     1     -12.902  58.377  48.693  0.00  0.00    +0.000 OA
ATOM     11  N   UNL     1     -12.312  56.134  49.556  0.00  0.00    +0.000 N 
ATOM     12  C   UNL     1     -14.100  57.724  50.870  0.00  0.00    +0.000 A 
ATOM     13  C   UNL     1     -12.105  55.632  50.739  0.00  0.00    +0.000 C 
ATOM     14  C   UNL     1     -13.674  57.027  51.993  0.00  0.00    +0.000 A 
ATOM     15  C   UNL     1     -14.974  58.812  50.947  0.00  0.00    +0.000 A 
ATOM     16  N   UNL     1     -12.785  55.963  51.889  0.00  0.00    +0.000 N 
ATOM     17  C   UNL     1     -14.151  57.450  53.240  0.00  0.00    +0.000 A 
ATOM     18  C   UNL     1     -15.437  59.220  52.194  0.00  0.00    +0.000 A 
ATOM     19  C   UNL     1     -15.023  58.540  53.340  0.00  0.00    +0.000 A 
ATOM     20  H   UNL     1     -11.739  55.859  48.804  0.00  0.00    +0.000 HD
ATOM     21  H   UNL     1     -12.631  55.411  52.689  0.00  0.00    +0.000 HD
ENDBRANCH   1  13
BRANCH   5  22
ATOM     22  C   UNL     1      -7.662  53.287  49.951  0.00  0.00    +0.000 C 
BRANCH  22  23
ATOM     23  C   UNL     1      -6.568  54.212  50.473  0.00  0.00    +0.000 C 
BRANCH  23  24
ATOM     24  C   UNL     1      -5.175  53.557  50.502  0.00  0.00    +0.000 C 
ATOM     25  C   UNL     1      -4.287  54.097  51.626  0.00  0.00    +0.000 C 
ATOM     26  C   UNL     1      -5.338  52.044  50.659  0.00  0.00    +0.000 C 
ENDBRANCH  23  24
ENDBRANCH  22  23
ENDBRANCH   5  22
BRANCH   7  27
ATOM     27  C   UNL     1      -9.129  52.088  52.546  0.00  0.00    +0.000 C 
BRANCH  27  28
ATOM     28  C   UNL     1      -8.277  53.060  53.328  0.00  0.00    +0.000 A 
ATOM     29  C   UNL     1      -8.689  54.387  53.501  0.00  0.00    +0.000 A 
ATOM     30  C   UNL     1      -7.049  52.658  53.869  0.00  0.00    +0.000 A 
ATOM     31  C   UNL     1      -7.867  55.302  54.162  0.00  0.00    +0.000 A 
ATOM     32  C   UNL     1      -6.224  53.574  54.521  0.00  0.00    +0.000 A 
ATOM     33  C   UNL     1      -6.629  54.899  54.661  0.00  0.00    +0.000 A 
ENDBRANCH  27  28
ENDBRANCH   7  27
TORSDOF 6
ENDMDL
MODEL 8
REMARK VINA RESULT:      -7.1      1.850      3.761
REMARK  Name = 
REMARK  8 active torsions:
REMARK  status: ('A' for Active; 'I' for Inactive)
REMARK    1  A    between atoms: C_6  and  C_10
REMARK    2  A    between atoms: N_17  and  C_20
REMARK    3  A    between atoms: C_19  and  C_21
REMARK    4  A    between atoms: C_20  and  C_22
REMARK    5  A    between atoms: C_21  and  C_23
REMARK    6  A    between atoms: C_22  and  C_24
REMARK    7  A    between atoms: C_24  and  C_27
REMARK    8  A    between atoms: C_24  and  C_28
REMARK                            x       y       z     vdW  Elec       q    Type
REMARK                         _______ _______ _______ _____ _____    ______ ____
ROOT
ATOM      1  C   UNL     1     -12.241  55.167  48.731  0.00  0.00    +0.000 C 
ATOM      2  C   UNL     1     -11.861  55.057  47.311  0.00  0.00    +0.000 C 
ATOM      3  C   UNL     1     -11.875  54.011  49.302  0.00  0.00    +0.000 C 
ATOM      4  O   UNL     1     -12.147  55.890  46.467  0.00  0.00    +0.000 OA
ATOM      5  N   UNL     1     -11.180  53.865  47.147  0.00  0.00    +0.000 N 
ATOM      6  O   UNL     1     -12.067  53.648  50.613  0.00  0.00    +0.000 OA
ATOM      7  C   UNL     1     -11.230  53.045  48.349  0.00  0.00    +0.000 C 
ENDROOT
BRANCH   1  13
ATOM      8  S   UNL     1     -13.505  58.791  49.338  0.00  0.00    +0.000 S 
ATOM      9  O   UNL     1     -14.595  59.101  48.433  0.00  0.00    +0.000 OA
ATOM     10  O   UNL     1     -12.483  59.783  49.617  0.00  0.00    +0.000 OA
ATOM     11  N   UNL     1     -12.758  57.465  48.795  0.00  0.00    +0.000 N 
ATOM     12  C   UNL     1     -14.245  58.405  50.882  0.00  0.00    +0.000 A 
ATOM     13  C   UNL     1     -12.956  56.309  49.360  0.00  0.00    +0.000 C 
ATOM     14  C   UNL     1     -14.282  57.072  51.269  0.00  0.00    +0.000 A 
ATOM     15  C   UNL     1     -14.764  59.433  51.676  0.00  0.00    +0.000 A 
ATOM     16  N   UNL     1     -13.736  56.074  50.470  0.00  0.00    +0.000 N 
ATOM     17  C   UNL     1     -14.865  56.770  52.505  0.00  0.00    +0.000 A 
ATOM     18  C   UNL     1     -15.338  59.115  52.902  0.00  0.00    +0.000 A 
ATOM     19  C   UNL     1     -15.387  57.784  53.317  0.00  0.00    +0.000 A 
ATOM     20  H   UNL     1     -12.145  57.532  48.027  0.00  0.00    +0.000 HD
ATOM     21  H   UNL     1     -13.918  55.137  50.714  0.00  0.00    +0.000 HD
ENDBRANCH   1  13
BRANCH   5  22
ATOM     22  C   UNL     1     -10.732  53.368  45.858  0.00  0.00    +0.000 C 
BRANCH  22  23
ATOM     23  C   UNL     1      -9.421  54.002  45.406  0.00  0.00    +0.000 C 
BRANCH  23  24
ATOM     24  C   UNL     1      -8.447  53.000  44.760  0.00  0.00    +0.000 C 
ATOM     25  C   UNL     1      -7.816  52.044  45.775  0.00  0.00    +0.000 C 
ATOM     26  C   UNL     1      -9.193  52.196  43.693  0.00  0.00    +0.000 C 
ENDBRANCH  23  24
ENDBRANCH  22  23
ENDBRANCH   5  22
BRANCH   7  27
ATOM     27  C   UNL     1      -9.891  52.437  48.817  0.00  0.00    +0.000 C 
BRANCH  27  28
ATOM     28  C   UNL     1      -8.921  53.402  49.459  0.00  0.00    +0.000 A 
ATOM     29  C   UNL     1      -8.280  54.383  48.691  0.00  0.00    +0.000 A 
ATOM     30  C   UNL     1      -8.624  53.314  50.825  0.00  0.00    +0.000 A 
ATOM     31  C   UNL     1      -7.331  55.227  49.271  0.00  0.00    +0.000 A 
ATOM     32  C   UNL     1      -7.669  54.151  51.402  0.00  0.00    +0.000 A 
ATOM     33  C   UNL     1      -7.016  55.102  50.623  0.00  0.00    +0.000 A 
ENDBRANCH  27  28
ENDBRANCH   7  27
TORSDOF 6
ENDMDL
MODEL 9
REMARK VINA RESULT:      -7.1      1.575      2.213
REMARK  Name = 
REMARK  8 active torsions:
REMARK  status: ('A' for Active; 'I' for Inactive)
REMARK    1  A    between atoms: C_6  and  C_10
REMARK    2  A    between atoms: N_17  and  C_20
REMARK    3  A    between atoms: C_19  and  C_21
REMARK    4  A    between atoms: C_20  and  C_22
REMARK    5  A    between atoms: C_21  and  C_23
REMARK    6  A    between atoms: C_22  and  C_24
REMARK    7  A    between atoms: C_24  and  C_27
REMARK    8  A    between atoms: C_24  and  C_28
REMARK                            x       y       z     vdW  Elec       q    Type
REMARK                         _______ _______ _______ _____ _____    ______ ____
ROOT
ATOM      1  C   UNL     1     -12.410  54.529  48.870  0.00  0.00    +0.000 C 
ATOM      2  C   UNL     1     -12.073  53.208  49.430  0.00  0.00    +0.000 C 
ATOM      3  C   UNL     1     -11.990  54.510  47.598  0.00  0.00    +0.000 C 
ATOM      4  O   UNL     1     -12.215  52.914  50.605  0.00  0.00    +0.000 OA
ATOM      5  N   UNL     1     -11.565  52.432  48.404  0.00  0.00    +0.000 N 
ATOM      6  O   UNL     1     -12.061  55.544  46.696  0.00  0.00    +0.000 OA
ATOM      7  C   UNL     1     -11.354  53.212  47.192  0.00  0.00    +0.000 C 
ENDROOT
BRANCH   1  13
ATOM      8  S   UNL     1     -14.202  56.492  51.706  0.00  0.00    +0.000 S 
ATOM      9  O   UNL     1     -13.271  56.789  52.777  0.00  0.00    +0.000 OA
ATOM     10  O   UNL     1     -15.557  56.072  52.012  0.00  0.00    +0.000 OA
ATOM     11  N   UNL     1     -13.543  55.356  50.764  0.00  0.00    +0.000 N 
ATOM     12  C   UNL     1     -14.350  57.964  50.761  0.00  0.00    +0.000 A 
ATOM     13  C   UNL     1     -13.020  55.665  49.612  0.00  0.00    +0.000 C 
ATOM     14  C   UNL     1     -13.718  58.008  49.526  0.00  0.00    +0.000 A 
ATOM     15  C   UNL     1     -15.093  59.036  51.264  0.00  0.00    +0.000 A 
ATOM     16  N   UNL     1     -13.006  56.916  49.040  0.00  0.00    +0.000 N 
ATOM     17  C   UNL     1     -13.845  59.180  48.772  0.00  0.00    +0.000 A 
ATOM     18  C   UNL     1     -15.210  60.193  50.502  0.00  0.00    +0.000 A 
ATOM     19  C   UNL     1     -14.588  60.264  49.255  0.00  0.00    +0.000 A 
ATOM     20  H   UNL     1     -13.538  54.418  51.064  0.00  0.00    +0.000 HD
ATOM     21  H   UNL     1     -12.456  57.047  48.234  0.00  0.00    +0.000 HD
ENDBRANCH   1  13
BRANCH   5  22
ATOM     22  C   UNL     1     -11.034  51.094  48.598  0.00  0.00    +0.000 C 
BRANCH  22  23
ATOM     23  C   UNL     1      -9.514  51.075  48.708  0.00  0.00    +0.000 C 
BRANCH  23  24
ATOM     24  C   UNL     1      -8.807  50.778  47.373  0.00  0.00    +0.000 C 
ATOM     25  C   UNL     1      -7.622  51.710  47.106  0.00  0.00    +0.000 C 
ATOM     26  C   UNL     1      -8.327  49.325  47.374  0.00  0.00    +0.000 C 
ENDBRANCH  23  24
ENDBRANCH  22  23
ENDBRANCH   5  22
BRANCH   7  27
ATOM     27  C   UNL     1     -11.880  52.590  45.881  0.00  0.00    +0.000 C 
BRANCH  27  28
ATOM     28  C   UNL     1     -10.853  52.392  44.790  0.00  0.00    +0.000 A 
ATOM     29  C   UNL     1      -9.774  53.275  44.660  0.00  0.00    +0.000 A 
ATOM     30  C   UNL     1     -10.977  51.339  43.874  0.00  0.00    +0.000 A 
ATOM     31  C   UNL     1      -8.866  53.133  43.609  0.00  0.00    +0.000 A 
ATOM     32  C   UNL     1     -10.076  51.203  42.819  0.00  0.00    +0.000 A 
ATOM     33  C   UNL     1      -9.025  52.105  42.681  0.00  0.00    +0.000 A 
ENDBRANCH  27  28
ENDBRANCH   7  27
TORSDOF 6
ENDMDL
