MODEL 1
REMARK VINA RESULT:      -8.3      0.000      0.000
REMARK  Name = 
REMARK  7 active torsions:
REMARK  status: ('A' for Active; 'I' for Inactive)
REMARK    1  A    between atoms: C_6  and  C_10
REMARK    2  A    between atoms: N_17  and  C_20
REMARK    3  A    between atoms: C_19  and  C_21
REMARK    4  A    between atoms: C_20  and  C_22
REMARK    5  A    between atoms: C_21  and  C_23
REMARK    6  A    between atoms: C_21  and  C_24
REMARK    7  A    between atoms: C_21  and  C_25
REMARK                            x       y       z     vdW  Elec       q    Type
REMARK                         _______ _______ _______ _____ _____    ______ ____
ROOT
ATOM      1  C   UNL     1     -10.773  55.132  47.795  0.00  0.00    +0.000 C 
ATOM      2  C   UNL     1     -12.205  55.402  47.767  0.00  0.00    +0.000 C 
ATOM      3  C   UNL     1     -10.347  55.557  48.995  0.00  0.00    +0.000 C 
ATOM      4  O   UNL     1     -12.852  55.361  46.719  0.00  0.00    +0.000 OA
ATOM      5  N   UNL     1     -12.619  55.702  49.046  0.00  0.00    +0.000 N 
ATOM      6  O   UNL     1      -9.038  55.613  49.391  0.00  0.00    +0.000 OA
ATOM      7  C   UNL     1     -11.471  55.987  49.923  0.00  0.00    +0.000 C 
ENDROOT
BRANCH   1  13
ATOM      8  S   UNL     1      -7.871  54.462  45.312  0.00  0.00    +0.000 S 
ATOM      9  O   UNL     1      -6.876  53.676  46.036  0.00  0.00    +0.000 OA
ATOM     10  O   UNL     1      -7.459  55.496  44.399  0.00  0.00    +0.000 OA
ATOM     11  N   UNL     1      -8.863  55.124  46.409  0.00  0.00    +0.000 N 
ATOM     12  C   UNL     1      -8.796  53.304  44.367  0.00  0.00    +0.000 A 
ATOM     13  C   UNL     1     -10.008  54.565  46.665  0.00  0.00    +0.000 C 
ATOM     14  C   UNL     1     -10.044  52.930  44.851  0.00  0.00    +0.000 A 
ATOM     15  C   UNL     1      -8.284  52.809  43.171  0.00  0.00    +0.000 A 
ATOM     16  N   UNL     1     -10.554  53.486  46.011  0.00  0.00    +0.000 N 
ATOM     17  C   UNL     1     -10.814  52.053  44.081  0.00  0.00    +0.000 A 
ATOM     18  C   UNL     1      -9.055  51.925  42.422  0.00  0.00    +0.000 A 
ATOM     19  C   UNL     1     -10.322  51.554  42.873  0.00  0.00    +0.000 A 
ATOM     20  H   UNL     1      -8.598  55.946  46.880  0.00  0.00    +0.000 HD
ATOM     21  H   UNL     1     -11.364  53.079  46.397  0.00  0.00    +0.000 HD
ENDBRANCH   1  13
BRANCH   7  22
ATOM     22  C   UNL     1     -11.469  55.276  51.327  0.00  0.00    +0.000 C 
ATOM     23  C   UNL     1     -10.054  55.177  51.948  0.00  0.00    +0.000 C 
ATOM     24  C   UNL     1     -12.344  56.038  52.331  0.00  0.00    +0.000 C 
ATOM     25  C   UNL     1     -11.958  53.816  51.218  0.00  0.00    +0.000 C 
ENDBRANCH   7  22
BRANCH   5  26
ATOM     26  C   UNL     1     -14.000  56.055  49.338  0.00  0.00    +0.000 C 
BRANCH  26  27
ATOM     27  C   UNL     1     -14.262  57.490  49.678  0.00  0.00    +0.000 A 
ATOM     28  C   UNL     1     -13.802  58.489  48.811  0.00  0.00    +0.000 A 
ATOM     29  C   UNL     1     -15.011  57.855  50.805  0.00  0.00    +0.000 A 
ATOM     30  C   UNL     1     -14.019  59.832  49.101  0.00  0.00    +0.000 A 
ATOM     31  C   UNL     1     -15.249  59.203  51.081  0.00  0.00    +0.000 A 
ATOM     32  C   UNL     1     -14.739  60.190  50.238  0.00  0.00    +0.000 A 
ENDBRANCH  26  27
ENDBRANCH   5  26
TORSDOF 4
ENDMDL
MODEL 2
REMARK VINA RESULT:      -8.2      3.153      7.669
REMARK  Name = 
REMARK  7 active torsions:
REMARK  status: ('A' for Active; 'I' for Inactive)
REMARK    1  A    between atoms: C_6  and  C_10
REMARK    2  A    between atoms: N_17  and  C_20
REMARK    3  A    between atoms: C_19  and  C_21
REMARK    4  A    between atoms: C_20  and  C_22
REMARK    5  A    between atoms: C_21  and  C_23
REMARK    6  A    between atoms: C_21  and  C_24
REMARK    7  A    between atoms: C_21  and  C_25
REMARK                            x       y       z     vdW  Elec       q    Type
REMARK                         _______ _______ _______ _____ _____    ______ ____
ROOT
ATOM      1  C   UNL     1     -12.365  54.403  50.023  0.00  0.00    +0.000 C 
ATOM      2  C   UNL     1     -12.032  54.109  48.635  0.00  0.00    +0.000 C 
ATOM      3  C   UNL     1     -11.965  53.333  50.728  0.00  0.00    +0.000 C 
ATOM      4  O   UNL     1     -12.489  54.774  47.704  0.00  0.00    +0.000 OA
ATOM      5  N   UNL     1     -11.192  53.018  48.609  0.00  0.00    +0.000 N 
ATOM      6  O   UNL     1     -12.206  53.132  52.060  0.00  0.00    +0.000 OA
ATOM      7  C   UNL     1     -11.188  52.319  49.905  0.00  0.00    +0.000 C 
ENDROOT
BRANCH   1  13
ATOM      8  S   UNL     1     -14.395  56.850  52.245  0.00  0.00    +0.000 S 
ATOM      9  O   UNL     1     -13.496  57.288  53.309  0.00  0.00    +0.000 OA
ATOM     10  O   UNL     1     -15.780  56.577  52.526  0.00  0.00    +0.000 OA
ATOM     11  N   UNL     1     -13.747  55.524  51.575  0.00  0.00    +0.000 N 
ATOM     12  C   UNL     1     -14.374  58.134  51.045  0.00  0.00    +0.000 A 
ATOM     13  C   UNL     1     -13.064  55.626  50.473  0.00  0.00    +0.000 C 
ATOM     14  C   UNL     1     -13.598  57.941  49.909  0.00  0.00    +0.000 A 
ATOM     15  C   UNL     1     -15.132  59.286  51.240  0.00  0.00    +0.000 A 
ATOM     16  N   UNL     1     -12.904  56.759  49.713  0.00  0.00    +0.000 N 
ATOM     17  C   UNL     1     -13.617  58.930  48.921  0.00  0.00    +0.000 A 
ATOM     18  C   UNL     1     -15.130  60.269  50.255  0.00  0.00    +0.000 A 
ATOM     19  C   UNL     1     -14.379  60.087  49.094  0.00  0.00    +0.000 A 
ATOM     20  H   UNL     1     -13.869  54.646  52.001  0.00  0.00    +0.000 HD
ATOM     21  H   UNL     1     -12.249  56.729  48.977  0.00  0.00    +0.000 HD
ENDBRANCH   1  13
BRANCH   7  22
ATOM     22  C   UNL     1      -9.778  51.940  50.492  0.00  0.00    +0.000 C 
ATOM     23  C   UNL     1      -8.943  51.061  49.528  0.00  0.00    +0.000 C 
ATOM     24  C   UNL     1      -8.947  53.197  50.781  0.00  0.00    +0.000 C 
ATOM     25  C   UNL     1      -9.913  51.101  51.780  0.00  0.00    +0.000 C 
ENDBRANCH   7  22
BRANCH   5  26
ATOM     26  C   UNL     1     -10.710  52.457  47.356  0.00  0.00    +0.000 C 
BRANCH  26  27
ATOM     27  C   UNL     1      -9.659  53.245  46.635  0.00  0.00    +0.000 A 
ATOM     28  C   UNL     1      -9.519  53.084  45.251  0.00  0.00    +0.000 A 
ATOM     29  C   UNL     1      -8.859  54.185  47.299  0.00  0.00    +0.000 A 
ATOM     30  C   UNL     1      -8.548  53.793  44.552  0.00  0.00    +0.000 A 
ATOM     31  C   UNL     1      -7.902  54.913  46.590  0.00  0.00    +0.000 A 
ATOM     32  C   UNL     1      -7.736  54.705  45.221  0.00  0.00    +0.000 A 
ENDBRANCH  26  27
ENDBRANCH   5  26
TORSDOF 4
ENDMDL
MODEL 3
REMARK VINA RESULT:      -8.1      2.716      7.774
REMARK  Name = 
REMARK  7 active torsions:
REMARK  status: ('A' for Active; 'I' for Inactive)
REMARK    1  A    between atoms: C_6  and  C_10
REMARK    2  A    between atoms: N_17  and  C_20
REMARK    3  A    between atoms: C_19  and  C_21
REMARK    4  A    between atoms: C_20  and  C_22
REMARK    5  A    between atoms: C_21  and  C_23
REMARK    6  A    between atoms: C_21  and  C_24
REMARK    7  A    between atoms: C_21  and  C_25
REMARK                            x       y       z     vdW  Elec       q    Type
REMARK                         _______ _______ _______ _____ _____    ______ ____
ROOT
ATOM      1  C   UNL     1     -10.925  55.015  50.203  0.00  0.00    +0.000 C 
ATOM      2  C   UNL     1     -10.705  54.103  49.088  0.00  0.00    +0.000 C 
ATOM      3  C   UNL     1      -9.948  54.754  51.086  0.00  0.00    +0.000 C 
ATOM      4  O   UNL     1     -11.565  53.912  48.227  0.00  0.00    +0.000 OA
ATOM      5  N   UNL     1      -9.451  53.549  49.218  0.00  0.00    +0.000 N 
ATOM      6  O   UNL     1      -9.854  55.294  52.340  0.00  0.00    +0.000 OA
ATOM      7  C   UNL     1      -8.907  53.776  50.568  0.00  0.00    +0.000 C 
ENDROOT
BRANCH   1  13
ATOM      8  S   UNL     1     -13.759  57.448  49.157  0.00  0.00    +0.000 S 
ATOM      9  O   UNL     1     -14.832  56.625  48.608  0.00  0.00    +0.000 OA
ATOM     10  O   UNL     1     -13.427  58.711  48.553  0.00  0.00    +0.000 OA
ATOM     11  N   UNL     1     -12.417  56.540  49.192  0.00  0.00    +0.000 N 
ATOM     12  C   UNL     1     -14.226  57.796  50.815  0.00  0.00    +0.000 A 
ATOM     13  C   UNL     1     -12.059  55.959  50.298  0.00  0.00    +0.000 C 
ATOM     14  C   UNL     1     -13.620  57.057  51.823  0.00  0.00    +0.000 A 
ATOM     15  C   UNL     1     -15.159  58.794  51.084  0.00  0.00    +0.000 A 
ATOM     16  N   UNL     1     -12.650  56.113  51.530  0.00  0.00    +0.000 N 
ATOM     17  C   UNL     1     -13.940  57.362  53.149  0.00  0.00    +0.000 A 
ATOM     18  C   UNL     1     -15.480  59.077  52.408  0.00  0.00    +0.000 A 
ATOM     19  C   UNL     1     -14.865  58.367  53.439  0.00  0.00    +0.000 A 
ATOM     20  H   UNL     1     -11.876  56.427  48.378  0.00  0.00    +0.000 HD
ATOM     21  H   UNL     1     -12.364  55.509  52.254  0.00  0.00    +0.000 HD
ENDBRANCH   1  13
BRANCH   7  22
ATOM     22  C   UNL     1      -7.423  54.295  50.646  0.00  0.00    +0.000 C 
ATOM     23  C   UNL     1      -6.419  53.353  49.938  0.00  0.00    +0.000 C 
ATOM     24  C   UNL     1      -7.286  55.672  49.981  0.00  0.00    +0.000 C 
ATOM     25  C   UNL     1      -6.933  54.374  52.107  0.00  0.00    +0.000 C 
ENDBRANCH   7  22
BRANCH   5  26
ATOM     26  C   UNL     1      -8.950  52.564  48.271  0.00  0.00    +0.000 C 
BRANCH  26  27
ATOM     27  C   UNL     1      -8.689  53.053  46.879  0.00  0.00    +0.000 A 
ATOM     28  C   UNL     1      -9.185  52.317  45.796  0.00  0.00    +0.000 A 
ATOM     29  C   UNL     1      -8.020  54.260  46.636  0.00  0.00    +0.000 A 
ATOM     30  C   UNL     1      -8.953  52.737  44.491  0.00  0.00    +0.000 A 
ATOM     31  C   UNL     1      -7.810  54.692  45.325  0.00  0.00    +0.000 A 
ATOM     32  C   UNL     1      -8.262  53.922  44.254  0.00  0.00    +0.000 A 
ENDBRANCH  26  27
ENDBRANCH   5  26
TORSDOF 4
ENDMDL
MODEL 4
REMARK VINA RESULT:      -8.1      3.206      8.124
REMARK  Name = 
REMARK  7 active torsions:
REMARK  status: ('A' for Active; 'I' for Inactive)
REMARK    1  A    between atoms: C_6  and  C_10
REMARK    2  A    between atoms: N_17  and  C_20
REMARK    3  A    between atoms: C_19  and  C_21
REMARK    4  A    between atoms: C_20  and  C_22
REMARK    5  A    between atoms: C_21  and  C_23
REMARK    6  A    between atoms: C_21  and  C_24
REMARK    7  A    between atoms: C_21  and  C_25
REMARK                            x       y       z     vdW  Elec       q    Type
REMARK                         _______ _______ _______ _____ _____    ______ ____
ROOT
ATOM      1  C   UNL     1     -11.462  55.819  48.944  0.00  0.00    +0.000 C 
ATOM      2  C   UNL     1     -10.492  55.046  49.708  0.00  0.00    +0.000 C 
ATOM      3  C   UNL     1     -11.284  55.460  47.663  0.00  0.00    +0.000 C 
ATOM      4  O   UNL     1     -10.223  55.319  50.879  0.00  0.00    +0.000 OA
ATOM      5  N   UNL     1      -9.985  54.055  48.897  0.00  0.00    +0.000 N 
ATOM      6  O   UNL     1     -11.902  56.043  46.589  0.00  0.00    +0.000 OA
ATOM      7  C   UNL     1     -10.310  54.309  47.483  0.00  0.00    +0.000 C 
ENDROOT
BRANCH   1  13
ATOM      8  S   UNL     1     -13.476  59.101  49.406  0.00  0.00    +0.000 S 
ATOM      9  O   UNL     1     -14.567  59.060  48.436  0.00  0.00    +0.000 OA
ATOM     10  O   UNL     1     -12.782  60.334  49.670  0.00  0.00    +0.000 OA
ATOM     11  N   UNL     1     -12.382  57.993  48.957  0.00  0.00    +0.000 N 
ATOM     12  C   UNL     1     -14.178  58.587  50.934  0.00  0.00    +0.000 A 
ATOM     13  C   UNL     1     -12.374  56.825  49.528  0.00  0.00    +0.000 C 
ATOM     14  C   UNL     1     -13.946  57.280  51.342  0.00  0.00    +0.000 A 
ATOM     15  C   UNL     1     -14.922  59.483  51.698  0.00  0.00    +0.000 A 
ATOM     16  N   UNL     1     -13.151  56.430  50.591  0.00  0.00    +0.000 N 
ATOM     17  C   UNL     1     -14.450  56.875  52.581  0.00  0.00    +0.000 A 
ATOM     18  C   UNL     1     -15.431  59.063  52.923  0.00  0.00    +0.000 A 
ATOM     19  C   UNL     1     -15.189  57.763  53.366  0.00  0.00    +0.000 A 
ATOM     20  H   UNL     1     -11.727  58.204  48.254  0.00  0.00    +0.000 HD
ATOM     21  H   UNL     1     -13.142  55.476  50.835  0.00  0.00    +0.000 HD
ENDBRANCH   1  13
BRANCH   7  22
ATOM     22  C   UNL     1     -10.879  53.090  46.666  0.00  0.00    +0.000 C 
ATOM     23  C   UNL     1      -9.843  51.953  46.485  0.00  0.00    +0.000 C 
ATOM     24  C   UNL     1     -12.096  52.476  47.370  0.00  0.00    +0.000 C 
ATOM     25  C   UNL     1     -11.266  53.507  45.232  0.00  0.00    +0.000 C 
ENDBRANCH   7  22
BRANCH   5  26
ATOM     26  C   UNL     1      -8.962  53.134  49.366  0.00  0.00    +0.000 C 
BRANCH  26  27
ATOM     27  C   UNL     1      -7.543  53.601  49.250  0.00  0.00    +0.000 A 
ATOM     28  C   UNL     1      -6.938  54.219  50.351  0.00  0.00    +0.000 A 
ATOM     29  C   UNL     1      -6.786  53.376  48.091  0.00  0.00    +0.000 A 
ATOM     30  C   UNL     1      -5.626  54.674  50.275  0.00  0.00    +0.000 A 
ATOM     31  C   UNL     1      -5.461  53.811  48.026  0.00  0.00    +0.000 A 
ATOM     32  C   UNL     1      -4.888  54.473  49.111  0.00  0.00    +0.000 A 
ENDBRANCH  26  27
ENDBRANCH   5  26
TORSDOF 4
ENDMDL
MODEL 5
REMARK VINA RESULT:      -7.9      2.998      7.996
REMARK  Name = 
REMARK  7 active torsions:
REMARK  status: ('A' for Active; 'I' for Inactive)
REMARK    1  A    between atoms: C_6  and  C_10
REMARK    2  A    between atoms: N_17  and  C_20
REMARK    3  A    between atoms: C_19  and  C_21
REMARK    4  A    between atoms: C_20  and  C_22
REMARK    5  A    between atoms: C_21  and  C_23
REMARK    6  A    between atoms: C_21  and  C_24
REMARK    7  A    between atoms: C_21  and  C_25
REMARK                            x       y       z     vdW  Elec       q    Type
REMARK                         _______ _______ _______ _____ _____    ______ ____
ROOT
ATOM      1  C   UNL     1     -11.455  55.949  48.867  0.00  0.00    +0.000 C 
ATOM      2  C   UNL     1     -10.396  55.248  49.581  0.00  0.00    +0.000 C 
ATOM      3  C   UNL     1     -11.347  55.563  47.586  0.00  0.00    +0.000 C 
ATOM      4  O   UNL     1     -10.062  55.569  50.723  0.00  0.00    +0.000 OA
ATOM      5  N   UNL     1      -9.894  54.262  48.762  0.00  0.00    +0.000 N 
ATOM      6  O   UNL     1     -12.066  56.082  46.543  0.00  0.00    +0.000 OA
ATOM      7  C   UNL     1     -10.327  54.458  47.368  0.00  0.00    +0.000 C 
ENDROOT
BRANCH   1  13
ATOM      8  S   UNL     1     -13.512  59.186  49.442  0.00  0.00    +0.000 S 
ATOM      9  O   UNL     1     -14.610  59.159  48.479  0.00  0.00    +0.000 OA
ATOM     10  O   UNL     1     -12.833  60.421  49.738  0.00  0.00    +0.000 OA
ATOM     11  N   UNL     1     -12.406  58.108  48.952  0.00  0.00    +0.000 N 
ATOM     12  C   UNL     1     -14.195  58.617  50.958  0.00  0.00    +0.000 A 
ATOM     13  C   UNL     1     -12.377  56.924  49.487  0.00  0.00    +0.000 C 
ATOM     14  C   UNL     1     -13.941  57.302  51.325  0.00  0.00    +0.000 A 
ATOM     15  C   UNL     1     -14.945  59.479  51.754  0.00  0.00    +0.000 A 
ATOM     16  N   UNL     1     -13.140  56.486  50.543  0.00  0.00    +0.000 N 
ATOM     17  C   UNL     1     -14.431  56.853  52.555  0.00  0.00    +0.000 A 
ATOM     18  C   UNL     1     -15.440  59.015  52.970  0.00  0.00    +0.000 A 
ATOM     19  C   UNL     1     -15.176  57.705  53.372  0.00  0.00    +0.000 A 
ATOM     20  H   UNL     1     -11.759  58.349  48.251  0.00  0.00    +0.000 HD
ATOM     21  H   UNL     1     -13.116  55.525  50.759  0.00  0.00    +0.000 HD
ENDBRANCH   1  13
BRANCH   7  22
ATOM     22  C   UNL     1     -10.886  53.188  46.624  0.00  0.00    +0.000 C 
ATOM     23  C   UNL     1      -9.866  52.025  46.574  0.00  0.00    +0.000 C 
ATOM     24  C   UNL     1     -12.142  52.650  47.322  0.00  0.00    +0.000 C 
ATOM     25  C   UNL     1     -11.207  53.500  45.147  0.00  0.00    +0.000 C 
ENDBRANCH   7  22
BRANCH   5  26
ATOM     26  C   UNL     1      -8.794  53.408  49.181  0.00  0.00    +0.000 C 
BRANCH  26  27
ATOM     27  C   UNL     1      -9.093  52.427  50.274  0.00  0.00    +0.000 A 
ATOM     28  C   UNL     1      -8.193  52.301  51.339  0.00  0.00    +0.000 A 
ATOM     29  C   UNL     1     -10.280  51.681  50.290  0.00  0.00    +0.000 A 
ATOM     30  C   UNL     1      -8.435  51.393  52.366  0.00  0.00    +0.000 A 
ATOM     31  C   UNL     1     -10.532  50.789  51.334  0.00  0.00    +0.000 A 
ATOM     32  C   UNL     1      -9.602  50.634  52.361  0.00  0.00    +0.000 A 
ENDBRANCH  26  27
ENDBRANCH   5  26
TORSDOF 4
ENDMDL
MODEL 6
REMARK VINA RESULT:      -7.8      2.688      7.850
REMARK  Name = 
REMARK  7 active torsions:
REMARK  status: ('A' for Active; 'I' for Inactive)
REMARK    1  A    between atoms: C_6  and  C_10
REMARK    2  A    between atoms: N_17  and  C_20
REMARK    3  A    between atoms: C_19  and  C_21
REMARK    4  A    between atoms: C_20  and  C_22
REMARK    5  A    between atoms: C_21  and  C_23
REMARK    6  A    between atoms: C_21  and  C_24
REMARK    7  A    between atoms: C_21  and  C_25
REMARK                            x       y       z     vdW  Elec       q    Type
REMARK                         _______ _______ _______ _____ _____    ______ ____
ROOT
ATOM      1  C   UNL     1     -11.292  55.762  49.139  0.00  0.00    +0.000 C 
ATOM      2  C   UNL     1     -11.044  55.505  47.726  0.00  0.00    +0.000 C 
ATOM      3  C   UNL     1     -10.536  54.877  49.808  0.00  0.00    +0.000 C 
ATOM      4  O   UNL     1     -11.767  55.973  46.845  0.00  0.00    +0.000 OA
ATOM      5  N   UNL     1      -9.943  54.685  47.618  0.00  0.00    +0.000 N 
ATOM      6  O   UNL     1     -10.564  54.682  51.162  0.00  0.00    +0.000 OA
ATOM      7  C   UNL     1      -9.603  54.076  48.914  0.00  0.00    +0.000 C 
ENDROOT
BRANCH   1  13
ATOM      8  S   UNL     1     -13.408  59.002  49.392  0.00  0.00    +0.000 S 
ATOM      9  O   UNL     1     -14.467  58.887  48.394  0.00  0.00    +0.000 OA
ATOM     10  O   UNL     1     -12.756  60.265  49.620  0.00  0.00    +0.000 OA
ATOM     11  N   UNL     1     -12.271  57.907  49.026  0.00  0.00    +0.000 N 
ATOM     12  C   UNL     1     -14.142  58.538  50.920  0.00  0.00    +0.000 A 
ATOM     13  C   UNL     1     -12.249  56.766  49.649  0.00  0.00    +0.000 C 
ATOM     14  C   UNL     1     -13.886  57.257  51.394  0.00  0.00    +0.000 A 
ATOM     15  C   UNL     1     -14.932  59.445  51.621  0.00  0.00    +0.000 A 
ATOM     16  N   UNL     1     -13.047  56.398  50.706  0.00  0.00    +0.000 N 
ATOM     17  C   UNL     1     -14.417  56.895  52.635  0.00  0.00    +0.000 A 
ATOM     18  C   UNL     1     -15.467  59.066  52.849  0.00  0.00    +0.000 A 
ATOM     19  C   UNL     1     -15.203  57.795  53.358  0.00  0.00    +0.000 A 
ATOM     20  H   UNL     1     -11.601  58.104  48.334  0.00  0.00    +0.000 HD
ATOM     21  H   UNL     1     -13.020  55.456  50.994  0.00  0.00    +0.000 HD
ENDBRANCH   1  13
BRANCH   7  22
ATOM     22  C   UNL     1      -8.088  54.127  49.336  0.00  0.00    +0.000 C 
ATOM     23  C   UNL     1      -7.559  55.573  49.500  0.00  0.00    +0.000 C 
ATOM     24  C   UNL     1      -7.867  53.418  50.679  0.00  0.00    +0.000 C 
ATOM     25  C   UNL     1      -7.184  53.492  48.260  0.00  0.00    +0.000 C 
ENDBRANCH   7  22
BRANCH   5  26
ATOM     26  C   UNL     1      -9.464  54.218  46.326  0.00  0.00    +0.000 C 
BRANCH  26  27
ATOM     27  C   UNL     1     -10.023  52.916  45.840  0.00  0.00    +0.000 A 
ATOM     28  C   UNL     1     -11.209  52.920  45.096  0.00  0.00    +0.000 A 
ATOM     29  C   UNL     1      -9.355  51.702  46.054  0.00  0.00    +0.000 A 
ATOM     30  C   UNL     1     -11.762  51.729  44.638  0.00  0.00    +0.000 A 
ATOM     31  C   UNL     1      -9.899  50.510  45.572  0.00  0.00    +0.000 A 
ATOM     32  C   UNL     1     -11.109  50.523  44.879  0.00  0.00    +0.000 A 
ENDBRANCH  26  27
ENDBRANCH   5  26
TORSDOF 4
ENDMDL
MODEL 7
REMARK VINA RESULT:      -7.8      3.700      6.419
REMARK  Name = 
REMARK  7 active torsions:
REMARK  status: ('A' for Active; 'I' for Inactive)
REMARK    1  A    between atoms: C_6  and  C_10
REMARK    2  A    between atoms: N_17  and  C_20
REMARK    3  A    between atoms: C_19  and  C_21
REMARK    4  A    between atoms: C_20  and  C_22
REMARK    5  A    between atoms: C_21  and  C_23
REMARK    6  A    between atoms: C_21  and  C_24
REMARK    7  A    between atoms: C_21  and  C_25
REMARK                            x       y       z     vdW  Elec       q    Type
REMARK                         _______ _______ _______ _____ _____    ______ ____
ROOT
ATOM      1  C   UNL     1      -9.312  54.262  50.343  0.00  0.00    +0.000 C 
ATOM      2  C   UNL     1     -10.725  54.569  50.527  0.00  0.00    +0.000 C 
ATOM      3  C   UNL     1      -9.216  53.706  49.125  0.00  0.00    +0.000 C 
ATOM      4  O   UNL     1     -11.187  54.856  51.633  0.00  0.00    +0.000 OA
ATOM      5  N   UNL     1     -11.359  54.454  49.310  0.00  0.00    +0.000 N 
ATOM      6  O   UNL     1      -8.082  53.148  48.602  0.00  0.00    +0.000 OA
ATOM      7  C   UNL     1     -10.513  53.747  48.335  0.00  0.00    +0.000 C 
ENDROOT
BRANCH   1  13
ATOM      8  S   UNL     1      -7.396  55.816  53.336  0.00  0.00    +0.000 S 
ATOM      9  O   UNL     1      -8.124  55.430  54.542  0.00  0.00    +0.000 OA
ATOM     10  O   UNL     1      -6.834  57.136  53.215  0.00  0.00    +0.000 OA
ATOM     11  N   UNL     1      -8.381  55.572  52.073  0.00  0.00    +0.000 N 
ATOM     12  C   UNL     1      -6.054  54.689  53.208  0.00  0.00    +0.000 A 
ATOM     13  C   UNL     1      -8.269  54.487  51.367  0.00  0.00    +0.000 C 
ATOM     14  C   UNL     1      -6.178  53.641  52.304  0.00  0.00    +0.000 A 
ATOM     15  C   UNL     1      -4.912  54.870  53.982  0.00  0.00    +0.000 A 
ATOM     16  N   UNL     1      -7.300  53.521  51.502  0.00  0.00    +0.000 N 
ATOM     17  C   UNL     1      -5.095  52.770  52.151  0.00  0.00    +0.000 A 
ATOM     18  C   UNL     1      -3.847  53.987  53.832  0.00  0.00    +0.000 A 
ATOM     19  C   UNL     1      -3.937  52.943  52.911  0.00  0.00    +0.000 A 
ATOM     20  H   UNL     1      -9.063  56.243  51.842  0.00  0.00    +0.000 HD
ATOM     21  H   UNL     1      -7.413  52.684  50.994  0.00  0.00    +0.000 HD
ENDBRANCH   1  13
BRANCH   7  22
ATOM     22  C   UNL     1     -10.391  54.403  46.909  0.00  0.00    +0.000 C 
ATOM     23  C   UNL     1     -11.766  54.755  46.291  0.00  0.00    +0.000 C 
ATOM     24  C   UNL     1      -9.583  55.706  46.970  0.00  0.00    +0.000 C 
ATOM     25  C   UNL     1      -9.737  53.435  45.900  0.00  0.00    +0.000 C 
ENDBRANCH   7  22
BRANCH   5  26
ATOM     26  C   UNL     1     -12.792  54.664  49.174  0.00  0.00    +0.000 C 
BRANCH  26  27
ATOM     27  C   UNL     1     -13.310  56.008  49.589  0.00  0.00    +0.000 A 
ATOM     28  C   UNL     1     -12.841  57.150  48.928  0.00  0.00    +0.000 A 
ATOM     29  C   UNL     1     -14.297  56.145  50.574  0.00  0.00    +0.000 A 
ATOM     30  C   UNL     1     -13.292  58.414  49.294  0.00  0.00    +0.000 A 
ATOM     31  C   UNL     1     -14.767  57.413  50.922  0.00  0.00    +0.000 A 
ATOM     32  C   UNL     1     -14.252  58.546  50.294  0.00  0.00    +0.000 A 
ENDBRANCH  26  27
ENDBRANCH   5  26
TORSDOF 4
ENDMDL
MODEL 8
REMARK VINA RESULT:      -7.8      3.608      6.535
REMARK  Name = 
REMARK  7 active torsions:
REMARK  status: ('A' for Active; 'I' for Inactive)
REMARK    1  A    between atoms: C_6  and  C_10
REMARK    2  A    between atoms: N_17  and  C_20
REMARK    3  A    between atoms: C_19  and  C_21
REMARK    4  A    between atoms: C_20  and  C_22
REMARK    5  A    between atoms: C_21  and  C_23
REMARK    6  A    between atoms: C_21  and  C_24
REMARK    7  A    between atoms: C_21  and  C_25
REMARK                            x       y       z     vdW  Elec       q    Type
REMARK                         _______ _______ _______ _____ _____    ______ ____
ROOT
ATOM      1  C   UNL     1     -10.388  53.861  50.515  0.00  0.00    +0.000 C 
ATOM      2  C   UNL     1     -11.006  55.144  50.824  0.00  0.00    +0.000 C 
ATOM      3  C   UNL     1     -10.923  53.471  49.348  0.00  0.00    +0.000 C 
ATOM      4  O   UNL     1     -10.921  55.653  51.943  0.00  0.00    +0.000 OA
ATOM      5  N   UNL     1     -11.658  55.597  49.699  0.00  0.00    +0.000 N 
ATOM      6  O   UNL     1     -10.719  52.254  48.756  0.00  0.00    +0.000 OA
ATOM      7  C   UNL     1     -11.809  54.523  48.703  0.00  0.00    +0.000 C 
ENDROOT
BRANCH   1  13
ATOM      8  S   UNL     1      -8.387  51.009  52.219  0.00  0.00    +0.000 S 
ATOM      9  O   UNL     1      -7.433  50.520  51.228  0.00  0.00    +0.000 OA
ATOM     10  O   UNL     1      -9.062  50.089  53.097  0.00  0.00    +0.000 OA
ATOM     11  N   UNL     1      -9.511  51.870  51.431  0.00  0.00    +0.000 N 
ATOM     12  C   UNL     1      -7.481  52.107  53.250  0.00  0.00    +0.000 A 
ATOM     13  C   UNL     1      -9.424  53.166  51.395  0.00  0.00    +0.000 C 
ATOM     14  C   UNL     1      -7.635  53.470  53.030  0.00  0.00    +0.000 A 
ATOM     15  C   UNL     1      -6.660  51.605  54.255  0.00  0.00    +0.000 A 
ATOM     16  N   UNL     1      -8.507  53.942  52.063  0.00  0.00    +0.000 N 
ATOM     17  C   UNL     1      -6.965  54.356  53.879  0.00  0.00    +0.000 A 
ATOM     18  C   UNL     1      -5.986  52.497  55.084  0.00  0.00    +0.000 A 
ATOM     19  C   UNL     1      -6.145  53.871  54.900  0.00  0.00    +0.000 A 
ATOM     20  H   UNL     1     -10.257  51.413  50.981  0.00  0.00    +0.000 HD
ATOM     21  H   UNL     1      -8.467  54.900  51.839  0.00  0.00    +0.000 HD
ENDBRANCH   1  13
BRANCH   7  22
ATOM     22  C   UNL     1     -11.424  54.884  47.220  0.00  0.00    +0.000 C 
ATOM     23  C   UNL     1     -12.276  56.041  46.643  0.00  0.00    +0.000 C 
ATOM     24  C   UNL     1      -9.956  55.320  47.123  0.00  0.00    +0.000 C 
ATOM     25  C   UNL     1     -11.675  53.694  46.270  0.00  0.00    +0.000 C 
ENDBRANCH   7  22
BRANCH   5  26
ATOM     26  C   UNL     1     -12.407  56.844  49.701  0.00  0.00    +0.000 C 
BRANCH  26  27
ATOM     27  C   UNL     1     -13.690  56.848  50.476  0.00  0.00    +0.000 A 
ATOM     28  C   UNL     1     -14.851  56.353  49.871  0.00  0.00    +0.000 A 
ATOM     29  C   UNL     1     -13.742  57.273  51.811  0.00  0.00    +0.000 A 
ATOM     30  C   UNL     1     -16.061  56.350  50.557  0.00  0.00    +0.000 A 
ATOM     31  C   UNL     1     -14.953  57.246  52.506  0.00  0.00    +0.000 A 
ATOM     32  C   UNL     1     -16.113  56.800  51.874  0.00  0.00    +0.000 A 
ENDBRANCH  26  27
ENDBRANCH   5  26
TORSDOF 4
ENDMDL
MODEL 9
REMARK VINA RESULT:      -7.8      2.982      7.810
REMARK  Name = 
REMARK  7 active torsions:
REMARK  status: ('A' for Active; 'I' for Inactive)
REMARK    1  A    between atoms: C_6  and  C_10
REMARK    2  A    between atoms: N_17  and  C_20
REMARK    3  A    between atoms: C_19  and  C_21
REMARK    4  A    between atoms: C_20  and  C_22
REMARK    5  A    between atoms: C_21  and  C_23
REMARK    6  A    between atoms: C_21  and  C_24
REMARK    7  A    between atoms: C_21  and  C_25
REMARK                            x       y       z     vdW  Elec       q    Type
REMARK                         _______ _______ _______ _____ _____    ______ ____
ROOT
ATOM      1  C   UNL     1     -11.294  55.149  50.050  0.00  0.00    +0.000 C 
ATOM      2  C   UNL     1     -11.589  53.956  49.267  0.00  0.00    +0.000 C 
ATOM      3  C   UNL     1      -9.976  55.101  50.304  0.00  0.00    +0.000 C 
ATOM      4  O   UNL     1     -12.745  53.571  49.083  0.00  0.00    +0.000 OA
ATOM      5  N   UNL     1     -10.399  53.407  48.843  0.00  0.00    +0.000 N 
ATOM      6  O   UNL     1      -9.301  55.962  51.126  0.00  0.00    +0.000 OA
ATOM      7  C   UNL     1      -9.259  53.975  49.580  0.00  0.00    +0.000 C 
ENDROOT
BRANCH   1  13
ATOM      8  S   UNL     1     -14.075  56.839  52.160  0.00  0.00    +0.000 S 
ATOM      9  O   UNL     1     -13.427  57.364  53.359  0.00  0.00    +0.000 OA
ATOM     10  O   UNL     1     -15.377  56.230  52.243  0.00  0.00    +0.000 OA
ATOM     11  N   UNL     1     -13.062  55.768  51.487  0.00  0.00    +0.000 N 
ATOM     12  C   UNL     1     -14.232  58.205  51.066  0.00  0.00    +0.000 A 
ATOM     13  C   UNL     1     -12.308  56.130  50.492  0.00  0.00    +0.000 C 
ATOM     14  C   UNL     1     -13.314  58.307  50.028  0.00  0.00    +0.000 A 
ATOM     15  C   UNL     1     -15.259  59.129  51.243  0.00  0.00    +0.000 A 
ATOM     16  N   UNL     1     -12.341  57.340  49.840  0.00  0.00    +0.000 N 
ATOM     17  C   UNL     1     -13.462  59.357  49.117  0.00  0.00    +0.000 A 
ATOM     18  C   UNL     1     -15.385  60.178  50.338  0.00  0.00    +0.000 A 
ATOM     19  C   UNL     1     -14.492  60.287  49.272  0.00  0.00    +0.000 A 
ATOM     20  H   UNL     1     -13.016  54.848  51.831  0.00  0.00    +0.000 HD
ATOM     21  H   UNL     1     -11.623  57.532  49.194  0.00  0.00    +0.000 HD
ENDBRANCH   1  13
BRANCH   7  22
ATOM     22  C   UNL     1      -8.025  54.432  48.716  0.00  0.00    +0.000 C 
ATOM     23  C   UNL     1      -7.058  55.359  49.495  0.00  0.00    +0.000 C 
ATOM     24  C   UNL     1      -7.203  53.224  48.247  0.00  0.00    +0.000 C 
ATOM     25  C   UNL     1      -8.472  55.261  47.494  0.00  0.00    +0.000 C 
ENDBRANCH   7  22
BRANCH   5  26
ATOM     26  C   UNL     1     -10.361  52.179  48.064  0.00  0.00    +0.000 C 
BRANCH  26  27
ATOM     27  C   UNL     1     -10.341  52.336  46.574  0.00  0.00    +0.000 A 
ATOM     28  C   UNL     1     -11.253  53.210  45.970  0.00  0.00    +0.000 A 
ATOM     29  C   UNL     1      -9.390  51.683  45.777  0.00  0.00    +0.000 A 
ATOM     30  C   UNL     1     -11.268  53.373  44.589  0.00  0.00    +0.000 A 
ATOM     31  C   UNL     1      -9.391  51.868  44.393  0.00  0.00    +0.000 A 
ATOM     32  C   UNL     1     -10.339  52.699  43.799  0.00  0.00    +0.000 A 
ENDBRANCH  26  27
ENDBRANCH   5  26
TORSDOF 4
ENDMDL
