MODEL 1
REMARK VINA RESULT:      -7.9      0.000      0.000
REMARK  Name = 
REMARK  8 active torsions:
REMARK  status: ('A' for Active; 'I' for Inactive)
REMARK    1  A    between atoms: C_6  and  C_10
REMARK    2  A    between atoms: N_17  and  C_20
REMARK    3  A    between atoms: C_19  and  C_21
REMARK    4  A    between atoms: C_20  and  C_22
REMARK    5  A    between atoms: C_21  and  C_23
REMARK    6  A    between atoms: C_21  and  C_24
REMARK    7  A    between atoms: C_21  and  C_25
REMARK    8  A    between atoms: C_22  and  C_26
REMARK                            x       y       z     vdW  Elec       q    Type
REMARK                         _______ _______ _______ _____ _____    ______ ____
ROOT
ATOM      1  C   UNL     1     -10.717  55.259  47.827  0.00  0.00    +0.000 C 
ATOM      2  C   UNL     1     -12.096  55.724  47.678  0.00  0.00    +0.000 C 
ATOM      3  C   UNL     1     -10.344  55.595  49.068  0.00  0.00    +0.000 C 
ATOM      4  O   UNL     1     -12.729  55.618  46.637  0.00  0.00    +0.000 OA
ATOM      5  N   UNL     1     -12.500  56.278  48.872  0.00  0.00    +0.000 N 
ATOM      6  O   UNL     1      -9.094  55.387  49.598  0.00  0.00    +0.000 OA
ATOM      7  C   UNL     1     -11.447  56.232  49.903  0.00  0.00    +0.000 C 
ENDROOT
BRANCH   1  13
ATOM      8  S   UNL     1      -7.820  54.276  45.421  0.00  0.00    +0.000 S 
ATOM      9  O   UNL     1      -6.852  53.462  46.138  0.00  0.00    +0.000 OA
ATOM     10  O   UNL     1      -7.373  55.279  44.473  0.00  0.00    +0.000 OA
ATOM     11  N   UNL     1      -8.761  55.019  46.516  0.00  0.00    +0.000 N 
ATOM     12  C   UNL     1      -8.821  53.157  44.507  0.00  0.00    +0.000 A 
ATOM     13  C   UNL     1      -9.954  54.561  46.760  0.00  0.00    +0.000 C 
ATOM     14  C   UNL     1     -10.094  52.888  44.986  0.00  0.00    +0.000 A 
ATOM     15  C   UNL     1      -8.336  52.579  43.332  0.00  0.00    +0.000 A 
ATOM     16  N   UNL     1     -10.561  53.495  46.142  0.00  0.00    +0.000 N 
ATOM     17  C   UNL     1     -10.906  52.008  44.263  0.00  0.00    +0.000 A 
ATOM     18  C   UNL     1      -9.153  51.705  42.619  0.00  0.00    +0.000 A 
ATOM     19  C   UNL     1     -10.439  51.421  43.083  0.00  0.00    +0.000 A 
ATOM     20  H   UNL     1      -8.430  55.813  46.993  0.00  0.00    +0.000 HD
ATOM     21  H   UNL     1     -11.383  53.138  46.548  0.00  0.00    +0.000 HD
ENDBRANCH   1  13
BRANCH   7  22
ATOM     22  C   UNL     1     -11.798  55.440  51.220  0.00  0.00    +0.000 C 
ATOM     23  C   UNL     1     -10.569  55.291  52.155  0.00  0.00    +0.000 C 
ATOM     24  C   UNL     1     -12.855  56.183  52.064  0.00  0.00    +0.000 C 
ATOM     25  C   UNL     1     -12.299  54.016  50.907  0.00  0.00    +0.000 C 
ENDBRANCH   7  22
BRANCH   5  26
ATOM     26  C   UNL     1     -13.848  56.803  49.011  0.00  0.00    +0.000 C 
BRANCH  26  27
ATOM     27  C   UNL     1     -14.073  58.193  48.416  0.00  0.00    +0.000 C 
BRANCH  27  28
ATOM     28  C   UNL     1     -13.762  59.256  49.434  0.00  0.00    +0.000 C 
ATOM     29  C   UNL     1     -14.724  59.539  50.556  0.00  0.00    +0.000 C 
ATOM     30  C   UNL     1     -14.530  60.554  49.466  0.00  0.00    +0.000 C 
ENDBRANCH  27  28
ENDBRANCH  26  27
ENDBRANCH   5  26
TORSDOF 5
ENDMDL
MODEL 2
REMARK VINA RESULT:      -7.7      3.652      6.078
REMARK  Name = 
REMARK  8 active torsions:
REMARK  status: ('A' for Active; 'I' for Inactive)
REMARK    1  A    between atoms: C_6  and  C_10
REMARK    2  A    between atoms: N_17  and  C_20
REMARK    3  A    between atoms: C_19  and  C_21
REMARK    4  A    between atoms: C_20  and  C_22
REMARK    5  A    between atoms: C_21  and  C_23
REMARK    6  A    between atoms: C_21  and  C_24
REMARK    7  A    between atoms: C_21  and  C_25
REMARK    8  A    between atoms: C_22  and  C_26
REMARK                            x       y       z     vdW  Elec       q    Type
REMARK                         _______ _______ _______ _____ _____    ______ ____
ROOT
ATOM      1  C   UNL     1     -10.338  55.076  50.628  0.00  0.00    +0.000 C 
ATOM      2  C   UNL     1     -11.388  55.351  51.608  0.00  0.00    +0.000 C 
ATOM      3  C   UNL     1     -10.950  54.989  49.441  0.00  0.00    +0.000 C 
ATOM      4  O   UNL     1     -11.176  55.443  52.808  0.00  0.00    +0.000 OA
ATOM      5  N   UNL     1     -12.587  55.467  50.940  0.00  0.00    +0.000 N 
ATOM      6  O   UNL     1     -10.329  54.686  48.254  0.00  0.00    +0.000 OA
ATOM      7  C   UNL     1     -12.444  55.282  49.484  0.00  0.00    +0.000 C 
ENDROOT
BRANCH   1  13
ATOM      8  S   UNL     1      -6.525  54.382  50.269  0.00  0.00    +0.000 S 
ATOM      9  O   UNL     1      -5.885  55.520  49.630  0.00  0.00    +0.000 OA
ATOM     10  O   UNL     1      -6.123  53.031  49.927  0.00  0.00    +0.000 OA
ATOM     11  N   UNL     1      -8.125  54.498  50.018  0.00  0.00    +0.000 N 
ATOM     12  C   UNL     1      -6.226  54.555  51.993  0.00  0.00    +0.000 A 
ATOM     13  C   UNL     1      -8.898  54.933  50.969  0.00  0.00    +0.000 C 
ATOM     14  C   UNL     1      -7.270  55.000  52.789  0.00  0.00    +0.000 A 
ATOM     15  C   UNL     1      -4.975  54.236  52.525  0.00  0.00    +0.000 A 
ATOM     16  N   UNL     1      -8.511  55.286  52.238  0.00  0.00    +0.000 N 
ATOM     17  C   UNL     1      -7.051  55.132  54.164  0.00  0.00    +0.000 A 
ATOM     18  C   UNL     1      -4.767  54.369  53.896  0.00  0.00    +0.000 A 
ATOM     19  C   UNL     1      -5.806  54.816  54.716  0.00  0.00    +0.000 A 
ATOM     20  H   UNL     1      -8.508  54.241  49.149  0.00  0.00    +0.000 HD
ATOM     21  H   UNL     1      -9.159  55.775  52.796  0.00  0.00    +0.000 HD
ENDBRANCH   1  13
BRANCH   7  22
ATOM     22  C   UNL     1     -12.889  56.498  48.583  0.00  0.00    +0.000 C 
ATOM     23  C   UNL     1     -14.425  56.717  48.620  0.00  0.00    +0.000 C 
ATOM     24  C   UNL     1     -12.283  57.826  49.084  0.00  0.00    +0.000 C 
ATOM     25  C   UNL     1     -12.502  56.280  47.108  0.00  0.00    +0.000 C 
ENDBRANCH   7  22
BRANCH   5  26
ATOM     26  C   UNL     1     -13.804  55.765  51.676  0.00  0.00    +0.000 C 
BRANCH  26  27
ATOM     27  C   UNL     1     -13.795  57.085  52.446  0.00  0.00    +0.000 C 
BRANCH  27  28
ATOM     28  C   UNL     1     -15.042  57.873  52.150  0.00  0.00    +0.000 C 
ATOM     29  C   UNL     1     -14.958  59.174  51.397  0.00  0.00    +0.000 C 
ATOM     30  C   UNL     1     -15.327  59.177  52.853  0.00  0.00    +0.000 C 
ENDBRANCH  27  28
ENDBRANCH  26  27
ENDBRANCH   5  26
TORSDOF 5
ENDMDL
MODEL 3
REMARK VINA RESULT:      -7.4      2.893      7.800
REMARK  Name = 
REMARK  8 active torsions:
REMARK  status: ('A' for Active; 'I' for Inactive)
REMARK    1  A    between atoms: C_6  and  C_10
REMARK    2  A    between atoms: N_17  and  C_20
REMARK    3  A    between atoms: C_19  and  C_21
REMARK    4  A    between atoms: C_20  and  C_22
REMARK    5  A    between atoms: C_21  and  C_23
REMARK    6  A    between atoms: C_21  and  C_24
REMARK    7  A    between atoms: C_21  and  C_25
REMARK    8  A    between atoms: C_22  and  C_26
REMARK                            x       y       z     vdW  Elec       q    Type
REMARK                         _______ _______ _______ _____ _____    ______ ____
ROOT
ATOM      1  C   UNL     1     -12.161  54.723  48.577  0.00  0.00    +0.000 C 
ATOM      2  C   UNL     1     -11.626  54.934  47.231  0.00  0.00    +0.000 C 
ATOM      3  C   UNL     1     -11.741  53.510  48.958  0.00  0.00    +0.000 C 
ATOM      4  O   UNL     1     -11.863  55.932  46.567  0.00  0.00    +0.000 OA
ATOM      5  N   UNL     1     -10.859  53.842  46.892  0.00  0.00    +0.000 N 
ATOM      6  O   UNL     1     -12.068  52.900  50.144  0.00  0.00    +0.000 OA
ATOM      7  C   UNL     1     -10.816  52.826  47.960  0.00  0.00    +0.000 C 
ENDROOT
BRANCH   1  13
ATOM      8  S   UNL     1     -14.927  56.217  50.872  0.00  0.00    +0.000 S 
ATOM      9  O   UNL     1     -14.523  56.085  52.262  0.00  0.00    +0.000 OA
ATOM     10  O   UNL     1     -16.306  55.991  50.486  0.00  0.00    +0.000 OA
ATOM     11  N   UNL     1     -13.998  55.226  49.983  0.00  0.00    +0.000 N 
ATOM     12  C   UNL     1     -14.559  57.873  50.410  0.00  0.00    +0.000 A 
ATOM     13  C   UNL     1     -13.000  55.711  49.303  0.00  0.00    +0.000 C 
ATOM     14  C   UNL     1     -13.439  58.092  49.624  0.00  0.00    +0.000 A 
ATOM     15  C   UNL     1     -15.390  58.918  50.821  0.00  0.00    +0.000 A 
ATOM     16  N   UNL     1     -12.645  57.034  49.209  0.00  0.00    +0.000 N 
ATOM     17  C   UNL     1     -13.141  59.403  49.240  0.00  0.00    +0.000 A 
ATOM     18  C   UNL     1     -15.085  60.220  50.431  0.00  0.00    +0.000 A 
ATOM     19  C   UNL     1     -13.961  60.463  49.639  0.00  0.00    +0.000 A 
ATOM     20  H   UNL     1     -14.189  54.261  49.958  0.00  0.00    +0.000 HD
ATOM     21  H   UNL     1     -11.765  57.245  48.820  0.00  0.00    +0.000 HD
ENDBRANCH   1  13
BRANCH   7  22
ATOM     22  C   UNL     1      -9.389  52.482  48.534  0.00  0.00    +0.000 C 
ATOM     23  C   UNL     1      -9.463  51.486  49.722  0.00  0.00    +0.000 C 
ATOM     24  C   UNL     1      -8.507  51.779  47.479  0.00  0.00    +0.000 C 
ATOM     25  C   UNL     1      -8.667  53.742  49.049  0.00  0.00    +0.000 C 
ENDBRANCH   7  22
BRANCH   5  26
ATOM     26  C   UNL     1     -10.183  53.799  45.606  0.00  0.00    +0.000 C 
BRANCH  26  27
ATOM     27  C   UNL     1     -10.972  53.141  44.475  0.00  0.00    +0.000 C 
BRANCH  27  28
ATOM     28  C   UNL     1     -10.100  52.175  43.720  0.00  0.00    +0.000 C 
ATOM     29  C   UNL     1      -8.620  52.424  43.597  0.00  0.00    +0.000 C 
ATOM     30  C   UNL     1      -9.501  52.545  42.385  0.00  0.00    +0.000 C 
ENDBRANCH  27  28
ENDBRANCH  26  27
ENDBRANCH   5  26
TORSDOF 5
ENDMDL
MODEL 4
REMARK VINA RESULT:      -7.4      2.695      7.779
REMARK  Name = 
REMARK  8 active torsions:
REMARK  status: ('A' for Active; 'I' for Inactive)
REMARK    1  A    between atoms: C_6  and  C_10
REMARK    2  A    between atoms: N_17  and  C_20
REMARK    3  A    between atoms: C_19  and  C_21
REMARK    4  A    between atoms: C_20  and  C_22
REMARK    5  A    between atoms: C_21  and  C_23
REMARK    6  A    between atoms: C_21  and  C_24
REMARK    7  A    between atoms: C_21  and  C_25
REMARK    8  A    between atoms: C_22  and  C_26
REMARK                            x       y       z     vdW  Elec       q    Type
REMARK                         _______ _______ _______ _____ _____    ______ ____
ROOT
ATOM      1  C   UNL     1     -11.734  55.656  48.798  0.00  0.00    +0.000 C 
ATOM      2  C   UNL     1     -11.514  55.513  47.359  0.00  0.00    +0.000 C 
ATOM      3  C   UNL     1     -11.020  54.685  49.382  0.00  0.00    +0.000 C 
ATOM      4  O   UNL     1     -12.063  56.218  46.525  0.00  0.00    +0.000 OA
ATOM      5  N   UNL     1     -10.625  54.480  47.155  0.00  0.00    +0.000 N 
ATOM      6  O   UNL     1     -10.991  54.431  50.731  0.00  0.00    +0.000 OA
ATOM      7  C   UNL     1     -10.184  53.856  48.416  0.00  0.00    +0.000 C 
ENDROOT
BRANCH   1  13
ATOM      8  S   UNL     1     -13.502  59.068  49.412  0.00  0.00    +0.000 S 
ATOM      9  O   UNL     1     -14.611  59.211  48.482  0.00  0.00    +0.000 OA
ATOM     10  O   UNL     1     -12.661  60.207  49.727  0.00  0.00    +0.000 OA
ATOM     11  N   UNL     1     -12.539  57.881  48.866  0.00  0.00    +0.000 N 
ATOM     12  C   UNL     1     -14.205  58.547  50.936  0.00  0.00    +0.000 A 
ATOM     13  C   UNL     1     -12.598  56.700  49.408  0.00  0.00    +0.000 C 
ATOM     14  C   UNL     1     -14.068  57.213  51.289  0.00  0.00    +0.000 A 
ATOM     15  C   UNL     1     -14.863  59.465  51.758  0.00  0.00    +0.000 A 
ATOM     16  N   UNL     1     -13.388  56.327  50.467  0.00  0.00    +0.000 N 
ATOM     17  C   UNL     1     -14.612  56.787  52.505  0.00  0.00    +0.000 A 
ATOM     18  C   UNL     1     -15.399  59.031  52.967  0.00  0.00    +0.000 A 
ATOM     19  C   UNL     1     -15.273  57.691  53.342  0.00  0.00    +0.000 A 
ATOM     20  H   UNL     1     -11.912  58.054  48.127  0.00  0.00    +0.000 HD
ATOM     21  H   UNL     1     -13.478  55.365  50.656  0.00  0.00    +0.000 HD
ENDBRANCH   1  13
BRANCH   7  22
ATOM     22  C   UNL     1      -8.634  53.896  48.705  0.00  0.00    +0.000 C 
ATOM     23  C   UNL     1      -7.815  53.200  47.585  0.00  0.00    +0.000 C 
ATOM     24  C   UNL     1      -8.103  55.345  48.748  0.00  0.00    +0.000 C 
ATOM     25  C   UNL     1      -8.286  53.182  50.025  0.00  0.00    +0.000 C 
ENDBRANCH   7  22
BRANCH   5  26
ATOM     26  C   UNL     1     -10.210  54.135  45.806  0.00  0.00    +0.000 C 
BRANCH  26  27
ATOM     27  C   UNL     1     -11.098  53.119  45.088  0.00  0.00    +0.000 C 
BRANCH  27  28
ATOM     28  C   UNL     1     -10.261  52.183  44.259  0.00  0.00    +0.000 C 
ATOM     29  C   UNL     1      -8.852  52.555  43.882  0.00  0.00    +0.000 C 
ATOM     30  C   UNL     1      -9.919  52.505  42.825  0.00  0.00    +0.000 C 
ENDBRANCH  27  28
ENDBRANCH  26  27
ENDBRANCH   5  26
TORSDOF 5
ENDMDL
MODEL 5
REMARK VINA RESULT:      -7.3      3.030      7.808
REMARK  Name = 
REMARK  8 active torsions:
REMARK  status: ('A' for Active; 'I' for Inactive)
REMARK    1  A    between atoms: C_6  and  C_10
REMARK    2  A    between atoms: N_17  and  C_20
REMARK    3  A    between atoms: C_19  and  C_21
REMARK    4  A    between atoms: C_20  and  C_22
REMARK    5  A    between atoms: C_21  and  C_23
REMARK    6  A    between atoms: C_21  and  C_24
REMARK    7  A    between atoms: C_21  and  C_25
REMARK    8  A    between atoms: C_22  and  C_26
REMARK                            x       y       z     vdW  Elec       q    Type
REMARK                         _______ _______ _______ _____ _____    ______ ____
ROOT
ATOM      1  C   UNL     1     -11.527  55.761  48.850  0.00  0.00    +0.000 C 
ATOM      2  C   UNL     1     -10.616  54.927  49.635  0.00  0.00    +0.000 C 
ATOM      3  C   UNL     1     -11.335  55.419  47.570  0.00  0.00    +0.000 C 
ATOM      4  O   UNL     1     -10.503  55.019  50.848  0.00  0.00    +0.000 OA
ATOM      5  N   UNL     1      -9.953  54.079  48.775  0.00  0.00    +0.000 N 
ATOM      6  O   UNL     1     -11.958  56.006  46.496  0.00  0.00    +0.000 OA
ATOM      7  C   UNL     1     -10.355  54.271  47.369  0.00  0.00    +0.000 C 
ENDROOT
BRANCH   1  13
ATOM      8  S   UNL     1     -13.474  59.086  49.399  0.00  0.00    +0.000 S 
ATOM      9  O   UNL     1     -14.583  59.157  48.461  0.00  0.00    +0.000 OA
ATOM     10  O   UNL     1     -12.695  60.272  49.701  0.00  0.00    +0.000 OA
ATOM     11  N   UNL     1     -12.447  57.942  48.878  0.00  0.00    +0.000 N 
ATOM     12  C   UNL     1     -14.158  58.553  50.928  0.00  0.00    +0.000 A 
ATOM     13  C   UNL     1     -12.448  56.768  49.438  0.00  0.00    +0.000 C 
ATOM     14  C   UNL     1     -13.955  57.234  51.303  0.00  0.00    +0.000 A 
ATOM     15  C   UNL     1     -14.868  59.449  51.731  0.00  0.00    +0.000 A 
ATOM     16  N   UNL     1     -13.224  56.372  50.499  0.00  0.00    +0.000 N 
ATOM     17  C   UNL     1     -14.483  56.799  52.522  0.00  0.00    +0.000 A 
ATOM     18  C   UNL     1     -15.389  59.006  52.944  0.00  0.00    +0.000 A 
ATOM     19  C   UNL     1     -15.196  57.681  53.341  0.00  0.00    +0.000 A 
ATOM     20  H   UNL     1     -11.826  58.136  48.140  0.00  0.00    +0.000 HD
ATOM     21  H   UNL     1     -13.265  55.409  50.703  0.00  0.00    +0.000 HD
ENDBRANCH   1  13
BRANCH   7  22
ATOM     22  C   UNL     1     -10.973  53.013  46.646  0.00  0.00    +0.000 C 
ATOM     23  C   UNL     1      -9.957  51.845  46.539  0.00  0.00    +0.000 C 
ATOM     24  C   UNL     1     -12.166  52.434  47.438  0.00  0.00    +0.000 C 
ATOM     25  C   UNL     1     -11.424  53.349  45.212  0.00  0.00    +0.000 C 
ENDBRANCH   7  22
BRANCH   5  26
ATOM     26  C   UNL     1      -8.997  53.118  49.296  0.00  0.00    +0.000 C 
BRANCH  26  27
ATOM     27  C   UNL     1      -7.530  53.429  49.001  0.00  0.00    +0.000 C 
BRANCH  27  28
ATOM     28  C   UNL     1      -6.939  54.264  50.104  0.00  0.00    +0.000 C 
ATOM     29  C   UNL     1      -6.993  55.767  50.032  0.00  0.00    +0.000 C 
ATOM     30  C   UNL     1      -5.675  55.061  49.888  0.00  0.00    +0.000 C 
ENDBRANCH  27  28
ENDBRANCH  26  27
ENDBRANCH   5  26
TORSDOF 5
ENDMDL
MODEL 6
REMARK VINA RESULT:      -7.2      3.629      6.669
REMARK  Name = 
REMARK  8 active torsions:
REMARK  status: ('A' for Active; 'I' for Inactive)
REMARK    1  A    between atoms: C_6  and  C_10
REMARK    2  A    between atoms: N_17  and  C_20
REMARK    3  A    between atoms: C_19  and  C_21
REMARK    4  A    between atoms: C_20  and  C_22
REMARK    5  A    between atoms: C_21  and  C_23
REMARK    6  A    between atoms: C_21  and  C_24
REMARK    7  A    between atoms: C_21  and  C_25
REMARK    8  A    between atoms: C_22  and  C_26
REMARK                            x       y       z     vdW  Elec       q    Type
REMARK                         _______ _______ _______ _____ _____    ______ ____
ROOT
ATOM      1  C   UNL     1     -10.806  54.146  50.565  0.00  0.00    +0.000 C 
ATOM      2  C   UNL     1     -11.747  55.231  50.843  0.00  0.00    +0.000 C 
ATOM      3  C   UNL     1     -11.106  53.698  49.339  0.00  0.00    +0.000 C 
ATOM      4  O   UNL     1     -11.779  55.833  51.906  0.00  0.00    +0.000 OA
ATOM      5  N   UNL     1     -12.541  55.414  49.732  0.00  0.00    +0.000 N 
ATOM      6  O   UNL     1     -10.492  52.640  48.715  0.00  0.00    +0.000 OA
ATOM      7  C   UNL     1     -12.206  54.484  48.638  0.00  0.00    +0.000 C 
ENDROOT
BRANCH   1  13
ATOM      8  S   UNL     1      -8.770  51.882  52.989  0.00  0.00    +0.000 S 
ATOM      9  O   UNL     1      -7.958  50.956  52.216  0.00  0.00    +0.000 OA
ATOM     10  O   UNL     1      -9.433  51.438  54.200  0.00  0.00    +0.000 OA
ATOM     11  N   UNL     1      -9.904  52.497  52.004  0.00  0.00    +0.000 N 
ATOM     12  C   UNL     1      -7.698  53.187  53.473  0.00  0.00    +0.000 A 
ATOM     13  C   UNL     1      -9.755  53.692  51.513  0.00  0.00    +0.000 C 
ATOM     14  C   UNL     1      -7.796  54.392  52.793  0.00  0.00    +0.000 A 
ATOM     15  C   UNL     1      -6.793  53.002  54.521  0.00  0.00    +0.000 A 
ATOM     16  N   UNL     1      -8.721  54.557  51.773  0.00  0.00    +0.000 N 
ATOM     17  C   UNL     1      -6.958  55.443  53.176  0.00  0.00    +0.000 A 
ATOM     18  C   UNL     1      -5.963  54.056  54.895  0.00  0.00    +0.000 A 
ATOM     19  C   UNL     1      -6.046  55.278  54.223  0.00  0.00    +0.000 A 
ATOM     20  H   UNL     1     -10.702  51.967  51.778  0.00  0.00    +0.000 HD
ATOM     21  H   UNL     1      -8.631  55.350  51.196  0.00  0.00    +0.000 HD
ENDBRANCH   1  13
BRANCH   7  22
ATOM     22  C   UNL     1     -11.760  55.145  47.278  0.00  0.00    +0.000 C 
ATOM     23  C   UNL     1     -10.313  55.700  47.348  0.00  0.00    +0.000 C 
ATOM     24  C   UNL     1     -11.738  54.116  46.127  0.00  0.00    +0.000 C 
ATOM     25  C   UNL     1     -12.675  56.324  46.894  0.00  0.00    +0.000 C 
ENDBRANCH   7  22
BRANCH   5  26
ATOM     26  C   UNL     1     -13.556  56.453  49.727  0.00  0.00    +0.000 C 
BRANCH  26  27
ATOM     27  C   UNL     1     -14.882  56.075  50.386  0.00  0.00    +0.000 C 
BRANCH  27  28
ATOM     28  C   UNL     1     -15.426  57.235  51.175  0.00  0.00    +0.000 C 
ATOM     29  C   UNL     1     -14.500  58.106  51.981  0.00  0.00    +0.000 C 
ATOM     30  C   UNL     1     -15.472  57.200  52.683  0.00  0.00    +0.000 C 
ENDBRANCH  27  28
ENDBRANCH  26  27
ENDBRANCH   5  26
TORSDOF 5
ENDMDL
MODEL 7
REMARK VINA RESULT:      -7.2      3.227      7.509
REMARK  Name = 
REMARK  8 active torsions:
REMARK  status: ('A' for Active; 'I' for Inactive)
REMARK    1  A    between atoms: C_6  and  C_10
REMARK    2  A    between atoms: N_17  and  C_20
REMARK    3  A    between atoms: C_19  and  C_21
REMARK    4  A    between atoms: C_20  and  C_22
REMARK    5  A    between atoms: C_21  and  C_23
REMARK    6  A    between atoms: C_21  and  C_24
REMARK    7  A    between atoms: C_21  and  C_25
REMARK    8  A    between atoms: C_22  and  C_26
REMARK                            x       y       z     vdW  Elec       q    Type
REMARK                         _______ _______ _______ _____ _____    ______ ____
ROOT
ATOM      1  C   UNL     1     -12.479  54.376  49.541  0.00  0.00    +0.000 C 
ATOM      2  C   UNL     1     -12.086  54.151  48.150  0.00  0.00    +0.000 C 
ATOM      3  C   UNL     1     -11.980  53.349  50.239  0.00  0.00    +0.000 C 
ATOM      4  O   UNL     1     -12.423  54.885  47.233  0.00  0.00    +0.000 OA
ATOM      5  N   UNL     1     -11.317  53.010  48.094  0.00  0.00    +0.000 N 
ATOM      6  O   UNL     1     -12.167  53.145  51.585  0.00  0.00    +0.000 OA
ATOM      7  C   UNL     1     -11.134  52.386  49.417  0.00  0.00    +0.000 C 
ENDROOT
BRANCH   1  13
ATOM      8  S   UNL     1     -15.300  56.468  51.218  0.00  0.00    +0.000 S 
ATOM      9  O   UNL     1     -15.076  56.519  52.653  0.00  0.00    +0.000 OA
ATOM     10  O   UNL     1     -16.644  56.316  50.693  0.00  0.00    +0.000 OA
ATOM     11  N   UNL     1     -14.395  55.266  50.610  0.00  0.00    +0.000 N 
ATOM     12  C   UNL     1     -14.698  57.989  50.574  0.00  0.00    +0.000 A 
ATOM     13  C   UNL     1     -13.278  55.541  50.002  0.00  0.00    +0.000 C 
ATOM     14  C   UNL     1     -13.477  57.974  49.916  0.00  0.00    +0.000 A 
ATOM     15  C   UNL     1     -15.446  59.159  50.718  0.00  0.00    +0.000 A 
ATOM     16  N   UNL     1     -12.766  56.793  49.765  0.00  0.00    +0.000 N 
ATOM     17  C   UNL     1     -12.991  59.174  49.389  0.00  0.00    +0.000 A 
ATOM     18  C   UNL     1     -14.953  60.349  50.187  0.00  0.00    +0.000 A 
ATOM     19  C   UNL     1     -13.726  60.357  49.521  0.00  0.00    +0.000 A 
ATOM     20  H   UNL     1     -14.690  54.332  50.700  0.00  0.00    +0.000 HD
ATOM     21  H   UNL     1     -11.830  56.856  49.467  0.00  0.00    +0.000 HD
ENDBRANCH   1  13
BRANCH   7  22
ATOM     22  C   UNL     1      -9.645  52.246  49.918  0.00  0.00    +0.000 C 
ATOM     23  C   UNL     1      -8.926  53.619  49.997  0.00  0.00    +0.000 C 
ATOM     24  C   UNL     1      -9.580  51.678  51.352  0.00  0.00    +0.000 C 
ATOM     25  C   UNL     1      -8.812  51.356  48.976  0.00  0.00    +0.000 C 
ENDBRANCH   7  22
BRANCH   5  26
ATOM     26  C   UNL     1     -10.770  52.564  46.824  0.00  0.00    +0.000 C 
BRANCH  26  27
ATOM     27  C   UNL     1     -10.172  53.664  45.947  0.00  0.00    +0.000 C 
BRANCH  27  28
ATOM     28  C   UNL     1      -8.730  53.895  46.306  0.00  0.00    +0.000 C 
ATOM     29  C   UNL     1      -8.264  55.257  46.744  0.00  0.00    +0.000 C 
ATOM     30  C   UNL     1      -7.825  54.710  45.415  0.00  0.00    +0.000 C 
ENDBRANCH  27  28
ENDBRANCH  26  27
ENDBRANCH   5  26
TORSDOF 5
ENDMDL
MODEL 8
REMARK VINA RESULT:      -7.0      4.146      8.008
REMARK  Name = 
REMARK  8 active torsions:
REMARK  status: ('A' for Active; 'I' for Inactive)
REMARK    1  A    between atoms: C_6  and  C_10
REMARK    2  A    between atoms: N_17  and  C_20
REMARK    3  A    between atoms: C_19  and  C_21
REMARK    4  A    between atoms: C_20  and  C_22
REMARK    5  A    between atoms: C_21  and  C_23
REMARK    6  A    between atoms: C_21  and  C_24
REMARK    7  A    between atoms: C_21  and  C_25
REMARK    8  A    between atoms: C_22  and  C_26
REMARK                            x       y       z     vdW  Elec       q    Type
REMARK                         _______ _______ _______ _____ _____    ______ ____
ROOT
ATOM      1  C   UNL     1     -10.940  54.898  50.650  0.00  0.00    +0.000 C 
ATOM      2  C   UNL     1      -9.652  55.125  49.993  0.00  0.00    +0.000 C 
ATOM      3  C   UNL     1     -10.839  53.715  51.268  0.00  0.00    +0.000 C 
ATOM      4  O   UNL     1      -9.419  56.100  49.296  0.00  0.00    +0.000 OA
ATOM      5  N   UNL     1      -8.817  54.072  50.300  0.00  0.00    +0.000 N 
ATOM      6  O   UNL     1     -11.853  53.100  51.961  0.00  0.00    +0.000 OA
ATOM      7  C   UNL     1      -9.462  53.072  51.169  0.00  0.00    +0.000 C 
ENDROOT
BRANCH   1  13
ATOM      8  S   UNL     1     -13.636  57.321  49.233  0.00  0.00    +0.000 S 
ATOM      9  O   UNL     1     -14.720  56.548  48.648  0.00  0.00    +0.000 OA
ATOM     10  O   UNL     1     -13.169  58.532  48.586  0.00  0.00    +0.000 OA
ATOM     11  N   UNL     1     -12.359  56.336  49.416  0.00  0.00    +0.000 N 
ATOM     12  C   UNL     1     -14.188  57.806  50.830  0.00  0.00    +0.000 A 
ATOM     13  C   UNL     1     -12.083  55.846  50.589  0.00  0.00    +0.000 C 
ATOM     14  C   UNL     1     -13.676  57.127  51.925  0.00  0.00    +0.000 A 
ATOM     15  C   UNL     1     -15.101  58.854  50.971  0.00  0.00    +0.000 A 
ATOM     16  N   UNL     1     -12.752  56.107  51.760  0.00  0.00    +0.000 N 
ATOM     17  C   UNL     1     -14.097  57.510  53.203  0.00  0.00    +0.000 A 
ATOM     18  C   UNL     1     -15.512  59.228  52.247  0.00  0.00    +0.000 A 
ATOM     19  C   UNL     1     -15.009  58.557  53.364  0.00  0.00    +0.000 A 
ATOM     20  H   UNL     1     -11.795  56.111  48.642  0.00  0.00    +0.000 HD
ATOM     21  H   UNL     1     -12.561  55.529  52.534  0.00  0.00    +0.000 HD
ENDBRANCH   1  13
BRANCH   7  22
ATOM     22  C   UNL     1      -8.770  52.813  52.562  0.00  0.00    +0.000 C 
ATOM     23  C   UNL     1      -9.634  51.911  53.483  0.00  0.00    +0.000 C 
ATOM     24  C   UNL     1      -7.435  52.056  52.400  0.00  0.00    +0.000 C 
ATOM     25  C   UNL     1      -8.524  54.129  53.325  0.00  0.00    +0.000 C 
ENDBRANCH   7  22
BRANCH   5  26
ATOM     26  C   UNL     1      -7.456  54.054  49.792  0.00  0.00    +0.000 C 
BRANCH  26  27
ATOM     27  C   UNL     1      -6.494  55.034  50.464  0.00  0.00    +0.000 C 
BRANCH  27  28
ATOM     28  C   UNL     1      -5.070  54.591  50.265  0.00  0.00    +0.000 C 
ATOM     29  C   UNL     1      -4.733  53.125  50.188  0.00  0.00    +0.000 C 
ATOM     30  C   UNL     1      -4.295  53.930  51.379  0.00  0.00    +0.000 C 
ENDBRANCH  27  28
ENDBRANCH  26  27
ENDBRANCH   5  26
TORSDOF 5
ENDMDL
MODEL 9
REMARK VINA RESULT:      -7.0      2.872      7.938
REMARK  Name = 
REMARK  8 active torsions:
REMARK  status: ('A' for Active; 'I' for Inactive)
REMARK    1  A    between atoms: C_6  and  C_10
REMARK    2  A    between atoms: N_17  and  C_20
REMARK    3  A    between atoms: C_19  and  C_21
REMARK    4  A    between atoms: C_20  and  C_22
REMARK    5  A    between atoms: C_21  and  C_23
REMARK    6  A    between atoms: C_21  and  C_24
REMARK    7  A    between atoms: C_21  and  C_25
REMARK    8  A    between atoms: C_22  and  C_26
REMARK                            x       y       z     vdW  Elec       q    Type
REMARK                         _______ _______ _______ _____ _____    ______ ____
ROOT
ATOM      1  C   UNL     1     -10.217  55.086  47.842  0.00  0.00    +0.000 C 
ATOM      2  C   UNL     1      -8.762  54.929  47.869  0.00  0.00    +0.000 C 
ATOM      3  C   UNL     1     -10.593  54.851  46.579  0.00  0.00    +0.000 C 
ATOM      4  O   UNL     1      -8.087  55.123  48.869  0.00  0.00    +0.000 OA
ATOM      5  N   UNL     1      -8.342  54.552  46.612  0.00  0.00    +0.000 N 
ATOM      6  O   UNL     1     -11.880  54.947  46.109  0.00  0.00    +0.000 OA
ATOM      7  C   UNL     1      -9.458  54.427  45.656  0.00  0.00    +0.000 C 
ENDROOT
BRANCH   1  13
ATOM      8  S   UNL     1     -11.784  54.954  51.402  0.00  0.00    +0.000 S 
ATOM      9  O   UNL     1     -10.824  55.456  52.371  0.00  0.00    +0.000 OA
ATOM     10  O   UNL     1     -12.615  53.809  51.722  0.00  0.00    +0.000 OA
ATOM     11  N   UNL     1     -10.984  54.614  50.031  0.00  0.00    +0.000 N 
ATOM     12  C   UNL     1     -12.891  56.280  51.076  0.00  0.00    +0.000 A 
ATOM     13  C   UNL     1     -11.037  55.442  49.029  0.00  0.00    +0.000 C 
ATOM     14  C   UNL     1     -12.743  56.968  49.881  0.00  0.00    +0.000 A 
ATOM     15  C   UNL     1     -13.889  56.605  51.997  0.00  0.00    +0.000 A 
ATOM     16  N   UNL     1     -11.759  56.609  48.973  0.00  0.00    +0.000 N 
ATOM     17  C   UNL     1     -13.624  58.018  49.604  0.00  0.00    +0.000 A 
ATOM     18  C   UNL     1     -14.762  57.652  51.710  0.00  0.00    +0.000 A 
ATOM     19  C   UNL     1     -14.631  58.358  50.512  0.00  0.00    +0.000 A 
ATOM     20  H   UNL     1     -10.459  53.785  49.958  0.00  0.00    +0.000 HD
ATOM     21  H   UNL     1     -11.565  57.232  48.236  0.00  0.00    +0.000 HD
ENDBRANCH   1  13
BRANCH   7  22
ATOM     22  C   UNL     1      -9.654  53.006  45.001  0.00  0.00    +0.000 C 
ATOM     23  C   UNL     1      -8.494  52.644  44.036  0.00  0.00    +0.000 C 
ATOM     24  C   UNL     1      -9.655  51.887  46.064  0.00  0.00    +0.000 C 
ATOM     25  C   UNL     1     -10.958  52.936  44.181  0.00  0.00    +0.000 C 
ENDBRANCH   7  22
BRANCH   5  26
ATOM     26  C   UNL     1      -6.933  54.303  46.362  0.00  0.00    +0.000 C 
BRANCH  26  27
ATOM     27  C   UNL     1      -6.349  53.081  47.071  0.00  0.00    +0.000 C 
BRANCH  27  28
ATOM     28  C   UNL     1      -4.969  53.385  47.588  0.00  0.00    +0.000 C 
ATOM     29  C   UNL     1      -4.041  52.267  47.981  0.00  0.00    +0.000 C 
ATOM     30  C   UNL     1      -4.615  53.167  49.039  0.00  0.00    +0.000 C 
ENDBRANCH  27  28
ENDBRANCH  26  27
ENDBRANCH   5  26
TORSDOF 5
ENDMDL
