MODEL 1
REMARK VINA RESULT:      -7.5      0.000      0.000
REMARK  Name = 
REMARK  9 active torsions:
REMARK  status: ('A' for Active; 'I' for Inactive)
REMARK    1  A    between atoms: C_6  and  C_10
REMARK    2  A    between atoms: N_17  and  C_20
REMARK    3  A    between atoms: C_19  and  C_21
REMARK    4  A    between atoms: C_20  and  C_22
REMARK    5  A    between atoms: C_21  and  C_23
REMARK    6  A    between atoms: C_21  and  C_24
REMARK    7  A    between atoms: C_22  and  C_25
REMARK    8  A    between atoms: C_25  and  C_26
REMARK    9  A    between atoms: C_25  and  C_27
REMARK                            x       y       z     vdW  Elec       q    Type
REMARK                         _______ _______ _______ _____ _____    ______ ____
ROOT
ATOM      1  C   UNL     1     -10.834  55.207  47.991  0.00  0.00    +0.000 C 
ATOM      2  C   UNL     1     -12.153  55.845  47.854  0.00  0.00    +0.000 C 
ATOM      3  C   UNL     1     -10.475  55.362  49.272  0.00  0.00    +0.000 C 
ATOM      4  O   UNL     1     -12.763  55.912  46.800  0.00  0.00    +0.000 OA
ATOM      5  N   UNL     1     -12.516  56.329  49.091  0.00  0.00    +0.000 N 
ATOM      6  O   UNL     1      -9.282  54.971  49.827  0.00  0.00    +0.000 OA
ATOM      7  C   UNL     1     -11.514  56.048  50.117  0.00  0.00    +0.000 C 
ENDROOT
BRANCH   1  13
ATOM      8  S   UNL     1      -7.947  54.330  45.544  0.00  0.00    +0.000 S 
ATOM      9  O   UNL     1      -6.981  53.478  46.210  0.00  0.00    +0.000 OA
ATOM     10  O   UNL     1      -7.500  55.386  44.656  0.00  0.00    +0.000 OA
ATOM     11  N   UNL     1      -8.888  55.006  46.676  0.00  0.00    +0.000 N 
ATOM     12  C   UNL     1      -8.947  53.263  44.571  0.00  0.00    +0.000 A 
ATOM     13  C   UNL     1     -10.087  54.554  46.888  0.00  0.00    +0.000 C 
ATOM     14  C   UNL     1     -10.228  52.983  45.023  0.00  0.00    +0.000 A 
ATOM     15  C   UNL     1      -8.446  52.730  43.380  0.00  0.00    +0.000 A 
ATOM     16  N   UNL     1     -10.716  53.548  46.196  0.00  0.00    +0.000 N 
ATOM     17  C   UNL     1     -11.028  52.131  44.257  0.00  0.00    +0.000 A 
ATOM     18  C   UNL     1      -9.256  51.889  42.624  0.00  0.00    +0.000 A 
ATOM     19  C   UNL     1     -10.546  51.589  43.062  0.00  0.00    +0.000 A 
ATOM     20  H   UNL     1      -8.549  55.765  47.204  0.00  0.00    +0.000 HD
ATOM     21  H   UNL     1     -11.566  53.204  46.553  0.00  0.00    +0.000 HD
ENDBRANCH   1  13
BRANCH   7  22
ATOM     22  C   UNL     1     -12.052  55.219  51.313  0.00  0.00    +0.000 C 
ATOM     23  C   UNL     1     -11.145  55.326  52.546  0.00  0.00    +0.000 C 
ATOM     24  C   UNL     1     -12.283  53.741  50.981  0.00  0.00    +0.000 C 
ENDBRANCH   7  22
BRANCH   5  25
ATOM     25  C   UNL     1     -13.788  56.983  49.337  0.00  0.00    +0.000 C 
BRANCH  25  26
ATOM     26  C   UNL     1     -13.702  58.087  50.384  0.00  0.00    +0.000 C 
BRANCH  26  27
ATOM     27  C   UNL     1     -14.769  57.952  51.485  0.00  0.00    +0.000 C 
ATOM     28  C   UNL     1     -15.694  56.756  51.249  0.00  0.00    +0.000 C 
ATOM     29  C   UNL     1     -14.090  57.822  52.848  0.00  0.00    +0.000 C 
ENDBRANCH  26  27
ENDBRANCH  25  26
ENDBRANCH   5  25
TORSDOF 5
ENDMDL
MODEL 2
REMARK VINA RESULT:      -7.5      2.706      4.265
REMARK  Name = 
REMARK  9 active torsions:
REMARK  status: ('A' for Active; 'I' for Inactive)
REMARK    1  A    between atoms: C_6  and  C_10
REMARK    2  A    between atoms: N_17  and  C_20
REMARK    3  A    between atoms: C_19  and  C_21
REMARK    4  A    between atoms: C_20  and  C_22
REMARK    5  A    between atoms: C_21  and  C_23
REMARK    6  A    between atoms: C_21  and  C_24
REMARK    7  A    between atoms: C_22  and  C_25
REMARK    8  A    between atoms: C_25  and  C_26
REMARK    9  A    between atoms: C_25  and  C_27
REMARK                            x       y       z     vdW  Elec       q    Type
REMARK                         _______ _______ _______ _____ _____    ______ ____
ROOT
ATOM      1  C   UNL     1     -11.006  55.306  48.709  0.00  0.00    +0.000 C 
ATOM      2  C   UNL     1     -11.536  55.166  50.075  0.00  0.00    +0.000 C 
ATOM      3  C   UNL     1     -12.018  55.759  47.959  0.00  0.00    +0.000 C 
ATOM      4  O   UNL     1     -10.881  54.744  51.013  0.00  0.00    +0.000 OA
ATOM      5  N   UNL     1     -12.851  55.576  50.058  0.00  0.00    +0.000 N 
ATOM      6  O   UNL     1     -11.984  55.974  46.604  0.00  0.00    +0.000 OA
ATOM      7  C   UNL     1     -13.281  56.022  48.735  0.00  0.00    +0.000 C 
ENDROOT
BRANCH   1  13
ATOM      8  S   UNL     1      -8.040  53.967  46.588  0.00  0.00    +0.000 S 
ATOM      9  O   UNL     1      -7.742  54.899  45.518  0.00  0.00    +0.000 OA
ATOM     10  O   UNL     1      -8.005  52.538  46.344  0.00  0.00    +0.000 OA
ATOM     11  N   UNL     1      -9.504  54.327  47.178  0.00  0.00    +0.000 N 
ATOM     12  C   UNL     1      -6.854  54.277  47.846  0.00  0.00    +0.000 A 
ATOM     13  C   UNL     1      -9.620  54.973  48.299  0.00  0.00    +0.000 C 
ATOM     14  C   UNL     1      -7.273  54.961  48.978  0.00  0.00    +0.000 A 
ATOM     15  C   UNL     1      -5.539  53.834  47.691  0.00  0.00    +0.000 A 
ATOM     16  N   UNL     1      -8.595  55.368  49.124  0.00  0.00    +0.000 N 
ATOM     17  C   UNL     1      -6.335  55.217  49.982  0.00  0.00    +0.000 A 
ATOM     18  C   UNL     1      -4.617  54.089  48.702  0.00  0.00    +0.000 A 
ATOM     19  C   UNL     1      -5.014  54.780  49.846  0.00  0.00    +0.000 A 
ATOM     20  H   UNL     1     -10.311  54.054  46.684  0.00  0.00    +0.000 HD
ATOM     21  H   UNL     1      -8.809  55.977  49.867  0.00  0.00    +0.000 HD
ENDBRANCH   1  13
BRANCH   7  22
ATOM     22  C   UNL     1     -13.793  57.486  48.698  0.00  0.00    +0.000 C 
ATOM     23  C   UNL     1     -14.233  57.910  47.290  0.00  0.00    +0.000 C 
ATOM     24  C   UNL     1     -12.782  58.503  49.242  0.00  0.00    +0.000 C 
ENDBRANCH   7  22
BRANCH   5  25
ATOM     25  C   UNL     1     -13.677  55.616  51.252  0.00  0.00    +0.000 C 
BRANCH  25  26
ATOM     26  C   UNL     1     -13.262  56.711  52.229  0.00  0.00    +0.000 C 
BRANCH  26  27
ATOM     27  C   UNL     1     -14.463  57.481  52.807  0.00  0.00    +0.000 C 
ATOM     28  C   UNL     1     -14.397  58.977  52.490  0.00  0.00    +0.000 C 
ATOM     29  C   UNL     1     -15.764  56.893  52.260  0.00  0.00    +0.000 C 
ENDBRANCH  26  27
ENDBRANCH  25  26
ENDBRANCH   5  25
TORSDOF 5
ENDMDL
MODEL 3
REMARK VINA RESULT:      -7.2      3.730      5.982
REMARK  Name = 
REMARK  9 active torsions:
REMARK  status: ('A' for Active; 'I' for Inactive)
REMARK    1  A    between atoms: C_6  and  C_10
REMARK    2  A    between atoms: N_17  and  C_20
REMARK    3  A    between atoms: C_19  and  C_21
REMARK    4  A    between atoms: C_20  and  C_22
REMARK    5  A    between atoms: C_21  and  C_23
REMARK    6  A    between atoms: C_21  and  C_24
REMARK    7  A    between atoms: C_22  and  C_25
REMARK    8  A    between atoms: C_25  and  C_26
REMARK    9  A    between atoms: C_25  and  C_27
REMARK                            x       y       z     vdW  Elec       q    Type
REMARK                         _______ _______ _______ _____ _____    ______ ____
ROOT
ATOM      1  C   UNL     1     -10.214  55.270  50.453  0.00  0.00    +0.000 C 
ATOM      2  C   UNL     1     -11.343  55.325  51.395  0.00  0.00    +0.000 C 
ATOM      3  C   UNL     1     -10.741  55.396  49.229  0.00  0.00    +0.000 C 
ATOM      4  O   UNL     1     -11.220  55.210  52.603  0.00  0.00    +0.000 OA
ATOM      5  N   UNL     1     -12.494  55.508  50.660  0.00  0.00    +0.000 N 
ATOM      6  O   UNL     1     -10.051  55.336  48.044  0.00  0.00    +0.000 OA
ATOM      7  C   UNL     1     -12.232  55.604  49.226  0.00  0.00    +0.000 C 
ENDROOT
BRANCH   1  13
ATOM      8  S   UNL     1      -6.423  54.466  50.185  0.00  0.00    +0.000 S 
ATOM      9  O   UNL     1      -5.729  55.576  49.563  0.00  0.00    +0.000 OA
ATOM     10  O   UNL     1      -6.067  53.101  49.848  0.00  0.00    +0.000 OA
ATOM     11  N   UNL     1      -8.008  54.642  49.906  0.00  0.00    +0.000 N 
ATOM     12  C   UNL     1      -6.152  54.629  51.912  0.00  0.00    +0.000 A 
ATOM     13  C   UNL     1      -8.793  55.087  50.840  0.00  0.00    +0.000 C 
ATOM     14  C   UNL     1      -7.201  55.094  52.692  0.00  0.00    +0.000 A 
ATOM     15  C   UNL     1      -4.912  54.292  52.460  0.00  0.00    +0.000 A 
ATOM     16  N   UNL     1      -8.436  55.396  52.130  0.00  0.00    +0.000 N 
ATOM     17  C   UNL     1      -6.993  55.232  54.067  0.00  0.00    +0.000 A 
ATOM     18  C   UNL     1      -4.720  54.427  53.831  0.00  0.00    +0.000 A 
ATOM     19  C   UNL     1      -5.759  54.898  54.635  0.00  0.00    +0.000 A 
ATOM     20  H   UNL     1      -8.379  54.409  49.024  0.00  0.00    +0.000 HD
ATOM     21  H   UNL     1      -9.096  55.862  52.692  0.00  0.00    +0.000 HD
ENDBRANCH   1  13
BRANCH   7  22
ATOM     22  C   UNL     1     -12.718  56.930  48.584  0.00  0.00    +0.000 C 
ATOM     23  C   UNL     1     -12.495  58.136  49.507  0.00  0.00    +0.000 C 
ATOM     24  C   UNL     1     -14.185  56.895  48.140  0.00  0.00    +0.000 C 
ENDBRANCH   7  22
BRANCH   5  25
ATOM     25  C   UNL     1     -13.802  55.655  51.273  0.00  0.00    +0.000 C 
BRANCH  25  26
ATOM     26  C   UNL     1     -13.859  56.783  52.298  0.00  0.00    +0.000 C 
BRANCH  26  27
ATOM     27  C   UNL     1     -15.221  57.499  52.323  0.00  0.00    +0.000 C 
ATOM     28  C   UNL     1     -15.088  59.006  52.094  0.00  0.00    +0.000 C 
ATOM     29  C   UNL     1     -16.141  56.893  51.263  0.00  0.00    +0.000 C 
ENDBRANCH  26  27
ENDBRANCH  25  26
ENDBRANCH   5  25
TORSDOF 5
ENDMDL
MODEL 4
REMARK VINA RESULT:      -7.0      2.793      7.725
REMARK  Name = 
REMARK  9 active torsions:
REMARK  status: ('A' for Active; 'I' for Inactive)
REMARK    1  A    between atoms: C_6  and  C_10
REMARK    2  A    between atoms: N_17  and  C_20
REMARK    3  A    between atoms: C_19  and  C_21
REMARK    4  A    between atoms: C_20  and  C_22
REMARK    5  A    between atoms: C_21  and  C_23
REMARK    6  A    between atoms: C_21  and  C_24
REMARK    7  A    between atoms: C_22  and  C_25
REMARK    8  A    between atoms: C_25  and  C_26
REMARK    9  A    between atoms: C_25  and  C_27
REMARK                            x       y       z     vdW  Elec       q    Type
REMARK                         _______ _______ _______ _____ _____    ______ ____
ROOT
ATOM      1  C   UNL     1     -12.297  55.054  48.795  0.00  0.00    +0.000 C 
ATOM      2  C   UNL     1     -11.877  54.947  47.389  0.00  0.00    +0.000 C 
ATOM      3  C   UNL     1     -11.966  53.894  49.374  0.00  0.00    +0.000 C 
ATOM      4  O   UNL     1     -12.057  55.826  46.562  0.00  0.00    +0.000 OA
ATOM      5  N   UNL     1     -11.288  53.714  47.219  0.00  0.00    +0.000 N 
ATOM      6  O   UNL     1     -12.232  53.535  50.672  0.00  0.00    +0.000 OA
ATOM      7  C   UNL     1     -11.253  52.936  48.456  0.00  0.00    +0.000 C 
ENDROOT
BRANCH   1  13
ATOM      8  S   UNL     1     -13.471  58.719  49.324  0.00  0.00    +0.000 S 
ATOM      9  O   UNL     1     -14.553  59.024  48.409  0.00  0.00    +0.000 OA
ATOM     10  O   UNL     1     -12.440  59.703  49.592  0.00  0.00    +0.000 OA
ATOM     11  N   UNL     1     -12.739  57.370  48.808  0.00  0.00    +0.000 N 
ATOM     12  C   UNL     1     -14.227  58.371  50.871  0.00  0.00    +0.000 A 
ATOM     13  C   UNL     1     -12.971  56.233  49.393  0.00  0.00    +0.000 C 
ATOM     14  C   UNL     1     -14.299  57.046  51.275  0.00  0.00    +0.000 A 
ATOM     15  C   UNL     1     -14.729  59.415  51.653  0.00  0.00    +0.000 A 
ATOM     16  N   UNL     1     -13.766  56.027  50.494  0.00  0.00    +0.000 N 
ATOM     17  C   UNL     1     -14.903  56.760  52.502  0.00  0.00    +0.000 A 
ATOM     18  C   UNL     1     -15.322  59.116  52.876  0.00  0.00    +0.000 A 
ATOM     19  C   UNL     1     -15.410  57.790  53.301  0.00  0.00    +0.000 A 
ATOM     20  H   UNL     1     -12.115  57.412  48.049  0.00  0.00    +0.000 HD
ATOM     21  H   UNL     1     -13.973  55.098  50.746  0.00  0.00    +0.000 HD
ENDBRANCH   1  13
BRANCH   7  22
ATOM     22  C   UNL     1      -9.825  52.525  48.902  0.00  0.00    +0.000 C 
ATOM     23  C   UNL     1      -9.837  51.284  49.805  0.00  0.00    +0.000 C 
ATOM     24  C   UNL     1      -9.051  53.651  49.596  0.00  0.00    +0.000 C 
ENDBRANCH   7  22
BRANCH   5  25
ATOM     25  C   UNL     1     -10.711  53.285  45.958  0.00  0.00    +0.000 C 
BRANCH  25  26
ATOM     26  C   UNL     1      -9.413  54.009  45.617  0.00  0.00    +0.000 C 
BRANCH  26  27
ATOM     27  C   UNL     1      -8.226  53.047  45.425  0.00  0.00    +0.000 C 
ATOM     28  C   UNL     1      -7.119  53.283  46.455  0.00  0.00    +0.000 C 
ATOM     29  C   UNL     1      -8.716  51.601  45.511  0.00  0.00    +0.000 C 
ENDBRANCH  26  27
ENDBRANCH  25  26
ENDBRANCH   5  25
TORSDOF 5
ENDMDL
MODEL 5
REMARK VINA RESULT:      -7.0      4.226      7.749
REMARK  Name = 
REMARK  9 active torsions:
REMARK  status: ('A' for Active; 'I' for Inactive)
REMARK    1  A    between atoms: C_6  and  C_10
REMARK    2  A    between atoms: N_17  and  C_20
REMARK    3  A    between atoms: C_19  and  C_21
REMARK    4  A    between atoms: C_20  and  C_22
REMARK    5  A    between atoms: C_21  and  C_23
REMARK    6  A    between atoms: C_21  and  C_24
REMARK    7  A    between atoms: C_22  and  C_25
REMARK    8  A    between atoms: C_25  and  C_26
REMARK    9  A    between atoms: C_25  and  C_27
REMARK                            x       y       z     vdW  Elec       q    Type
REMARK                         _______ _______ _______ _____ _____    ______ ____
ROOT
ATOM      1  C   UNL     1      -9.572  55.225  51.497  0.00  0.00    +0.000 C 
ATOM      2  C   UNL     1      -9.253  54.504  52.740  0.00  0.00    +0.000 C 
ATOM      3  C   UNL     1      -8.398  55.577  50.957  0.00  0.00    +0.000 C 
ATOM      4  O   UNL     1     -10.100  54.066  53.501  0.00  0.00    +0.000 OA
ATOM      5  N   UNL     1      -7.882  54.449  52.853  0.00  0.00    +0.000 N 
ATOM      6  O   UNL     1      -8.226  56.324  49.819  0.00  0.00    +0.000 OA
ATOM      7  C   UNL     1      -7.201  55.088  51.729  0.00  0.00    +0.000 C 
ENDROOT
BRANCH   1  13
ATOM      8  S   UNL     1     -12.582  55.577  49.067  0.00  0.00    +0.000 S 
ATOM      9  O   UNL     1     -13.133  54.268  48.776  0.00  0.00    +0.000 OA
ATOM     10  O   UNL     1     -12.459  56.569  48.015  0.00  0.00    +0.000 OA
ATOM     11  N   UNL     1     -11.114  55.373  49.720  0.00  0.00    +0.000 N 
ATOM     12  C   UNL     1     -13.628  56.284  50.287  0.00  0.00    +0.000 A 
ATOM     13  C   UNL     1     -10.943  55.499  51.001  0.00  0.00    +0.000 C 
ATOM     14  C   UNL     1     -13.162  56.331  51.593  0.00  0.00    +0.000 A 
ATOM     15  C   UNL     1     -14.883  56.782  49.928  0.00  0.00    +0.000 A 
ATOM     16  N   UNL     1     -11.898  55.857  51.922  0.00  0.00    +0.000 N 
ATOM     17  C   UNL     1     -13.990  56.888  52.571  0.00  0.00    +0.000 A 
ATOM     18  C   UNL     1     -15.694  57.340  50.911  0.00  0.00    +0.000 A 
ATOM     19  C   UNL     1     -15.250  57.392  52.232  0.00  0.00    +0.000 A 
ATOM     20  H   UNL     1     -10.347  55.154  49.143  0.00  0.00    +0.000 HD
ATOM     21  H   UNL     1     -11.672  55.772  52.877  0.00  0.00    +0.000 HD
ENDBRANCH   1  13
BRANCH   7  22
ATOM     22  C   UNL     1      -6.247  54.145  50.951  0.00  0.00    +0.000 C 
ATOM     23  C   UNL     1      -5.310  54.917  50.012  0.00  0.00    +0.000 C 
ATOM     24  C   UNL     1      -6.975  53.055  50.156  0.00  0.00    +0.000 C 
ENDBRANCH   7  22
BRANCH   5  25
ATOM     25  C   UNL     1      -7.211  53.764  53.943  0.00  0.00    +0.000 C 
BRANCH  25  26
ATOM     26  C   UNL     1      -6.121  54.607  54.598  0.00  0.00    +0.000 C 
BRANCH  26  27
ATOM     27  C   UNL     1      -4.714  54.012  54.414  0.00  0.00    +0.000 C 
ATOM     28  C   UNL     1      -4.749  52.646  53.724  0.00  0.00    +0.000 C 
ATOM     29  C   UNL     1      -3.848  54.979  53.605  0.00  0.00    +0.000 C 
ENDBRANCH  26  27
ENDBRANCH  25  26
ENDBRANCH   5  25
TORSDOF 5
ENDMDL
MODEL 6
REMARK VINA RESULT:      -7.0      2.997      7.986
REMARK  Name = 
REMARK  9 active torsions:
REMARK  status: ('A' for Active; 'I' for Inactive)
REMARK    1  A    between atoms: C_6  and  C_10
REMARK    2  A    between atoms: N_17  and  C_20
REMARK    3  A    between atoms: C_19  and  C_21
REMARK    4  A    between atoms: C_20  and  C_22
REMARK    5  A    between atoms: C_21  and  C_23
REMARK    6  A    between atoms: C_21  and  C_24
REMARK    7  A    between atoms: C_22  and  C_25
REMARK    8  A    between atoms: C_25  and  C_26
REMARK    9  A    between atoms: C_25  and  C_27
REMARK                            x       y       z     vdW  Elec       q    Type
REMARK                         _______ _______ _______ _____ _____    ______ ____
ROOT
ATOM      1  C   UNL     1     -11.476  56.079  48.707  0.00  0.00    +0.000 C 
ATOM      2  C   UNL     1     -10.356  55.402  49.380  0.00  0.00    +0.000 C 
ATOM      3  C   UNL     1     -11.427  55.697  47.425  0.00  0.00    +0.000 C 
ATOM      4  O   UNL     1     -10.088  55.553  50.561  0.00  0.00    +0.000 OA
ATOM      5  N   UNL     1      -9.712  54.624  48.444  0.00  0.00    +0.000 N 
ATOM      6  O   UNL     1     -12.251  56.140  46.420  0.00  0.00    +0.000 OA
ATOM      7  C   UNL     1     -10.337  54.703  47.126  0.00  0.00    +0.000 C 
ENDROOT
BRANCH   1  13
ATOM      8  S   UNL     1     -13.547  59.284  49.436  0.00  0.00    +0.000 S 
ATOM      9  O   UNL     1     -14.677  59.354  48.531  0.00  0.00    +0.000 OA
ATOM     10  O   UNL     1     -12.801  60.482  49.768  0.00  0.00    +0.000 OA
ATOM     11  N   UNL     1     -12.497  58.200  48.850  0.00  0.00    +0.000 N 
ATOM     12  C   UNL     1     -14.178  58.665  50.954  0.00  0.00    +0.000 A 
ATOM     13  C   UNL     1     -12.425  57.010  49.366  0.00  0.00    +0.000 C 
ATOM     14  C   UNL     1     -13.904  57.345  51.281  0.00  0.00    +0.000 A 
ATOM     15  C   UNL     1     -14.925  59.497  51.791  0.00  0.00    +0.000 A 
ATOM     16  N   UNL     1     -13.134  56.543  50.446  0.00  0.00    +0.000 N 
ATOM     17  C   UNL     1     -14.407  56.842  52.484  0.00  0.00    +0.000 A 
ATOM     18  C   UNL     1     -15.413  58.986  52.990  0.00  0.00    +0.000 A 
ATOM     19  C   UNL     1     -15.156  57.660  53.336  0.00  0.00    +0.000 A 
ATOM     20  H   UNL     1     -11.909  58.444  48.099  0.00  0.00    +0.000 HD
ATOM     21  H   UNL     1     -13.094  55.579  50.642  0.00  0.00    +0.000 HD
ENDBRANCH   1  13
BRANCH   7  22
ATOM     22  C   UNL     1     -10.817  53.335  46.572  0.00  0.00    +0.000 C 
ATOM     23  C   UNL     1     -11.087  53.385  45.062  0.00  0.00    +0.000 C 
ATOM     24  C   UNL     1     -12.053  52.782  47.291  0.00  0.00    +0.000 C 
ENDBRANCH   7  22
BRANCH   5  25
ATOM     25  C   UNL     1      -8.581  53.775  48.772  0.00  0.00    +0.000 C 
BRANCH  25  26
ATOM     26  C   UNL     1      -7.320  54.130  47.991  0.00  0.00    +0.000 C 
BRANCH  26  27
ATOM     27  C   UNL     1      -6.039  53.998  48.833  0.00  0.00    +0.000 C 
ATOM     28  C   UNL     1      -4.836  53.565  47.992  0.00  0.00    +0.000 C 
ATOM     29  C   UNL     1      -5.737  55.328  49.524  0.00  0.00    +0.000 C 
ENDBRANCH  26  27
ENDBRANCH  25  26
ENDBRANCH   5  25
TORSDOF 5
ENDMDL
MODEL 7
REMARK VINA RESULT:      -6.9      3.628      6.614
REMARK  Name = 
REMARK  9 active torsions:
REMARK  status: ('A' for Active; 'I' for Inactive)
REMARK    1  A    between atoms: C_6  and  C_10
REMARK    2  A    between atoms: N_17  and  C_20
REMARK    3  A    between atoms: C_19  and  C_21
REMARK    4  A    between atoms: C_20  and  C_22
REMARK    5  A    between atoms: C_21  and  C_23
REMARK    6  A    between atoms: C_21  and  C_24
REMARK    7  A    between atoms: C_22  and  C_25
REMARK    8  A    between atoms: C_25  and  C_26
REMARK    9  A    between atoms: C_25  and  C_27
REMARK                            x       y       z     vdW  Elec       q    Type
REMARK                         _______ _______ _______ _____ _____    ______ ____
ROOT
ATOM      1  C   UNL     1     -10.863  54.133  50.561  0.00  0.00    +0.000 C 
ATOM      2  C   UNL     1     -11.816  55.231  50.784  0.00  0.00    +0.000 C 
ATOM      3  C   UNL     1     -11.148  53.630  49.353  0.00  0.00    +0.000 C 
ATOM      4  O   UNL     1     -11.856  55.893  51.808  0.00  0.00    +0.000 OA
ATOM      5  N   UNL     1     -12.611  55.332  49.663  0.00  0.00    +0.000 N 
ATOM      6  O   UNL     1     -10.543  52.545  48.769  0.00  0.00    +0.000 OA
ATOM      7  C   UNL     1     -12.252  54.358  48.634  0.00  0.00    +0.000 C 
ENDROOT
BRANCH   1  13
ATOM      8  S   UNL     1      -8.883  51.896  53.043  0.00  0.00    +0.000 S 
ATOM      9  O   UNL     1      -8.071  50.946  52.308  0.00  0.00    +0.000 OA
ATOM     10  O   UNL     1      -9.578  51.484  54.248  0.00  0.00    +0.000 OA
ATOM     11  N   UNL     1      -9.985  52.510  52.028  0.00  0.00    +0.000 N 
ATOM     12  C   UNL     1      -7.801  53.193  53.523  0.00  0.00    +0.000 A 
ATOM     13  C   UNL     1      -9.826  53.698  51.529  0.00  0.00    +0.000 C 
ATOM     14  C   UNL     1      -7.881  54.394  52.833  0.00  0.00    +0.000 A 
ATOM     15  C   UNL     1      -6.899  52.998  54.572  0.00  0.00    +0.000 A 
ATOM     16  N   UNL     1      -8.807  54.575  51.811  0.00  0.00    +0.000 N 
ATOM     17  C   UNL     1      -7.020  55.430  53.205  0.00  0.00    +0.000 A 
ATOM     18  C   UNL     1      -6.053  54.041  54.937  0.00  0.00    +0.000 A 
ATOM     19  C   UNL     1      -6.112  55.255  54.254  0.00  0.00    +0.000 A 
ATOM     20  H   UNL     1     -10.780  51.980  51.790  0.00  0.00    +0.000 HD
ATOM     21  H   UNL     1      -8.725  55.382  51.255  0.00  0.00    +0.000 HD
ENDBRANCH   1  13
BRANCH   7  22
ATOM     22  C   UNL     1     -11.857  54.992  47.275  0.00  0.00    +0.000 C 
ATOM     23  C   UNL     1     -11.962  53.991  46.117  0.00  0.00    +0.000 C 
ATOM     24  C   UNL     1     -10.459  55.622  47.276  0.00  0.00    +0.000 C 
ENDBRANCH   7  22
BRANCH   5  25
ATOM     25  C   UNL     1     -13.638  56.347  49.516  0.00  0.00    +0.000 C 
BRANCH  25  26
ATOM     26  C   UNL     1     -14.912  56.025  50.289  0.00  0.00    +0.000 C 
BRANCH  26  27
ATOM     27  C   UNL     1     -15.445  57.226  51.091  0.00  0.00    +0.000 C 
ATOM     28  C   UNL     1     -15.277  57.033  52.600  0.00  0.00    +0.000 C 
ATOM     29  C   UNL     1     -14.726  58.500  50.648  0.00  0.00    +0.000 C 
ENDBRANCH  26  27
ENDBRANCH  25  26
ENDBRANCH   5  25
TORSDOF 5
ENDMDL
MODEL 8
REMARK VINA RESULT:      -6.8      2.502      3.348
REMARK  Name = 
REMARK  9 active torsions:
REMARK  status: ('A' for Active; 'I' for Inactive)
REMARK    1  A    between atoms: C_6  and  C_10
REMARK    2  A    between atoms: N_17  and  C_20
REMARK    3  A    between atoms: C_19  and  C_21
REMARK    4  A    between atoms: C_20  and  C_22
REMARK    5  A    between atoms: C_21  and  C_23
REMARK    6  A    between atoms: C_21  and  C_24
REMARK    7  A    between atoms: C_22  and  C_25
REMARK    8  A    between atoms: C_25  and  C_26
REMARK    9  A    between atoms: C_25  and  C_27
REMARK                            x       y       z     vdW  Elec       q    Type
REMARK                         _______ _______ _______ _____ _____    ______ ____
ROOT
ATOM      1  C   UNL     1     -12.170  54.390  48.791  0.00  0.00    +0.000 C 
ATOM      2  C   UNL     1     -12.249  55.800  48.377  0.00  0.00    +0.000 C 
ATOM      3  C   UNL     1     -12.295  54.383  50.123  0.00  0.00    +0.000 C 
ATOM      4  O   UNL     1     -12.141  56.171  47.220  0.00  0.00    +0.000 OA
ATOM      5  N   UNL     1     -12.445  56.559  49.510  0.00  0.00    +0.000 N 
ATOM      6  O   UNL     1     -12.216  53.280  50.935  0.00  0.00    +0.000 OA
ATOM      7  C   UNL     1     -12.527  55.746  50.721  0.00  0.00    +0.000 C 
ENDROOT
BRANCH   1  13
ATOM      8  S   UNL     1     -11.895  50.736  47.500  0.00  0.00    +0.000 S 
ATOM      9  O   UNL     1     -13.221  50.183  47.308  0.00  0.00    +0.000 OA
ATOM     10  O   UNL     1     -10.838  49.921  48.068  0.00  0.00    +0.000 OA
ATOM     11  N   UNL     1     -12.031  52.067  48.413  0.00  0.00    +0.000 N 
ATOM     12  C   UNL     1     -11.335  51.222  45.908  0.00  0.00    +0.000 A 
ATOM     13  C   UNL     1     -11.967  53.245  47.869  0.00  0.00    +0.000 C 
ATOM     14  C   UNL     1     -11.330  52.577  45.608  0.00  0.00    +0.000 A 
ATOM     15  C   UNL     1     -10.909  50.257  44.993  0.00  0.00    +0.000 A 
ATOM     16  N   UNL     1     -11.732  53.522  46.545  0.00  0.00    +0.000 N 
ATOM     17  C   UNL     1     -10.892  52.972  44.341  0.00  0.00    +0.000 A 
ATOM     18  C   UNL     1     -10.468  50.665  43.738  0.00  0.00    +0.000 A 
ATOM     19  C   UNL     1     -10.459  52.021  43.411  0.00  0.00    +0.000 A 
ATOM     20  H   UNL     1     -12.161  51.982  49.385  0.00  0.00    +0.000 HD
ATOM     21  H   UNL     1     -11.855  54.449  46.239  0.00  0.00    +0.000 HD
ENDBRANCH   1  13
BRANCH   7  22
ATOM     22  C   UNL     1     -13.856  55.912  51.503  0.00  0.00    +0.000 C 
ATOM     23  C   UNL     1     -15.071  55.997  50.569  0.00  0.00    +0.000 C 
ATOM     24  C   UNL     1     -13.862  57.116  52.453  0.00  0.00    +0.000 C 
ENDBRANCH   7  22
BRANCH   5  25
ATOM     25  C   UNL     1     -12.618  58.000  49.469  0.00  0.00    +0.000 C 
BRANCH  25  26
ATOM     26  C   UNL     1     -13.965  58.426  48.896  0.00  0.00    +0.000 C 
BRANCH  26  27
ATOM     27  C   UNL     1     -14.394  59.830  49.359  0.00  0.00    +0.000 C 
ATOM     28  C   UNL     1     -15.359  59.777  50.546  0.00  0.00    +0.000 C 
ATOM     29  C   UNL     1     -13.158  60.650  49.730  0.00  0.00    +0.000 C 
ENDBRANCH  26  27
ENDBRANCH  25  26
ENDBRANCH   5  25
TORSDOF 5
ENDMDL
MODEL 9
REMARK VINA RESULT:      -6.8      3.232      7.571
REMARK  Name = 
REMARK  9 active torsions:
REMARK  status: ('A' for Active; 'I' for Inactive)
REMARK    1  A    between atoms: C_6  and  C_10
REMARK    2  A    between atoms: N_17  and  C_20
REMARK    3  A    between atoms: C_19  and  C_21
REMARK    4  A    between atoms: C_20  and  C_22
REMARK    5  A    between atoms: C_21  and  C_23
REMARK    6  A    between atoms: C_21  and  C_24
REMARK    7  A    between atoms: C_22  and  C_25
REMARK    8  A    between atoms: C_25  and  C_26
REMARK    9  A    between atoms: C_25  and  C_27
REMARK                            x       y       z     vdW  Elec       q    Type
REMARK                         _______ _______ _______ _____ _____    ______ ____
ROOT
ATOM      1  C   UNL     1     -12.106  54.580  50.138  0.00  0.00    +0.000 C 
ATOM      2  C   UNL     1     -11.990  54.118  48.746  0.00  0.00    +0.000 C 
ATOM      3  C   UNL     1     -11.435  53.694  50.884  0.00  0.00    +0.000 C 
ATOM      4  O   UNL     1     -12.515  54.684  47.801  0.00  0.00    +0.000 OA
ATOM      5  N   UNL     1     -11.221  52.976  48.746  0.00  0.00    +0.000 N 
ATOM      6  O   UNL     1     -11.336  53.703  52.253  0.00  0.00    +0.000 OA
ATOM      7  C   UNL     1     -10.765  52.608  50.084  0.00  0.00    +0.000 C 
ENDROOT
BRANCH   1  13
ATOM      8  S   UNL     1     -14.328  56.930  52.291  0.00  0.00    +0.000 S 
ATOM      9  O   UNL     1     -13.554  57.460  53.397  0.00  0.00    +0.000 OA
ATOM     10  O   UNL     1     -15.706  56.523  52.491  0.00  0.00    +0.000 OA
ATOM     11  N   UNL     1     -13.528  55.664  51.676  0.00  0.00    +0.000 N 
ATOM     12  C   UNL     1     -14.364  58.195  51.073  0.00  0.00    +0.000 A 
ATOM     13  C   UNL     1     -12.853  55.787  50.573  0.00  0.00    +0.000 C 
ATOM     14  C   UNL     1     -13.560  58.041  49.953  0.00  0.00    +0.000 A 
ATOM     15  C   UNL     1     -15.189  59.310  51.248  0.00  0.00    +0.000 A 
ATOM     16  N   UNL     1     -12.769  56.910  49.786  0.00  0.00    +0.000 N 
ATOM     17  C   UNL     1     -13.578  59.045  48.982  0.00  0.00    +0.000 A 
ATOM     18  C   UNL     1     -15.203  60.298  50.269  0.00  0.00    +0.000 A 
ATOM     19  C   UNL     1     -14.398  60.168  49.137  0.00  0.00    +0.000 A 
ATOM     20  H   UNL     1     -13.555  54.796  52.140  0.00  0.00    +0.000 HD
ATOM     21  H   UNL     1     -12.107  56.914  49.058  0.00  0.00    +0.000 HD
ENDBRANCH   1  13
BRANCH   7  22
ATOM     22  C   UNL     1      -9.222  52.532  50.227  0.00  0.00    +0.000 C 
ATOM     23  C   UNL     1      -8.791  51.578  51.348  0.00  0.00    +0.000 C 
ATOM     24  C   UNL     1      -8.558  53.898  50.439  0.00  0.00    +0.000 C 
ENDBRANCH   7  22
BRANCH   5  25
ATOM     25  C   UNL     1     -10.860  52.272  47.529  0.00  0.00    +0.000 C 
BRANCH  25  26
ATOM     26  C   UNL     1     -10.305  53.192  46.447  0.00  0.00    +0.000 C 
BRANCH  26  27
ATOM     27  C   UNL     1      -8.908  53.740  46.787  0.00  0.00    +0.000 C 
ATOM     28  C   UNL     1      -7.828  53.191  45.851  0.00  0.00    +0.000 C 
ATOM     29  C   UNL     1      -8.923  55.267  46.723  0.00  0.00    +0.000 C 
ENDBRANCH  26  27
ENDBRANCH  25  26
ENDBRANCH   5  25
TORSDOF 5
ENDMDL
