MODEL 1
REMARK VINA RESULT:      -7.8      0.000      0.000
REMARK  Name = 
REMARK  9 active torsions:
REMARK  status: ('A' for Active; 'I' for Inactive)
REMARK    1  A    between atoms: S_1  and  N_4
REMARK    2  A    between atoms: S_1  and  C_5
REMARK    3  A    between atoms: N_10  and  C_13
REMARK    4  A    between atoms: C_16  and  C_19
REMARK    5  A    between atoms: C_19  and  O_23
REMARK    6  A    between atoms: O_23  and  C_26
REMARK    7  A    between atoms: C_24  and  C_27
REMARK    8  A    between atoms: C_24  and  C_28
REMARK    9  A    between atoms: C_26  and  C_29
REMARK                            x       y       z     vdW  Elec       q    Type
REMARK                         _______ _______ _______ _____ _____    ______ ____
ROOT
ATOM      1  C   UNL     1     -10.968  54.321  51.644  0.00  0.00    +0.000 A 
ATOM      2  S   UNL     1     -10.500  53.703  53.157  0.00  0.00    +0.000 S 
ATOM      3  C   UNL     1      -9.899  54.794  50.900  0.00  0.00    +0.000 A 
ATOM      4  C   UNL     1      -8.840  53.831  52.763  0.00  0.00    +0.000 A 
ATOM      5  C   UNL     1      -8.649  54.414  51.520  0.00  0.00    +0.000 A 
ATOM      6  C   UNL     1      -7.728  53.362  53.676  0.00  0.00    +0.000 C 
ATOM      7  C   UNL     1      -7.275  54.677  50.971  0.00  0.00    +0.000 C 
ATOM      8  C   UNL     1      -6.363  54.014  53.281  0.00  0.00    +0.000 C 
ATOM      9  C   UNL     1      -6.184  53.939  51.744  0.00  0.00    +0.000 C 
ATOM     10  C   UNL     1      -5.179  53.260  53.915  0.00  0.00    +0.000 C 
ATOM     11  C   UNL     1      -6.308  55.476  53.770  0.00  0.00    +0.000 C 
ENDROOT
BRANCH   1  15
ATOM     12  N   UNL     1     -14.443  55.203  51.200  0.00  0.00    +0.000 N 
ATOM     13  C   UNL     1     -13.119  55.320  51.618  0.00  0.00    +0.000 C 
ATOM     14  O   UNL     1     -12.711  56.359  52.141  0.00  0.00    +0.000 OA
ATOM     15  N   UNL     1     -12.320  54.231  51.329  0.00  0.00    +0.000 N 
ATOM     16  H   UNL     1     -14.724  54.354  50.787  0.00  0.00    +0.000 HD
ATOM     17  H   UNL     1     -12.693  53.420  50.914  0.00  0.00    +0.000 HD
BRANCH  12  18
ATOM     18  S   UNL     1     -15.585  56.415  51.354  0.00  0.00    +0.000 S 
ATOM     19  O   UNL     1     -15.726  56.800  52.742  0.00  0.00    +0.000 OA
ATOM     20  O   UNL     1     -16.733  55.946  50.606  0.00  0.00    +0.000 OA
BRANCH  18  21
ATOM     21  C   UNL     1     -14.898  57.791  50.445  0.00  0.00    +0.000 A 
ATOM     22  C   UNL     1     -14.341  57.606  49.176  0.00  0.00    +0.000 A 
ATOM     23  C   UNL     1     -15.025  59.083  50.973  0.00  0.00    +0.000 A 
ATOM     24  C   UNL     1     -13.876  58.709  48.452  0.00  0.00    +0.000 A 
ATOM     25  C   UNL     1     -14.554  60.180  50.246  0.00  0.00    +0.000 A 
ATOM     26  C   UNL     1     -13.978  59.995  48.993  0.00  0.00    +0.000 A 
ENDBRANCH  18  21
ENDBRANCH  12  18
ENDBRANCH   1  15
BRANCH   3  27
ATOM     27  C   UNL     1     -10.072  55.559  49.665  0.00  0.00    +0.000 C 
ATOM     28  O   UNL     1      -9.728  56.729  49.545  0.00  0.00    +0.000 OA
BRANCH  27  29
ATOM     29  O   UNL     1     -10.651  54.818  48.686  0.00  0.00    +0.000 OA
BRANCH  29  30
ATOM     30  C   UNL     1     -11.792  55.379  48.033  0.00  0.00    +0.000 C 
ATOM     31  C   UNL     1     -11.496  55.567  46.559  0.00  0.00    +0.000 C 
ENDBRANCH  29  30
ENDBRANCH  27  29
ENDBRANCH   3  27
TORSDOF 6
ENDMDL
MODEL 2
REMARK VINA RESULT:      -7.4      2.565      7.748
REMARK  Name = 
REMARK  9 active torsions:
REMARK  status: ('A' for Active; 'I' for Inactive)
REMARK    1  A    between atoms: S_1  and  N_4
REMARK    2  A    between atoms: S_1  and  C_5
REMARK    3  A    between atoms: N_10  and  C_13
REMARK    4  A    between atoms: C_16  and  C_19
REMARK    5  A    between atoms: C_19  and  O_23
REMARK    6  A    between atoms: O_23  and  C_26
REMARK    7  A    between atoms: C_24  and  C_27
REMARK    8  A    between atoms: C_24  and  C_28
REMARK    9  A    between atoms: C_26  and  C_29
REMARK                            x       y       z     vdW  Elec       q    Type
REMARK                         _______ _______ _______ _____ _____    ______ ____
ROOT
ATOM      1  C   UNL     1     -11.145  54.875  50.183  0.00  0.00    +0.000 A 
ATOM      2  S   UNL     1     -11.725  54.916  51.781  0.00  0.00    +0.000 S 
ATOM      3  C   UNL     1     -11.820  55.746  49.342  0.00  0.00    +0.000 A 
ATOM      4  C   UNL     1     -12.726  56.263  51.446  0.00  0.00    +0.000 A 
ATOM      5  C   UNL     1     -12.675  56.623  50.109  0.00  0.00    +0.000 A 
ATOM      6  C   UNL     1     -13.563  56.961  52.497  0.00  0.00    +0.000 C 
ATOM      7  C   UNL     1     -13.504  57.750  49.560  0.00  0.00    +0.000 C 
ATOM      8  C   UNL     1     -14.693  57.818  51.839  0.00  0.00    +0.000 C 
ATOM      9  C   UNL     1     -14.101  58.628  50.658  0.00  0.00    +0.000 C 
ATOM     10  C   UNL     1     -15.280  58.832  52.838  0.00  0.00    +0.000 C 
ATOM     11  C   UNL     1     -15.842  56.908  51.358  0.00  0.00    +0.000 C 
ENDROOT
BRANCH   1  15
ATOM     12  N   UNL     1      -7.771  53.593  50.044  0.00  0.00    +0.000 N 
ATOM     13  C   UNL     1      -8.802  54.512  50.228  0.00  0.00    +0.000 C 
ATOM     14  O   UNL     1      -8.574  55.635  50.683  0.00  0.00    +0.000 OA
ATOM     15  N   UNL     1     -10.065  54.035  49.938  0.00  0.00    +0.000 N 
ATOM     16  H   UNL     1      -8.001  52.708  49.678  0.00  0.00    +0.000 HD
ATOM     17  H   UNL     1     -10.197  53.131  49.571  0.00  0.00    +0.000 HD
BRANCH  12  18
ATOM     18  S   UNL     1      -6.167  53.899  50.407  0.00  0.00    +0.000 S 
ATOM     19  O   UNL     1      -5.797  55.227  49.970  0.00  0.00    +0.000 OA
ATOM     20  O   UNL     1      -5.445  52.742  49.920  0.00  0.00    +0.000 OA
BRANCH  18  21
ATOM     21  C   UNL     1      -6.098  53.843  52.192  0.00  0.00    +0.000 A 
ATOM     22  C   UNL     1      -5.984  55.016  52.944  0.00  0.00    +0.000 A 
ATOM     23  C   UNL     1      -6.275  52.612  52.838  0.00  0.00    +0.000 A 
ATOM     24  C   UNL     1      -6.005  54.954  54.341  0.00  0.00    +0.000 A 
ATOM     25  C   UNL     1      -6.292  52.556  54.234  0.00  0.00    +0.000 A 
ATOM     26  C   UNL     1      -6.154  53.720  54.984  0.00  0.00    +0.000 A 
ENDBRANCH  18  21
ENDBRANCH  12  18
ENDBRANCH   1  15
BRANCH   3  27
ATOM     27  C   UNL     1     -11.645  55.736  47.889  0.00  0.00    +0.000 C 
ATOM     28  O   UNL     1     -12.580  55.672  47.100  0.00  0.00    +0.000 OA
BRANCH  27  29
ATOM     29  O   UNL     1     -10.336  55.808  47.535  0.00  0.00    +0.000 OA
BRANCH  29  30
ATOM     30  C   UNL     1      -9.888  54.916  46.512  0.00  0.00    +0.000 C 
ATOM     31  C   UNL     1      -8.376  54.950  46.431  0.00  0.00    +0.000 C 
ENDBRANCH  29  30
ENDBRANCH  27  29
ENDBRANCH   3  27
TORSDOF 6
ENDMDL
MODEL 3
REMARK VINA RESULT:      -7.2      3.728      7.417
REMARK  Name = 
REMARK  9 active torsions:
REMARK  status: ('A' for Active; 'I' for Inactive)
REMARK    1  A    between atoms: S_1  and  N_4
REMARK    2  A    between atoms: S_1  and  C_5
REMARK    3  A    between atoms: N_10  and  C_13
REMARK    4  A    between atoms: C_16  and  C_19
REMARK    5  A    between atoms: C_19  and  O_23
REMARK    6  A    between atoms: O_23  and  C_26
REMARK    7  A    between atoms: C_24  and  C_27
REMARK    8  A    between atoms: C_24  and  C_28
REMARK    9  A    between atoms: C_26  and  C_29
REMARK                            x       y       z     vdW  Elec       q    Type
REMARK                         _______ _______ _______ _____ _____    ______ ____
ROOT
ATOM      1  C   UNL     1     -11.320  54.849  50.074  0.00  0.00    +0.000 A 
ATOM      2  S   UNL     1     -11.915  54.830  51.667  0.00  0.00    +0.000 S 
ATOM      3  C   UNL     1     -11.946  55.794  49.276  0.00  0.00    +0.000 A 
ATOM      4  C   UNL     1     -12.850  56.238  51.398  0.00  0.00    +0.000 A 
ATOM      5  C   UNL     1     -12.768  56.667  50.083  0.00  0.00    +0.000 A 
ATOM      6  C   UNL     1     -13.666  56.915  52.479  0.00  0.00    +0.000 C 
ATOM      7  C   UNL     1     -13.540  57.858  49.589  0.00  0.00    +0.000 C 
ATOM      8  C   UNL     1     -14.748  57.857  51.859  0.00  0.00    +0.000 C 
ATOM      9  C   UNL     1     -14.108  58.702  50.729  0.00  0.00    +0.000 C 
ATOM     10  C   UNL     1     -15.300  58.841  52.907  0.00  0.00    +0.000 C 
ATOM     11  C   UNL     1     -15.933  57.028  51.320  0.00  0.00    +0.000 C 
ENDROOT
BRANCH   1  15
ATOM     12  N   UNL     1      -9.478  52.029  48.770  0.00  0.00    +0.000 N 
ATOM     13  C   UNL     1     -10.577  52.819  49.099  0.00  0.00    +0.000 C 
ATOM     14  O   UNL     1     -11.710  52.513  48.722  0.00  0.00    +0.000 OA
ATOM     15  N   UNL     1     -10.276  53.975  49.793  0.00  0.00    +0.000 N 
ATOM     16  H   UNL     1      -8.592  52.313  49.093  0.00  0.00    +0.000 HD
ATOM     17  H   UNL     1      -9.355  54.174  50.077  0.00  0.00    +0.000 HD
BRANCH  12  18
ATOM     18  S   UNL     1      -9.569  50.628  47.861  0.00  0.00    +0.000 S 
ATOM     19  O   UNL     1     -10.776  49.898  48.180  0.00  0.00    +0.000 OA
ATOM     20  O   UNL     1      -8.273  49.998  48.012  0.00  0.00    +0.000 OA
BRANCH  18  21
ATOM     21  C   UNL     1      -9.675  51.202  46.172  0.00  0.00    +0.000 A 
ATOM     22  C   UNL     1     -10.911  51.503  45.592  0.00  0.00    +0.000 A 
ATOM     23  C   UNL     1      -8.490  51.457  45.468  0.00  0.00    +0.000 A 
ATOM     24  C   UNL     1     -10.964  52.021  44.294  0.00  0.00    +0.000 A 
ATOM     25  C   UNL     1      -8.551  51.970  44.169  0.00  0.00    +0.000 A 
ATOM     26  C   UNL     1      -9.781  52.248  43.582  0.00  0.00    +0.000 A 
ENDBRANCH  18  21
ENDBRANCH  12  18
ENDBRANCH   1  15
BRANCH   3  27
ATOM     27  C   UNL     1     -11.755  55.855  47.827  0.00  0.00    +0.000 C 
ATOM     28  O   UNL     1     -12.684  55.899  47.029  0.00  0.00    +0.000 OA
BRANCH  27  29
ATOM     29  O   UNL     1     -10.441  55.857  47.487  0.00  0.00    +0.000 OA
BRANCH  29  30
ATOM     30  C   UNL     1     -10.059  55.065  46.360  0.00  0.00    +0.000 C 
ATOM     31  C   UNL     1      -8.549  55.040  46.243  0.00  0.00    +0.000 C 
ENDBRANCH  29  30
ENDBRANCH  27  29
ENDBRANCH   3  27
TORSDOF 6
ENDMDL
MODEL 4
REMARK VINA RESULT:      -7.1      3.002      8.257
REMARK  Name = 
REMARK  9 active torsions:
REMARK  status: ('A' for Active; 'I' for Inactive)
REMARK    1  A    between atoms: S_1  and  N_4
REMARK    2  A    between atoms: S_1  and  C_5
REMARK    3  A    between atoms: N_10  and  C_13
REMARK    4  A    between atoms: C_16  and  C_19
REMARK    5  A    between atoms: C_19  and  O_23
REMARK    6  A    between atoms: O_23  and  C_26
REMARK    7  A    between atoms: C_24  and  C_27
REMARK    8  A    between atoms: C_24  and  C_28
REMARK    9  A    between atoms: C_26  and  C_29
REMARK                            x       y       z     vdW  Elec       q    Type
REMARK                         _______ _______ _______ _____ _____    ______ ____
ROOT
ATOM      1  C   UNL     1     -10.871  54.962  50.367  0.00  0.00    +0.000 A 
ATOM      2  S   UNL     1     -11.433  55.069  51.969  0.00  0.00    +0.000 S 
ATOM      3  C   UNL     1     -11.622  55.716  49.480  0.00  0.00    +0.000 A 
ATOM      4  C   UNL     1     -12.542  56.307  51.559  0.00  0.00    +0.000 A 
ATOM      5  C   UNL     1     -12.535  56.575  50.200  0.00  0.00    +0.000 A 
ATOM      6  C   UNL     1     -13.419  57.009  52.574  0.00  0.00    +0.000 C 
ATOM      7  C   UNL     1     -13.458  57.592  49.589  0.00  0.00    +0.000 C 
ATOM      8  C   UNL     1     -14.621  57.727  51.878  0.00  0.00    +0.000 C 
ATOM      9  C   UNL     1     -14.110  58.496  50.634  0.00  0.00    +0.000 C 
ATOM     10  C   UNL     1     -15.274  58.759  52.815  0.00  0.00    +0.000 C 
ATOM     11  C   UNL     1     -15.700  56.698  51.482  0.00  0.00    +0.000 C 
ENDROOT
BRANCH   1  15
ATOM     12  N   UNL     1      -7.403  53.968  50.188  0.00  0.00    +0.000 N 
ATOM     13  C   UNL     1      -8.504  54.810  50.321  0.00  0.00    +0.000 C 
ATOM     14  O   UNL     1      -8.360  55.996  50.626  0.00  0.00    +0.000 OA
ATOM     15  N   UNL     1      -9.730  54.194  50.162  0.00  0.00    +0.000 N 
ATOM     16  H   UNL     1      -7.566  53.029  49.943  0.00  0.00    +0.000 HD
ATOM     17  H   UNL     1      -9.795  53.244  49.913  0.00  0.00    +0.000 HD
BRANCH  12  18
ATOM     18  S   UNL     1      -5.818  54.454  50.419  0.00  0.00    +0.000 S 
ATOM     19  O   UNL     1      -5.536  54.592  51.831  0.00  0.00    +0.000 OA
ATOM     20  O   UNL     1      -5.636  55.578  49.524  0.00  0.00    +0.000 OA
BRANCH  18  21
ATOM     21  C   UNL     1      -4.843  53.106  49.769  0.00  0.00    +0.000 A 
ATOM     22  C   UNL     1      -4.372  52.090  50.606  0.00  0.00    +0.000 A 
ATOM     23  C   UNL     1      -4.650  53.017  48.383  0.00  0.00    +0.000 A 
ATOM     24  C   UNL     1      -3.673  51.007  50.063  0.00  0.00    +0.000 A 
ATOM     25  C   UNL     1      -3.947  51.934  47.847  0.00  0.00    +0.000 A 
ATOM     26  C   UNL     1      -3.457  50.935  48.683  0.00  0.00    +0.000 A 
ENDBRANCH  18  21
ENDBRANCH  12  18
ENDBRANCH   1  15
BRANCH   3  27
ATOM     27  C   UNL     1     -11.464  55.618  48.029  0.00  0.00    +0.000 C 
ATOM     28  O   UNL     1     -12.392  55.375  47.267  0.00  0.00    +0.000 OA
BRANCH  27  29
ATOM     29  O   UNL     1     -10.180  55.830  47.642  0.00  0.00    +0.000 OA
BRANCH  29  30
ATOM     30  C   UNL     1      -9.678  55.019  46.579  0.00  0.00    +0.000 C 
ATOM     31  C   UNL     1      -8.173  54.892  46.700  0.00  0.00    +0.000 C 
ENDBRANCH  29  30
ENDBRANCH  27  29
ENDBRANCH   3  27
TORSDOF 6
ENDMDL
MODEL 5
REMARK VINA RESULT:      -6.9      2.182      2.806
REMARK  Name = 
REMARK  9 active torsions:
REMARK  status: ('A' for Active; 'I' for Inactive)
REMARK    1  A    between atoms: S_1  and  N_4
REMARK    2  A    between atoms: S_1  and  C_5
REMARK    3  A    between atoms: N_10  and  C_13
REMARK    4  A    between atoms: C_16  and  C_19
REMARK    5  A    between atoms: C_19  and  O_23
REMARK    6  A    between atoms: O_23  and  C_26
REMARK    7  A    between atoms: C_24  and  C_27
REMARK    8  A    between atoms: C_24  and  C_28
REMARK    9  A    between atoms: C_26  and  C_29
REMARK                            x       y       z     vdW  Elec       q    Type
REMARK                         _______ _______ _______ _____ _____    ______ ____
ROOT
ATOM      1  C   UNL     1     -11.581  53.220  50.652  0.00  0.00    +0.000 A 
ATOM      2  S   UNL     1     -10.483  52.818  51.887  0.00  0.00    +0.000 S 
ATOM      3  C   UNL     1     -11.072  52.995  49.383  0.00  0.00    +0.000 A 
ATOM      4  C   UNL     1      -9.396  52.110  50.771  0.00  0.00    +0.000 A 
ATOM      5  C   UNL     1      -9.833  52.254  49.464  0.00  0.00    +0.000 A 
ATOM      6  C   UNL     1      -8.113  51.419  51.182  0.00  0.00    +0.000 C 
ATOM      7  C   UNL     1      -9.025  51.755  48.299  0.00  0.00    +0.000 C 
ATOM      8  C   UNL     1      -7.128  51.296  49.973  0.00  0.00    +0.000 C 
ATOM      9  C   UNL     1      -7.905  50.808  48.725  0.00  0.00    +0.000 C 
ATOM     10  C   UNL     1      -6.023  50.263  50.256  0.00  0.00    +0.000 C 
ATOM     11  C   UNL     1      -6.448  52.654  49.700  0.00  0.00    +0.000 C 
ENDROOT
BRANCH   1  15
ATOM     12  N   UNL     1     -14.234  55.384  51.803  0.00  0.00    +0.000 N 
ATOM     13  C   UNL     1     -12.940  54.972  51.495  0.00  0.00    +0.000 C 
ATOM     14  O   UNL     1     -11.995  55.761  51.553  0.00  0.00    +0.000 OA
ATOM     15  N   UNL     1     -12.834  53.666  51.058  0.00  0.00    +0.000 N 
ATOM     16  H   UNL     1     -14.958  54.719  51.743  0.00  0.00    +0.000 HD
ATOM     17  H   UNL     1     -13.618  53.071  51.033  0.00  0.00    +0.000 HD
BRANCH  12  18
ATOM     18  S   UNL     1     -14.637  56.939  52.270  0.00  0.00    +0.000 S 
ATOM     19  O   UNL     1     -13.676  57.441  53.228  0.00  0.00    +0.000 OA
ATOM     20  O   UNL     1     -16.043  56.876  52.611  0.00  0.00    +0.000 OA
BRANCH  18  21
ATOM     21  C   UNL     1     -14.507  57.900  50.770  0.00  0.00    +0.000 A 
ATOM     22  C   UNL     1     -14.475  59.297  50.811  0.00  0.00    +0.000 A 
ATOM     23  C   UNL     1     -14.324  57.231  49.551  0.00  0.00    +0.000 A 
ATOM     24  C   UNL     1     -14.299  60.025  49.630  0.00  0.00    +0.000 A 
ATOM     25  C   UNL     1     -14.153  57.965  48.374  0.00  0.00    +0.000 A 
ATOM     26  C   UNL     1     -14.144  59.356  48.411  0.00  0.00    +0.000 A 
ENDBRANCH  18  21
ENDBRANCH  12  18
ENDBRANCH   1  15
BRANCH   3  27
ATOM     27  C   UNL     1     -11.743  53.458  48.168  0.00  0.00    +0.000 C 
ATOM     28  O   UNL     1     -12.161  52.701  47.301  0.00  0.00    +0.000 OA
BRANCH  27  29
ATOM     29  O   UNL     1     -11.842  54.811  48.128  0.00  0.00    +0.000 OA
BRANCH  29  30
ATOM     30  C   UNL     1     -11.368  55.464  46.948  0.00  0.00    +0.000 C 
ATOM     31  C   UNL     1      -9.858  55.355  46.877  0.00  0.00    +0.000 C 
ENDBRANCH  29  30
ENDBRANCH  27  29
ENDBRANCH   3  27
TORSDOF 6
ENDMDL
MODEL 6
REMARK VINA RESULT:      -6.6      1.945      2.753
REMARK  Name = 
REMARK  9 active torsions:
REMARK  status: ('A' for Active; 'I' for Inactive)
REMARK    1  A    between atoms: S_1  and  N_4
REMARK    2  A    between atoms: S_1  and  C_5
REMARK    3  A    between atoms: N_10  and  C_13
REMARK    4  A    between atoms: C_16  and  C_19
REMARK    5  A    between atoms: C_19  and  O_23
REMARK    6  A    between atoms: O_23  and  C_26
REMARK    7  A    between atoms: C_24  and  C_27
REMARK    8  A    between atoms: C_24  and  C_28
REMARK    9  A    between atoms: C_26  and  C_29
REMARK                            x       y       z     vdW  Elec       q    Type
REMARK                         _______ _______ _______ _____ _____    ______ ____
ROOT
ATOM      1  C   UNL     1     -10.567  54.002  50.418  0.00  0.00    +0.000 A 
ATOM      2  S   UNL     1      -9.610  54.734  51.618  0.00  0.00    +0.000 S 
ATOM      3  C   UNL     1      -9.818  53.465  49.383  0.00  0.00    +0.000 A 
ATOM      4  C   UNL     1      -8.168  54.145  50.910  0.00  0.00    +0.000 A 
ATOM      5  C   UNL     1      -8.414  53.466  49.728  0.00  0.00    +0.000 A 
ATOM      6  C   UNL     1      -6.796  54.355  51.516  0.00  0.00    +0.000 C 
ATOM      7  C   UNL     1      -7.300  52.895  48.895  0.00  0.00    +0.000 C 
ATOM      8  C   UNL     1      -5.672  54.132  50.453  0.00  0.00    +0.000 C 
ATOM      9  C   UNL     1      -5.972  52.843  49.649  0.00  0.00    +0.000 C 
ATOM     10  C   UNL     1      -4.299  53.942  51.124  0.00  0.00    +0.000 C 
ATOM     11  C   UNL     1      -5.574  55.354  49.516  0.00  0.00    +0.000 C 
ENDROOT
BRANCH   1  15
ATOM     12  N   UNL     1     -14.045  54.977  50.398  0.00  0.00    +0.000 N 
ATOM     13  C   UNL     1     -12.668  55.087  50.226  0.00  0.00    +0.000 C 
ATOM     14  O   UNL     1     -12.176  56.075  49.676  0.00  0.00    +0.000 OA
ATOM     15  N   UNL     1     -11.939  53.989  50.642  0.00  0.00    +0.000 N 
ATOM     16  H   UNL     1     -14.392  54.169  50.842  0.00  0.00    +0.000 HD
ATOM     17  H   UNL     1     -12.376  53.224  51.081  0.00  0.00    +0.000 HD
BRANCH  12  18
ATOM     18  S   UNL     1     -15.148  56.131  49.897  0.00  0.00    +0.000 S 
ATOM     19  O   UNL     1     -16.481  55.569  49.859  0.00  0.00    +0.000 OA
ATOM     20  O   UNL     1     -14.566  56.712  48.704  0.00  0.00    +0.000 OA
BRANCH  18  21
ATOM     21  C   UNL     1     -15.088  57.383  51.169  0.00  0.00    +0.000 A 
ATOM     22  C   UNL     1     -14.959  58.735  50.841  0.00  0.00    +0.000 A 
ATOM     23  C   UNL     1     -15.287  57.002  52.504  0.00  0.00    +0.000 A 
ATOM     24  C   UNL     1     -14.988  59.704  51.850  0.00  0.00    +0.000 A 
ATOM     25  C   UNL     1     -15.311  57.974  53.508  0.00  0.00    +0.000 A 
ATOM     26  C   UNL     1     -15.158  59.319  53.185  0.00  0.00    +0.000 A 
ENDBRANCH  18  21
ENDBRANCH  12  18
ENDBRANCH   1  15
BRANCH   3  27
ATOM     27  C   UNL     1     -10.420  52.974  48.143  0.00  0.00    +0.000 C 
ATOM     28  O   UNL     1     -10.422  51.793  47.819  0.00  0.00    +0.000 OA
BRANCH  27  29
ATOM     29  O   UNL     1     -10.967  53.979  47.412  0.00  0.00    +0.000 OA
BRANCH  29  30
ATOM     30  C   UNL     1     -10.415  54.216  46.116  0.00  0.00    +0.000 C 
ATOM     31  C   UNL     1      -9.066  54.892  46.251  0.00  0.00    +0.000 C 
ENDBRANCH  29  30
ENDBRANCH  27  29
ENDBRANCH   3  27
TORSDOF 6
ENDMDL
MODEL 7
REMARK VINA RESULT:      -6.5      2.928      8.431
REMARK  Name = 
REMARK  9 active torsions:
REMARK  status: ('A' for Active; 'I' for Inactive)
REMARK    1  A    between atoms: S_1  and  N_4
REMARK    2  A    between atoms: S_1  and  C_5
REMARK    3  A    between atoms: N_10  and  C_13
REMARK    4  A    between atoms: C_16  and  C_19
REMARK    5  A    between atoms: C_19  and  O_23
REMARK    6  A    between atoms: O_23  and  C_26
REMARK    7  A    between atoms: C_24  and  C_27
REMARK    8  A    between atoms: C_24  and  C_28
REMARK    9  A    between atoms: C_26  and  C_29
REMARK                            x       y       z     vdW  Elec       q    Type
REMARK                         _______ _______ _______ _____ _____    ______ ____
ROOT
ATOM      1  C   UNL     1     -10.693  54.594  50.666  0.00  0.00    +0.000 A 
ATOM      2  S   UNL     1     -11.544  54.975  52.088  0.00  0.00    +0.000 S 
ATOM      3  C   UNL     1     -11.226  55.202  49.540  0.00  0.00    +0.000 A 
ATOM      4  C   UNL     1     -12.495  56.144  51.277  0.00  0.00    +0.000 A 
ATOM      5  C   UNL     1     -12.218  56.183  49.920  0.00  0.00    +0.000 A 
ATOM      6  C   UNL     1     -13.515  57.018  51.976  0.00  0.00    +0.000 C 
ATOM      7  C   UNL     1     -12.958  57.098  48.986  0.00  0.00    +0.000 C 
ATOM      8  C   UNL     1     -14.527  57.629  50.952  0.00  0.00    +0.000 C 
ATOM      9  C   UNL     1     -13.753  58.172  49.726  0.00  0.00    +0.000 C 
ATOM     10  C   UNL     1     -15.298  58.812  51.566  0.00  0.00    +0.000 C 
ATOM     11  C   UNL     1     -15.559  56.565  50.523  0.00  0.00    +0.000 C 
ENDROOT
BRANCH   1  15
ATOM     12  N   UNL     1      -7.301  53.534  51.310  0.00  0.00    +0.000 N 
ATOM     13  C   UNL     1      -8.367  54.402  51.087  0.00  0.00    +0.000 C 
ATOM     14  O   UNL     1      -8.225  55.621  51.203  0.00  0.00    +0.000 OA
ATOM     15  N   UNL     1      -9.572  53.785  50.812  0.00  0.00    +0.000 N 
ATOM     16  H   UNL     1      -7.462  52.568  51.206  0.00  0.00    +0.000 HD
ATOM     17  H   UNL     1      -9.636  52.807  50.725  0.00  0.00    +0.000 HD
BRANCH  12  18
ATOM     18  S   UNL     1      -5.763  54.030  51.745  0.00  0.00    +0.000 S 
ATOM     19  O   UNL     1      -5.816  54.844  52.939  0.00  0.00    +0.000 OA
ATOM     20  O   UNL     1      -5.182  54.556  50.527  0.00  0.00    +0.000 OA
BRANCH  18  21
ATOM     21  C   UNL     1      -4.899  52.513  52.121  0.00  0.00    +0.000 A 
ATOM     22  C   UNL     1      -4.909  51.439  51.226  0.00  0.00    +0.000 A 
ATOM     23  C   UNL     1      -4.112  52.451  53.280  0.00  0.00    +0.000 A 
ATOM     24  C   UNL     1      -4.165  50.289  51.509  0.00  0.00    +0.000 A 
ATOM     25  C   UNL     1      -3.375  51.298  53.559  0.00  0.00    +0.000 A 
ATOM     26  C   UNL     1      -3.403  50.219  52.680  0.00  0.00    +0.000 A 
ENDBRANCH  18  21
ENDBRANCH  12  18
ENDBRANCH   1  15
BRANCH   3  27
ATOM     27  C   UNL     1     -10.800  54.862  48.182  0.00  0.00    +0.000 C 
ATOM     28  O   UNL     1     -10.362  55.687  47.389  0.00  0.00    +0.000 OA
BRANCH  27  29
ATOM     29  O   UNL     1     -10.947  53.538  47.920  0.00  0.00    +0.000 OA
BRANCH  29  30
ATOM     30  C   UNL     1     -11.836  53.179  46.860  0.00  0.00    +0.000 C 
ATOM     31  C   UNL     1     -12.335  51.764  47.070  0.00  0.00    +0.000 C 
ENDBRANCH  29  30
ENDBRANCH  27  29
ENDBRANCH   3  27
TORSDOF 6
ENDMDL
MODEL 8
REMARK VINA RESULT:      -6.4      4.108      7.922
REMARK  Name = 
REMARK  9 active torsions:
REMARK  status: ('A' for Active; 'I' for Inactive)
REMARK    1  A    between atoms: S_1  and  N_4
REMARK    2  A    between atoms: S_1  and  C_5
REMARK    3  A    between atoms: N_10  and  C_13
REMARK    4  A    between atoms: C_16  and  C_19
REMARK    5  A    between atoms: C_19  and  O_23
REMARK    6  A    between atoms: O_23  and  C_26
REMARK    7  A    between atoms: C_24  and  C_27
REMARK    8  A    between atoms: C_24  and  C_28
REMARK    9  A    between atoms: C_26  and  C_29
REMARK                            x       y       z     vdW  Elec       q    Type
REMARK                         _______ _______ _______ _____ _____    ______ ____
ROOT
ATOM      1  C   UNL     1     -11.503  55.882  47.698  0.00  0.00    +0.000 A 
ATOM      2  S   UNL     1     -13.146  56.295  47.539  0.00  0.00    +0.000 S 
ATOM      3  C   UNL     1     -11.045  55.984  49.001  0.00  0.00    +0.000 A 
ATOM      4  C   UNL     1     -13.347  56.388  49.236  0.00  0.00    +0.000 A 
ATOM      5  C   UNL     1     -12.152  56.185  49.908  0.00  0.00    +0.000 A 
ATOM      6  C   UNL     1     -14.677  56.666  49.903  0.00  0.00    +0.000 C 
ATOM      7  C   UNL     1     -12.063  56.265  51.407  0.00  0.00    +0.000 C 
ATOM      8  C   UNL     1     -14.478  57.148  51.377  0.00  0.00    +0.000 C 
ATOM      9  C   UNL     1     -13.435  56.241  52.078  0.00  0.00    +0.000 C 
ATOM     10  C   UNL     1     -15.786  57.044  52.181  0.00  0.00    +0.000 C 
ATOM     11  C   UNL     1     -14.025  58.623  51.399  0.00  0.00    +0.000 C 
ENDROOT
BRANCH   1  15
ATOM     12  N   UNL     1     -10.384  53.785  44.978  0.00  0.00    +0.000 N 
ATOM     13  C   UNL     1     -10.978  54.128  46.190  0.00  0.00    +0.000 C 
ATOM     14  O   UNL     1     -11.616  53.296  46.839  0.00  0.00    +0.000 OA
ATOM     15  N   UNL     1     -10.857  55.458  46.542  0.00  0.00    +0.000 N 
ATOM     16  H   UNL     1      -9.885  54.482  44.494  0.00  0.00    +0.000 HD
ATOM     17  H   UNL     1     -10.333  56.085  45.993  0.00  0.00    +0.000 HD
BRANCH  12  18
ATOM     18  S   UNL     1     -10.465  52.261  44.292  0.00  0.00    +0.000 S 
ATOM     19  O   UNL     1      -9.950  52.290  42.941  0.00  0.00    +0.000 OA
ATOM     20  O   UNL     1     -11.815  51.805  44.550  0.00  0.00    +0.000 OA
BRANCH  18  21
ATOM     21  C   UNL     1      -9.377  51.264  45.299  0.00  0.00    +0.000 A 
ATOM     22  C   UNL     1      -8.030  51.602  45.455  0.00  0.00    +0.000 A 
ATOM     23  C   UNL     1      -9.919  50.195  46.028  0.00  0.00    +0.000 A 
ATOM     24  C   UNL     1      -7.215  50.849  46.306  0.00  0.00    +0.000 A 
ATOM     25  C   UNL     1      -9.099  49.444  46.874  0.00  0.00    +0.000 A 
ATOM     26  C   UNL     1      -7.752  49.766  47.011  0.00  0.00    +0.000 A 
ENDBRANCH  18  21
ENDBRANCH  12  18
ENDBRANCH   1  15
BRANCH   3  27
ATOM     27  C   UNL     1      -9.627  55.887  49.350  0.00  0.00    +0.000 C 
ATOM     28  O   UNL     1      -8.982  56.823  49.806  0.00  0.00    +0.000 OA
BRANCH  27  29
ATOM     29  O   UNL     1      -9.129  54.647  49.110  0.00  0.00    +0.000 OA
BRANCH  29  30
ATOM     30  C   UNL     1      -9.497  53.610  50.022  0.00  0.00    +0.000 C 
ATOM     31  C   UNL     1      -9.386  52.264  49.336  0.00  0.00    +0.000 C 
ENDBRANCH  29  30
ENDBRANCH  27  29
ENDBRANCH   3  27
TORSDOF 6
ENDMDL
MODEL 9
REMARK VINA RESULT:      -6.3      3.277      7.519
REMARK  Name = 
REMARK  9 active torsions:
REMARK  status: ('A' for Active; 'I' for Inactive)
REMARK    1  A    between atoms: S_1  and  N_4
REMARK    2  A    between atoms: S_1  and  C_5
REMARK    3  A    between atoms: N_10  and  C_13
REMARK    4  A    between atoms: C_16  and  C_19
REMARK    5  A    between atoms: C_19  and  O_23
REMARK    6  A    between atoms: O_23  and  C_26
REMARK    7  A    between atoms: C_24  and  C_27
REMARK    8  A    between atoms: C_24  and  C_28
REMARK    9  A    between atoms: C_26  and  C_29
REMARK                            x       y       z     vdW  Elec       q    Type
REMARK                         _______ _______ _______ _____ _____    ______ ____
ROOT
ATOM      1  C   UNL     1     -10.762  52.553  49.206  0.00  0.00    +0.000 A 
ATOM      2  S   UNL     1     -10.126  51.265  48.295  0.00  0.00    +0.000 S 
ATOM      3  C   UNL     1     -11.032  53.675  48.439  0.00  0.00    +0.000 A 
ATOM      4  C   UNL     1     -10.417  52.086  46.822  0.00  0.00    +0.000 A 
ATOM      5  C   UNL     1     -10.919  53.360  47.032  0.00  0.00    +0.000 A 
ATOM      6  C   UNL     1     -10.146  51.478  45.462  0.00  0.00    +0.000 C 
ATOM      7  C   UNL     1     -11.211  54.295  45.892  0.00  0.00    +0.000 C 
ATOM      8  C   UNL     1     -10.058  52.583  44.359  0.00  0.00    +0.000 C 
ATOM      9  C   UNL     1     -11.226  53.584  44.540  0.00  0.00    +0.000 C 
ATOM     10  C   UNL     1     -10.190  51.978  42.950  0.00  0.00    +0.000 C 
ATOM     11  C   UNL     1      -8.698  53.308  44.437  0.00  0.00    +0.000 C 
ENDROOT
BRANCH   1  15
ATOM     12  N   UNL     1     -10.141  51.807  52.685  0.00  0.00    +0.000 N 
ATOM     13  C   UNL     1      -9.882  51.951  51.324  0.00  0.00    +0.000 C 
ATOM     14  O   UNL     1      -8.737  51.829  50.883  0.00  0.00    +0.000 OA
ATOM     15  N   UNL     1     -10.974  52.309  50.558  0.00  0.00    +0.000 N 
ATOM     16  H   UNL     1     -11.071  51.914  52.992  0.00  0.00    +0.000 HD
ATOM     17  H   UNL     1     -11.871  52.390  50.956  0.00  0.00    +0.000 HD
BRANCH  12  18
ATOM     18  S   UNL     1      -8.972  51.465  53.832  0.00  0.00    +0.000 S 
ATOM     19  O   UNL     1      -8.106  50.404  53.365  0.00  0.00    +0.000 OA
ATOM     20  O   UNL     1      -9.698  51.321  55.077  0.00  0.00    +0.000 OA
BRANCH  18  21
ATOM     21  C   UNL     1      -8.019  52.971  53.956  0.00  0.00    +0.000 A 
ATOM     22  C   UNL     1      -8.571  54.203  53.593  0.00  0.00    +0.000 A 
ATOM     23  C   UNL     1      -6.741  52.918  54.531  0.00  0.00    +0.000 A 
ATOM     24  C   UNL     1      -7.832  55.377  53.767  0.00  0.00    +0.000 A 
ATOM     25  C   UNL     1      -6.006  54.095  54.699  0.00  0.00    +0.000 A 
ATOM     26  C   UNL     1      -6.546  55.319  54.316  0.00  0.00    +0.000 A 
ENDBRANCH  18  21
ENDBRANCH  12  18
ENDBRANCH   1  15
BRANCH   3  27
ATOM     27  C   UNL     1     -11.383  54.968  49.026  0.00  0.00    +0.000 C 
ATOM     28  O   UNL     1     -10.786  56.006  48.770  0.00  0.00    +0.000 OA
BRANCH  27  29
ATOM     29  O   UNL     1     -12.438  54.870  49.875  0.00  0.00    +0.000 OA
BRANCH  29  30
ATOM     30  C   UNL     1     -12.547  55.866  50.895  0.00  0.00    +0.000 C 
ATOM     31  C   UNL     1     -11.697  55.473  52.086  0.00  0.00    +0.000 C 
ENDBRANCH  29  30
ENDBRANCH  27  29
ENDBRANCH   3  27
TORSDOF 6
ENDMDL
