MODEL 1
REMARK VINA RESULT:      -7.3      0.000      0.000
REMARK  Name = 
REMARK  7 active torsions:
REMARK  status: ('A' for Active; 'I' for Inactive)
REMARK    1  A    between atoms: C_7  and  S_8
REMARK    2  A    between atoms: S_8  and  N_11
REMARK    3  A    between atoms: N_14  and  C_15
REMARK    4  A    between atoms: C_17  and  C_20
REMARK    5  A    between atoms: C_20  and  O_24
REMARK    6  A    between atoms: O_24  and  C_27
REMARK    7  A    between atoms: C_27  and  C_28
REMARK                            x       y       z     vdW  Elec       q    Type
REMARK                         _______ _______ _______ _____ _____    ______ ____
ROOT
ATOM      1  N   UNL     1     -10.472  54.158  47.261  0.00  0.00    +0.000 N 
ATOM      2  C   UNL     1     -10.890  55.125  48.167  0.00  0.00    +0.000 C 
ATOM      3  O   UNL     1     -10.079  55.922  48.612  0.00  0.00    +0.000 OA
ATOM      4  N   UNL     1     -12.228  55.040  48.511  0.00  0.00    +0.000 N 
ATOM      5  H   UNL     1     -11.131  53.516  46.912  0.00  0.00    +0.000 HD
ATOM      6  H   UNL     1     -12.766  54.339  48.074  0.00  0.00    +0.000 HD
ENDROOT
BRANCH   4   7
ATOM      7  C   UNL     1     -12.873  55.869  49.428  0.00  0.00    +0.000 A 
ATOM      8  S   UNL     1     -13.891  57.112  48.866  0.00  0.00    +0.000 S 
ATOM      9  C   UNL     1     -12.845  55.807  50.821  0.00  0.00    +0.000 A 
ATOM     10  C   UNL     1     -14.215  57.669  50.418  0.00  0.00    +0.000 A 
ATOM     11  C   UNL     1     -13.627  56.896  51.398  0.00  0.00    +0.000 A 
ATOM     12  C   UNL     1     -15.103  58.854  50.631  0.00  0.00    +0.000 C 
ATOM     13  C   UNL     1     -13.820  57.244  52.852  0.00  0.00    +0.000 C 
ATOM     14  C   UNL     1     -15.009  59.351  52.075  0.00  0.00    +0.000 C 
ATOM     15  C   UNL     1     -15.014  58.188  53.070  0.00  0.00    +0.000 C 
BRANCH   9  16
ATOM     16  C   UNL     1     -12.122  54.755  51.545  0.00  0.00    +0.000 C 
ATOM     17  O   UNL     1     -11.253  54.996  52.377  0.00  0.00    +0.000 OA
BRANCH  16  18
ATOM     18  O   UNL     1     -12.464  53.504  51.129  0.00  0.00    +0.000 OA
BRANCH  18  19
ATOM     19  C   UNL     1     -11.595  52.430  51.508  0.00  0.00    +0.000 C 
ATOM     20  C   UNL     1     -11.158  51.705  50.247  0.00  0.00    +0.000 C 
ENDBRANCH  18  19
ENDBRANCH  16  18
ENDBRANCH   9  16
ENDBRANCH   4   7
BRANCH   1  21
ATOM     21  S   UNL     1      -8.882  54.053  46.744  0.00  0.00    +0.000 S 
ATOM     22  O   UNL     1      -8.069  53.567  47.837  0.00  0.00    +0.000 OA
ATOM     23  O   UNL     1      -8.586  55.325  46.116  0.00  0.00    +0.000 OA
BRANCH  21  30
ATOM     24 CL   UNL     1      -8.935  49.758  42.145  0.00  0.00    +0.000 Cl
ATOM     25  C   UNL     1      -8.915  50.934  43.402  0.00  0.00    +0.000 A 
ATOM     26  C   UNL     1      -9.806  52.009  43.358  0.00  0.00    +0.000 A 
ATOM     27  C   UNL     1      -8.011  50.807  44.456  0.00  0.00    +0.000 A 
ATOM     28  C   UNL     1      -9.796  52.969  44.376  0.00  0.00    +0.000 A 
ATOM     29  C   UNL     1      -7.998  51.761  45.478  0.00  0.00    +0.000 A 
ATOM     30  C   UNL     1      -8.896  52.835  45.439  0.00  0.00    +0.000 A 
ENDBRANCH  21  30
ENDBRANCH   1  21
TORSDOF 6
ENDMDL
MODEL 2
REMARK VINA RESULT:      -7.2      3.137      3.796
REMARK  Name = 
REMARK  7 active torsions:
REMARK  status: ('A' for Active; 'I' for Inactive)
REMARK    1  A    between atoms: C_7  and  S_8
REMARK    2  A    between atoms: S_8  and  N_11
REMARK    3  A    between atoms: N_14  and  C_15
REMARK    4  A    between atoms: C_17  and  C_20
REMARK    5  A    between atoms: C_20  and  O_24
REMARK    6  A    between atoms: O_24  and  C_27
REMARK    7  A    between atoms: C_27  and  C_28
REMARK                            x       y       z     vdW  Elec       q    Type
REMARK                         _______ _______ _______ _____ _____    ______ ____
ROOT
ATOM      1  N   UNL     1     -10.425  54.132  47.259  0.00  0.00    +0.000 N 
ATOM      2  C   UNL     1     -10.869  55.115  48.135  0.00  0.00    +0.000 C 
ATOM      3  O   UNL     1     -10.090  55.972  48.521  0.00  0.00    +0.000 OA
ATOM      4  N   UNL     1     -12.190  54.974  48.524  0.00  0.00    +0.000 N 
ATOM      5  H   UNL     1     -11.058  53.441  46.958  0.00  0.00    +0.000 HD
ATOM      6  H   UNL     1     -12.701  54.228  48.134  0.00  0.00    +0.000 HD
ENDROOT
BRANCH   4   7
ATOM      7  C   UNL     1     -12.852  55.808  49.425  0.00  0.00    +0.000 A 
ATOM      8  S   UNL     1     -13.888  57.024  48.838  0.00  0.00    +0.000 S 
ATOM      9  C   UNL     1     -12.828  55.770  50.818  0.00  0.00    +0.000 A 
ATOM     10  C   UNL     1     -14.227  57.603  50.380  0.00  0.00    +0.000 A 
ATOM     11  C   UNL     1     -13.630  56.856  51.375  0.00  0.00    +0.000 A 
ATOM     12  C   UNL     1     -15.135  58.776  50.569  0.00  0.00    +0.000 C 
ATOM     13  C   UNL     1     -13.834  57.225  52.822  0.00  0.00    +0.000 C 
ATOM     14  C   UNL     1     -15.055  59.299  52.005  0.00  0.00    +0.000 C 
ATOM     15  C   UNL     1     -15.044  58.153  53.020  0.00  0.00    +0.000 C 
BRANCH   9  16
ATOM     16  C   UNL     1     -12.091  54.743  51.563  0.00  0.00    +0.000 C 
ATOM     17  O   UNL     1     -12.381  53.552  51.520  0.00  0.00    +0.000 OA
BRANCH  16  18
ATOM     18  O   UNL     1     -11.119  55.271  52.358  0.00  0.00    +0.000 OA
BRANCH  18  19
ATOM     19  C   UNL     1      -9.771  55.202  51.876  0.00  0.00    +0.000 C 
ATOM     20  C   UNL     1      -8.860  54.908  53.055  0.00  0.00    +0.000 C 
ENDBRANCH  18  19
ENDBRANCH  16  18
ENDBRANCH   9  16
ENDBRANCH   4   7
BRANCH   1  21
ATOM     21  S   UNL     1      -8.848  54.088  46.698  0.00  0.00    +0.000 S 
ATOM     22  O   UNL     1      -8.565  55.325  46.004  0.00  0.00    +0.000 OA
ATOM     23  O   UNL     1      -8.706  52.815  46.019  0.00  0.00    +0.000 OA
BRANCH  21  30
ATOM     24 CL   UNL     1      -5.278  53.761  51.870  0.00  0.00    +0.000 Cl
ATOM     25  C   UNL     1      -6.250  53.850  50.452  0.00  0.00    +0.000 A 
ATOM     26  C   UNL     1      -7.242  52.892  50.232  0.00  0.00    +0.000 A 
ATOM     27  C   UNL     1      -6.041  54.876  49.531  0.00  0.00    +0.000 A 
ATOM     28  C   UNL     1      -8.037  52.958  49.082  0.00  0.00    +0.000 A 
ATOM     29  C   UNL     1      -6.833  54.950  48.382  0.00  0.00    +0.000 A 
ATOM     30  C   UNL     1      -7.834  53.994  48.164  0.00  0.00    +0.000 A 
ENDBRANCH  21  30
ENDBRANCH   1  21
TORSDOF 6
ENDMDL
MODEL 3
REMARK VINA RESULT:      -7.1      5.067      8.457
REMARK  Name = 
REMARK  7 active torsions:
REMARK  status: ('A' for Active; 'I' for Inactive)
REMARK    1  A    between atoms: C_7  and  S_8
REMARK    2  A    between atoms: S_8  and  N_11
REMARK    3  A    between atoms: N_14  and  C_15
REMARK    4  A    between atoms: C_17  and  C_20
REMARK    5  A    between atoms: C_20  and  O_24
REMARK    6  A    between atoms: O_24  and  C_27
REMARK    7  A    between atoms: C_27  and  C_28
REMARK                            x       y       z     vdW  Elec       q    Type
REMARK                         _______ _______ _______ _____ _____    ______ ____
ROOT
ATOM      1  N   UNL     1     -10.952  56.313  49.228  0.00  0.00    +0.000 N 
ATOM      2  C   UNL     1     -10.086  55.572  50.021  0.00  0.00    +0.000 C 
ATOM      3  O   UNL     1     -10.512  54.609  50.640  0.00  0.00    +0.000 OA
ATOM      4  N   UNL     1      -8.791  56.061  50.058  0.00  0.00    +0.000 N 
ATOM      5  H   UNL     1     -10.602  57.091  48.738  0.00  0.00    +0.000 HD
ATOM      6  H   UNL     1      -8.589  56.854  49.510  0.00  0.00    +0.000 HD
ENDROOT
BRANCH   4   7
ATOM      7  C   UNL     1      -7.752  55.517  50.812  0.00  0.00    +0.000 A 
ATOM      8  S   UNL     1      -7.592  55.942  52.452  0.00  0.00    +0.000 S 
ATOM      9  C   UNL     1      -6.789  54.589  50.417  0.00  0.00    +0.000 A 
ATOM     10  C   UNL     1      -6.197  55.024  52.646  0.00  0.00    +0.000 A 
ATOM     11  C   UNL     1      -5.856  54.322  51.507  0.00  0.00    +0.000 A 
ATOM     12  C   UNL     1      -5.488  54.985  53.962  0.00  0.00    +0.000 C 
ATOM     13  C   UNL     1      -4.636  53.437  51.503  0.00  0.00    +0.000 C 
ATOM     14  C   UNL     1      -4.107  54.344  53.817  0.00  0.00    +0.000 C 
ATOM     15  C   UNL     1      -4.156  53.101  52.924  0.00  0.00    +0.000 C 
BRANCH   9  16
ATOM     16  C   UNL     1      -6.780  53.990  49.078  0.00  0.00    +0.000 C 
ATOM     17  O   UNL     1      -6.669  52.782  48.889  0.00  0.00    +0.000 OA
BRANCH  16  18
ATOM     18  O   UNL     1      -6.823  54.922  48.087  0.00  0.00    +0.000 OA
BRANCH  18  19
ATOM     19  C   UNL     1      -7.267  54.485  46.796  0.00  0.00    +0.000 C 
ATOM     20  C   UNL     1      -8.619  55.120  46.519  0.00  0.00    +0.000 C 
ENDBRANCH  18  19
ENDBRANCH  16  18
ENDBRANCH   9  16
ENDBRANCH   4   7
BRANCH   1  21
ATOM     21  S   UNL     1     -12.574  55.923  49.078  0.00  0.00    +0.000 S 
ATOM     22  O   UNL     1     -12.748  54.523  49.399  0.00  0.00    +0.000 OA
ATOM     23  O   UNL     1     -12.986  56.438  47.787  0.00  0.00    +0.000 OA
BRANCH  21  30
ATOM     24 CL   UNL     1     -15.508  59.415  53.413  0.00  0.00    +0.000 Cl
ATOM     25  C   UNL     1     -14.709  58.455  52.229  0.00  0.00    +0.000 A 
ATOM     26  C   UNL     1     -14.713  58.861  50.892  0.00  0.00    +0.000 A 
ATOM     27  C   UNL     1     -14.063  57.280  52.609  0.00  0.00    +0.000 A 
ATOM     28  C   UNL     1     -14.065  58.086  49.923  0.00  0.00    +0.000 A 
ATOM     29  C   UNL     1     -13.411  56.503  51.647  0.00  0.00    +0.000 A 
ATOM     30  C   UNL     1     -13.407  56.912  50.308  0.00  0.00    +0.000 A 
ENDBRANCH  21  30
ENDBRANCH   1  21
TORSDOF 6
ENDMDL
MODEL 4
REMARK VINA RESULT:      -7.0      3.587      5.316
REMARK  Name = 
REMARK  7 active torsions:
REMARK  status: ('A' for Active; 'I' for Inactive)
REMARK    1  A    between atoms: C_7  and  S_8
REMARK    2  A    between atoms: S_8  and  N_11
REMARK    3  A    between atoms: N_14  and  C_15
REMARK    4  A    between atoms: C_17  and  C_20
REMARK    5  A    between atoms: C_20  and  O_24
REMARK    6  A    between atoms: O_24  and  C_27
REMARK    7  A    between atoms: C_27  and  C_28
REMARK                            x       y       z     vdW  Elec       q    Type
REMARK                         _______ _______ _______ _____ _____    ______ ____
ROOT
ATOM      1  N   UNL     1     -11.339  52.648  51.666  0.00  0.00    +0.000 N 
ATOM      2  C   UNL     1     -11.560  54.018  51.597  0.00  0.00    +0.000 C 
ATOM      3  O   UNL     1     -10.800  54.779  52.175  0.00  0.00    +0.000 OA
ATOM      4  N   UNL     1     -12.695  54.375  50.890  0.00  0.00    +0.000 N 
ATOM      5  H   UNL     1     -11.960  52.041  51.203  0.00  0.00    +0.000 HD
ATOM      6  H   UNL     1     -13.220  53.650  50.478  0.00  0.00    +0.000 HD
ENDROOT
BRANCH   4   7
ATOM      7  C   UNL     1     -13.150  55.681  50.714  0.00  0.00    +0.000 A 
ATOM      8  S   UNL     1     -13.973  56.461  51.984  0.00  0.00    +0.000 S 
ATOM      9  C   UNL     1     -12.989  56.513  49.607  0.00  0.00    +0.000 A 
ATOM     10  C   UNL     1     -14.243  57.849  51.074  0.00  0.00    +0.000 A 
ATOM     11  C   UNL     1     -13.663  57.790  49.824  0.00  0.00    +0.000 A 
ATOM     12  C   UNL     1     -14.996  59.004  51.654  0.00  0.00    +0.000 C 
ATOM     13  C   UNL     1     -13.796  58.954  48.874  0.00  0.00    +0.000 C 
ATOM     14  C   UNL     1     -15.374  60.009  50.564  0.00  0.00    +0.000 C 
ATOM     15  C   UNL     1     -14.213  60.246  49.594  0.00  0.00    +0.000 C 
BRANCH   9  16
ATOM     16  C   UNL     1     -12.222  56.106  48.425  0.00  0.00    +0.000 C 
ATOM     17  O   UNL     1     -12.726  55.989  47.312  0.00  0.00    +0.000 OA
BRANCH  16  18
ATOM     18  O   UNL     1     -10.930  55.798  48.721  0.00  0.00    +0.000 OA
BRANCH  18  19
ATOM     19  C   UNL     1     -10.321  54.742  47.967  0.00  0.00    +0.000 C 
ATOM     20  C   UNL     1      -9.109  55.310  47.248  0.00  0.00    +0.000 C 
ENDBRANCH  18  19
ENDBRANCH  16  18
ENDBRANCH   9  16
ENDBRANCH   4   7
BRANCH   1  21
ATOM     21  S   UNL     1     -10.047  51.997  52.511  0.00  0.00    +0.000 S 
ATOM     22  O   UNL     1     -10.004  50.572  52.269  0.00  0.00    +0.000 OA
ATOM     23  O   UNL     1     -10.160  52.511  53.861  0.00  0.00    +0.000 OA
BRANCH  21  30
ATOM     24 CL   UNL     1      -4.932  54.677  50.009  0.00  0.00    +0.000 Cl
ATOM     25  C   UNL     1      -6.330  53.938  50.691  0.00  0.00    +0.000 A 
ATOM     26  C   UNL     1      -6.549  54.013  52.069  0.00  0.00    +0.000 A 
ATOM     27  C   UNL     1      -7.234  53.271  49.866  0.00  0.00    +0.000 A 
ATOM     28  C   UNL     1      -7.683  53.416  52.631  0.00  0.00    +0.000 A 
ATOM     29  C   UNL     1      -8.371  52.675  50.421  0.00  0.00    +0.000 A 
ATOM     30  C   UNL     1      -8.596  52.756  51.801  0.00  0.00    +0.000 A 
ENDBRANCH  21  30
ENDBRANCH   1  21
TORSDOF 6
ENDMDL
MODEL 5
REMARK VINA RESULT:      -6.8      4.838      8.662
REMARK  Name = 
REMARK  7 active torsions:
REMARK  status: ('A' for Active; 'I' for Inactive)
REMARK    1  A    between atoms: C_7  and  S_8
REMARK    2  A    between atoms: S_8  and  N_11
REMARK    3  A    between atoms: N_14  and  C_15
REMARK    4  A    between atoms: C_17  and  C_20
REMARK    5  A    between atoms: C_20  and  O_24
REMARK    6  A    between atoms: O_24  and  C_27
REMARK    7  A    between atoms: C_27  and  C_28
REMARK                            x       y       z     vdW  Elec       q    Type
REMARK                         _______ _______ _______ _____ _____    ______ ____
ROOT
ATOM      1  N   UNL     1     -11.466  56.718  49.369  0.00  0.00    +0.000 N 
ATOM      2  C   UNL     1     -10.505  55.714  49.392  0.00  0.00    +0.000 C 
ATOM      3  O   UNL     1     -10.855  54.546  49.329  0.00  0.00    +0.000 OA
ATOM      4  N   UNL     1      -9.208  56.173  49.539  0.00  0.00    +0.000 N 
ATOM      5  H   UNL     1     -11.175  57.656  49.427  0.00  0.00    +0.000 HD
ATOM      6  H   UNL     1      -9.073  57.148  49.582  0.00  0.00    +0.000 HD
ENDROOT
BRANCH   4   7
ATOM      7  C   UNL     1      -8.078  55.361  49.629  0.00  0.00    +0.000 A 
ATOM      8  S   UNL     1      -7.206  54.973  48.219  0.00  0.00    +0.000 S 
ATOM      9  C   UNL     1      -7.489  54.820  50.772  0.00  0.00    +0.000 A 
ATOM     10  C   UNL     1      -6.123  53.994  49.052  0.00  0.00    +0.000 A 
ATOM     11  C   UNL     1      -6.343  53.990  50.414  0.00  0.00    +0.000 A 
ATOM     12  C   UNL     1      -5.029  53.280  48.323  0.00  0.00    +0.000 C 
ATOM     13  C   UNL     1      -5.457  53.173  51.319  0.00  0.00    +0.000 C 
ATOM     14  C   UNL     1      -4.371  52.232  49.223  0.00  0.00    +0.000 C 
ATOM     15  C   UNL     1      -4.139  52.773  50.637  0.00  0.00    +0.000 C 
BRANCH   9  16
ATOM     16  C   UNL     1      -7.994  55.098  52.121  0.00  0.00    +0.000 C 
ATOM     17  O   UNL     1      -9.168  54.937  52.440  0.00  0.00    +0.000 OA
BRANCH  16  18
ATOM     18  O   UNL     1      -7.041  55.628  52.936  0.00  0.00    +0.000 OA
BRANCH  18  19
ATOM     19  C   UNL     1      -7.119  55.303  54.330  0.00  0.00    +0.000 C 
ATOM     20  C   UNL     1      -5.854  54.556  54.716  0.00  0.00    +0.000 C 
ENDBRANCH  18  19
ENDBRANCH  16  18
ENDBRANCH   9  16
ENDBRANCH   4   7
BRANCH   1  21
ATOM     21  S   UNL     1     -13.101  56.381  49.244  0.00  0.00    +0.000 S 
ATOM     22  O   UNL     1     -13.309  54.976  49.518  0.00  0.00    +0.000 OA
ATOM     23  O   UNL     1     -13.527  56.955  47.984  0.00  0.00    +0.000 OA
BRANCH  21  30
ATOM     24 CL   UNL     1     -15.828  59.794  53.774  0.00  0.00    +0.000 Cl
ATOM     25  C   UNL     1     -15.086  58.855  52.536  0.00  0.00    +0.000 A 
ATOM     26  C   UNL     1     -14.989  59.372  51.241  0.00  0.00    +0.000 A 
ATOM     27  C   UNL     1     -14.588  57.587  52.831  0.00  0.00    +0.000 A 
ATOM     28  C   UNL     1     -14.386  58.615  50.229  0.00  0.00    +0.000 A 
ATOM     29  C   UNL     1     -13.981  56.828  51.825  0.00  0.00    +0.000 A 
ATOM     30  C   UNL     1     -13.876  57.348  50.529  0.00  0.00    +0.000 A 
ENDBRANCH  21  30
ENDBRANCH   1  21
TORSDOF 6
ENDMDL
MODEL 6
REMARK VINA RESULT:      -6.7      4.024      5.244
REMARK  Name = 
REMARK  7 active torsions:
REMARK  status: ('A' for Active; 'I' for Inactive)
REMARK    1  A    between atoms: C_7  and  S_8
REMARK    2  A    between atoms: S_8  and  N_11
REMARK    3  A    between atoms: N_14  and  C_15
REMARK    4  A    between atoms: C_17  and  C_20
REMARK    5  A    between atoms: C_20  and  O_24
REMARK    6  A    between atoms: O_24  and  C_27
REMARK    7  A    between atoms: C_27  and  C_28
REMARK                            x       y       z     vdW  Elec       q    Type
REMARK                         _______ _______ _______ _____ _____    ______ ____
ROOT
ATOM      1  N   UNL     1      -9.034  53.645  48.890  0.00  0.00    +0.000 N 
ATOM      2  C   UNL     1      -9.735  54.748  49.362  0.00  0.00    +0.000 C 
ATOM      3  O   UNL     1      -9.158  55.815  49.494  0.00  0.00    +0.000 OA
ATOM      4  N   UNL     1     -11.055  54.485  49.685  0.00  0.00    +0.000 N 
ATOM      5  H   UNL     1      -9.506  52.787  48.792  0.00  0.00    +0.000 HD
ATOM      6  H   UNL     1     -11.388  53.571  49.530  0.00  0.00    +0.000 HD
ENDROOT
BRANCH   4   7
ATOM      7  C   UNL     1     -11.949  55.415  50.214  0.00  0.00    +0.000 A 
ATOM      8  S   UNL     1     -12.014  55.656  51.898  0.00  0.00    +0.000 S 
ATOM      9  C   UNL     1     -12.823  56.262  49.532  0.00  0.00    +0.000 A 
ATOM     10  C   UNL     1     -13.264  56.774  51.779  0.00  0.00    +0.000 A 
ATOM     11  C   UNL     1     -13.615  57.048  50.473  0.00  0.00    +0.000 A 
ATOM     12  C   UNL     1     -13.843  57.401  53.008  0.00  0.00    +0.000 C 
ATOM     13  C   UNL     1     -14.714  58.037  50.178  0.00  0.00    +0.000 C 
ATOM     14  C   UNL     1     -15.143  58.139  52.681  0.00  0.00    +0.000 C 
ATOM     15  C   UNL     1     -15.021  58.941  51.382  0.00  0.00    +0.000 C 
BRANCH   9  16
ATOM     16  C   UNL     1     -12.876  56.319  48.067  0.00  0.00    +0.000 C 
ATOM     17  O   UNL     1     -13.312  57.288  47.453  0.00  0.00    +0.000 OA
BRANCH  16  18
ATOM     18  O   UNL     1     -12.472  55.156  47.483  0.00  0.00    +0.000 OA
BRANCH  18  19
ATOM     19  C   UNL     1     -11.723  55.262  46.267  0.00  0.00    +0.000 C 
ATOM     20  C   UNL     1     -11.667  53.888  45.622  0.00  0.00    +0.000 C 
ENDBRANCH  18  19
ENDBRANCH  16  18
ENDBRANCH   9  16
ENDBRANCH   4   7
BRANCH   1  21
ATOM     21  S   UNL     1      -7.412  53.730  48.482  0.00  0.00    +0.000 S 
ATOM     22  O   UNL     1      -7.170  54.980  47.795  0.00  0.00    +0.000 OA
ATOM     23  O   UNL     1      -7.098  52.467  47.845  0.00  0.00    +0.000 OA
BRANCH  21  30
ATOM     24 CL   UNL     1      -4.340  53.773  53.974  0.00  0.00    +0.000 Cl
ATOM     25  C   UNL     1      -5.176  53.758  52.469  0.00  0.00    +0.000 A 
ATOM     26  C   UNL     1      -6.474  53.246  52.405  0.00  0.00    +0.000 A 
ATOM     27  C   UNL     1      -4.554  54.256  51.326  0.00  0.00    +0.000 A 
ATOM     28  C   UNL     1      -7.160  53.230  51.185  0.00  0.00    +0.000 A 
ATOM     29  C   UNL     1      -5.235  54.248  50.105  0.00  0.00    +0.000 A 
ATOM     30  C   UNL     1      -6.540  53.741  50.040  0.00  0.00    +0.000 A 
ENDBRANCH  21  30
ENDBRANCH   1  21
TORSDOF 6
ENDMDL
MODEL 7
REMARK VINA RESULT:      -6.7      4.265      7.691
REMARK  Name = 
REMARK  7 active torsions:
REMARK  status: ('A' for Active; 'I' for Inactive)
REMARK    1  A    between atoms: C_7  and  S_8
REMARK    2  A    between atoms: S_8  and  N_11
REMARK    3  A    between atoms: N_14  and  C_15
REMARK    4  A    between atoms: C_17  and  C_20
REMARK    5  A    between atoms: C_20  and  O_24
REMARK    6  A    between atoms: O_24  and  C_27
REMARK    7  A    between atoms: C_27  and  C_28
REMARK                            x       y       z     vdW  Elec       q    Type
REMARK                         _______ _______ _______ _____ _____    ______ ____
ROOT
ATOM      1  N   UNL     1      -8.077  56.409  49.618  0.00  0.00    +0.000 N 
ATOM      2  C   UNL     1      -8.299  55.334  48.765  0.00  0.00    +0.000 C 
ATOM      3  O   UNL     1      -7.904  54.224  49.083  0.00  0.00    +0.000 OA
ATOM      4  N   UNL     1      -8.930  55.670  47.580  0.00  0.00    +0.000 N 
ATOM      5  H   UNL     1      -8.394  57.302  49.351  0.00  0.00    +0.000 HD
ATOM      6  H   UNL     1      -9.190  56.612  47.455  0.00  0.00    +0.000 HD
ENDROOT
BRANCH   4   7
ATOM      7  C   UNL     1      -9.226  54.779  46.551  0.00  0.00    +0.000 A 
ATOM      8  S   UNL     1      -7.988  54.265  45.502  0.00  0.00    +0.000 S 
ATOM      9  C   UNL     1     -10.446  54.171  46.254  0.00  0.00    +0.000 A 
ATOM     10  C   UNL     1      -9.038  53.342  44.569  0.00  0.00    +0.000 A 
ATOM     11  C   UNL     1     -10.328  53.338  45.061  0.00  0.00    +0.000 A 
ATOM     12  C   UNL     1      -8.537  52.590  43.377  0.00  0.00    +0.000 C 
ATOM     13  C   UNL     1     -11.403  52.553  44.355  0.00  0.00    +0.000 C 
ATOM     14  C   UNL     1      -9.702  52.080  42.526  0.00  0.00    +0.000 C 
ATOM     15  C   UNL     1     -10.820  51.501  43.397  0.00  0.00    +0.000 C 
BRANCH   9  16
ATOM     16  C   UNL     1     -11.642  54.371  47.079  0.00  0.00    +0.000 C 
ATOM     17  O   UNL     1     -12.238  55.442  47.141  0.00  0.00    +0.000 OA
BRANCH  16  18
ATOM     18  O   UNL     1     -11.956  53.272  47.819  0.00  0.00    +0.000 OA
BRANCH  18  19
ATOM     19  C   UNL     1     -11.832  53.385  49.243  0.00  0.00    +0.000 C 
ATOM     20  C   UNL     1     -10.799  52.375  49.711  0.00  0.00    +0.000 C 
ENDBRANCH  18  19
ENDBRANCH  16  18
ENDBRANCH   9  16
ENDBRANCH   4   7
BRANCH   1  21
ATOM     21  S   UNL     1      -7.289  56.232  51.084  0.00  0.00    +0.000 S 
ATOM     22  O   UNL     1      -7.252  57.515  51.751  0.00  0.00    +0.000 OA
ATOM     23  O   UNL     1      -6.061  55.521  50.789  0.00  0.00    +0.000 OA
BRANCH  21  30
ATOM     24 CL   UNL     1     -10.879  52.276  54.411  0.00  0.00    +0.000 Cl
ATOM     25  C   UNL     1      -9.899  53.363  53.504  0.00  0.00    +0.000 A 
ATOM     26  C   UNL     1      -8.515  53.175  53.462  0.00  0.00    +0.000 A 
ATOM     27  C   UNL     1     -10.491  54.423  52.819  0.00  0.00    +0.000 A 
ATOM     28  C   UNL     1      -7.712  54.055  52.726  0.00  0.00    +0.000 A 
ATOM     29  C   UNL     1      -9.694  55.302  52.079  0.00  0.00    +0.000 A 
ATOM     30  C   UNL     1      -8.307  55.111  52.029  0.00  0.00    +0.000 A 
ENDBRANCH  21  30
ENDBRANCH   1  21
TORSDOF 6
ENDMDL
MODEL 8
REMARK VINA RESULT:      -6.5      2.084      2.691
REMARK  Name = 
REMARK  7 active torsions:
REMARK  status: ('A' for Active; 'I' for Inactive)
REMARK    1  A    between atoms: C_7  and  S_8
REMARK    2  A    between atoms: S_8  and  N_11
REMARK    3  A    between atoms: N_14  and  C_15
REMARK    4  A    between atoms: C_17  and  C_20
REMARK    5  A    between atoms: C_20  and  O_24
REMARK    6  A    between atoms: O_24  and  C_27
REMARK    7  A    between atoms: C_27  and  C_28
REMARK                            x       y       z     vdW  Elec       q    Type
REMARK                         _______ _______ _______ _____ _____    ______ ____
ROOT
ATOM      1  N   UNL     1     -10.807  54.200  46.658  0.00  0.00    +0.000 N 
ATOM      2  C   UNL     1     -11.133  55.121  47.645  0.00  0.00    +0.000 C 
ATOM      3  O   UNL     1     -10.278  55.890  48.056  0.00  0.00    +0.000 OA
ATOM      4  N   UNL     1     -12.436  55.026  48.103  0.00  0.00    +0.000 N 
ATOM      5  H   UNL     1     -11.501  53.579  46.338  0.00  0.00    +0.000 HD
ATOM      6  H   UNL     1     -13.018  54.352  47.682  0.00  0.00    +0.000 HD
ENDROOT
BRANCH   4   7
ATOM      7  C   UNL     1     -12.988  55.811  49.115  0.00  0.00    +0.000 A 
ATOM      8  S   UNL     1     -14.019  57.103  48.708  0.00  0.00    +0.000 S 
ATOM      9  C   UNL     1     -12.852  55.667  50.495  0.00  0.00    +0.000 A 
ATOM     10  C   UNL     1     -14.207  57.574  50.311  0.00  0.00    +0.000 A 
ATOM     11  C   UNL     1     -13.561  56.734  51.195  0.00  0.00    +0.000 A 
ATOM     12  C   UNL     1     -15.049  58.760  50.661  0.00  0.00    +0.000 C 
ATOM     13  C   UNL     1     -13.632  56.999  52.677  0.00  0.00    +0.000 C 
ATOM     14  C   UNL     1     -14.830  59.170  52.119  0.00  0.00    +0.000 C 
ATOM     15  C   UNL     1     -14.783  57.949  53.043  0.00  0.00    +0.000 C 
BRANCH   9  16
ATOM     16  C   UNL     1     -12.098  54.562  51.098  0.00  0.00    +0.000 C 
ATOM     17  O   UNL     1     -12.354  53.382  50.877  0.00  0.00    +0.000 OA
BRANCH  16  18
ATOM     18  O   UNL     1     -11.155  54.993  51.980  0.00  0.00    +0.000 OA
BRANCH  18  19
ATOM     19  C   UNL     1      -9.877  55.359  51.445  0.00  0.00    +0.000 C 
ATOM     20  C   UNL     1      -8.876  54.282  51.824  0.00  0.00    +0.000 C 
ENDBRANCH  18  19
ENDBRANCH  16  18
ENDBRANCH   9  16
ENDBRANCH   4   7
BRANCH   1  21
ATOM     21  S   UNL     1      -9.272  54.111  45.997  0.00  0.00    +0.000 S 
ATOM     22  O   UNL     1      -8.600  55.374  46.209  0.00  0.00    +0.000 OA
ATOM     23  O   UNL     1      -9.449  53.589  44.656  0.00  0.00    +0.000 OA
BRANCH  21  30
ATOM     24 CL   UNL     1      -6.326  49.624  49.281  0.00  0.00    +0.000 Cl
ATOM     25  C   UNL     1      -7.128  50.855  48.385  0.00  0.00    +0.000 A 
ATOM     26  C   UNL     1      -7.119  50.812  46.989  0.00  0.00    +0.000 A 
ATOM     27  C   UNL     1      -7.781  51.888  49.057  0.00  0.00    +0.000 A 
ATOM     28  C   UNL     1      -7.770  51.810  46.254  0.00  0.00    +0.000 A 
ATOM     29  C   UNL     1      -8.436  52.885  48.329  0.00  0.00    +0.000 A 
ATOM     30  C   UNL     1      -8.435  52.839  46.929  0.00  0.00    +0.000 A 
ENDBRANCH  21  30
ENDBRANCH   1  21
TORSDOF 6
ENDMDL
MODEL 9
REMARK VINA RESULT:      -6.4      4.100      4.897
REMARK  Name = 
REMARK  7 active torsions:
REMARK  status: ('A' for Active; 'I' for Inactive)
REMARK    1  A    between atoms: C_7  and  S_8
REMARK    2  A    between atoms: S_8  and  N_11
REMARK    3  A    between atoms: N_14  and  C_15
REMARK    4  A    between atoms: C_17  and  C_20
REMARK    5  A    between atoms: C_20  and  O_24
REMARK    6  A    between atoms: O_24  and  C_27
REMARK    7  A    between atoms: C_27  and  C_28
REMARK                            x       y       z     vdW  Elec       q    Type
REMARK                         _______ _______ _______ _____ _____    ______ ____
ROOT
ATOM      1  N   UNL     1      -8.359  54.262  48.920  0.00  0.00    +0.000 N 
ATOM      2  C   UNL     1      -9.190  55.132  49.615  0.00  0.00    +0.000 C 
ATOM      3  O   UNL     1      -8.721  55.834  50.497  0.00  0.00    +0.000 OA
ATOM      4  N   UNL     1     -10.521  55.065  49.242  0.00  0.00    +0.000 N 
ATOM      5  H   UNL     1      -8.746  53.695  48.215  0.00  0.00    +0.000 HD
ATOM      6  H   UNL     1     -10.758  54.446  48.514  0.00  0.00    +0.000 HD
ENDROOT
BRANCH   4   7
ATOM      7  C   UNL     1     -11.551  55.807  49.818  0.00  0.00    +0.000 A 
ATOM      8  S   UNL     1     -12.405  56.935  48.872  0.00  0.00    +0.000 S 
ATOM      9  C   UNL     1     -12.050  55.733  51.118  0.00  0.00    +0.000 A 
ATOM     10  C   UNL     1     -13.354  57.436  50.166  0.00  0.00    +0.000 A 
ATOM     11  C   UNL     1     -13.105  56.722  51.320  0.00  0.00    +0.000 A 
ATOM     12  C   UNL     1     -14.377  58.512  49.987  0.00  0.00    +0.000 C 
ATOM     13  C   UNL     1     -13.874  57.030  52.580  0.00  0.00    +0.000 C 
ATOM     14  C   UNL     1     -14.895  59.001  51.342  0.00  0.00    +0.000 C 
ATOM     15  C   UNL     1     -15.154  57.833  52.298  0.00  0.00    +0.000 C 
BRANCH   9  16
ATOM     16  C   UNL     1     -11.550  54.761  52.096  0.00  0.00    +0.000 C 
ATOM     17  O   UNL     1     -10.820  55.072  53.033  0.00  0.00    +0.000 OA
BRANCH  16  18
ATOM     18  O   UNL     1     -11.914  53.484  51.797  0.00  0.00    +0.000 OA
BRANCH  18  19
ATOM     19  C   UNL     1     -10.889  52.484  51.842  0.00  0.00    +0.000 C 
ATOM     20  C   UNL     1     -10.904  51.729  50.524  0.00  0.00    +0.000 C 
ENDBRANCH  18  19
ENDBRANCH  16  18
ENDBRANCH   9  16
ENDBRANCH   4   7
BRANCH   1  21
ATOM     21  S   UNL     1      -6.720  54.149  49.244  0.00  0.00    +0.000 S 
ATOM     22  O   UNL     1      -6.154  55.480  49.255  0.00  0.00    +0.000 OA
ATOM     23  O   UNL     1      -6.208  53.139  48.339  0.00  0.00    +0.000 OA
BRANCH  21  30
ATOM     24 CL   UNL     1      -6.359  51.707  55.033  0.00  0.00    +0.000 Cl
ATOM     25  C   UNL     1      -6.452  52.375  53.449  0.00  0.00    +0.000 A 
ATOM     26  C   UNL     1      -7.156  51.695  52.452  0.00  0.00    +0.000 A 
ATOM     27  C   UNL     1      -5.824  53.588  53.170  0.00  0.00    +0.000 A 
ATOM     28  C   UNL     1      -7.236  52.233  51.162  0.00  0.00    +0.000 A 
ATOM     29  C   UNL     1      -5.904  54.132  51.885  0.00  0.00    +0.000 A 
ATOM     30  C   UNL     1      -6.616  53.456  50.886  0.00  0.00    +0.000 A 
ENDBRANCH  21  30
ENDBRANCH   1  21
TORSDOF 6
ENDMDL
