MODEL 1
REMARK VINA RESULT:      -7.4      0.000      0.000
REMARK  Name = 
REMARK  10 active torsions:
REMARK  status: ('A' for Active; 'I' for Inactive)
REMARK    1  A    between atoms: S_1  and  N_4
REMARK    2  A    between atoms: S_1  and  C_5
REMARK    3  A    between atoms: N_10  and  C_13
REMARK    4  A    between atoms: C_14  and  C_17
REMARK    5  A    between atoms: C_16  and  C_20
REMARK    6  A    between atoms: C_20  and  O_25
REMARK    7  A    between atoms: O_25  and  C_28
REMARK    8  A    between atoms: C_26  and  C_29
REMARK    9  A    between atoms: C_26  and  C_30
REMARK   10  A    between atoms: C_28  and  C_31
REMARK                            x       y       z     vdW  Elec       q    Type
REMARK                         _______ _______ _______ _____ _____    ______ ____
ROOT
ATOM      1  N   UNL     1      -8.009  53.327  49.835  0.00  0.00    +0.000 N 
ATOM      2  C   UNL     1      -9.151  54.123  49.854  0.00  0.00    +0.000 C 
ATOM      3  O   UNL     1      -9.225  55.136  49.172  0.00  0.00    +0.000 OA
ATOM      4  N   UNL     1     -10.104  53.752  50.793  0.00  0.00    +0.000 N 
ATOM      5  H   UNL     1      -7.973  52.546  50.433  0.00  0.00    +0.000 HD
ATOM      6  H   UNL     1      -9.997  52.935  51.332  0.00  0.00    +0.000 HD
ENDROOT
BRANCH   4   7
ATOM      7  C   UNL     1     -11.217  54.575  50.947  0.00  0.00    +0.000 A 
ATOM      8  S   UNL     1     -11.396  55.340  52.457  0.00  0.00    +0.000 S 
ATOM      9  C   UNL     1     -12.209  54.917  50.050  0.00  0.00    +0.000 A 
ATOM     10  C   UNL     1     -12.672  56.323  51.873  0.00  0.00    +0.000 A 
ATOM     11  C   UNL     1     -13.000  56.013  50.564  0.00  0.00    +0.000 A 
ATOM     12  C   UNL     1     -13.360  57.392  52.704  0.00  0.00    +0.000 C 
ATOM     13  C   UNL     1     -14.122  56.702  49.844  0.00  0.00    +0.000 C 
ATOM     14  C   UNL     1     -14.745  57.786  52.086  0.00  0.00    +0.000 C 
ATOM     15  C   UNL     1     -14.588  57.969  50.557  0.00  0.00    +0.000 C 
ATOM     16  C   UNL     1     -15.266  59.121  52.649  0.00  0.00    +0.000 C 
ATOM     17  C   UNL     1     -15.798  56.704  52.406  0.00  0.00    +0.000 C 
BRANCH   9  18
ATOM     18  C   UNL     1     -12.392  54.233  48.769  0.00  0.00    +0.000 C 
ATOM     19  O   UNL     1     -12.485  53.017  48.663  0.00  0.00    +0.000 OA
BRANCH  18  20
ATOM     20  O   UNL     1     -12.441  55.108  47.731  0.00  0.00    +0.000 OA
BRANCH  20  21
ATOM     21  C   UNL     1     -11.328  55.120  46.838  0.00  0.00    +0.000 C 
ATOM     22  C   UNL     1     -11.658  54.321  45.595  0.00  0.00    +0.000 C 
ENDBRANCH  20  21
ENDBRANCH  18  20
ENDBRANCH   9  18
ENDBRANCH   4   7
BRANCH   1  23
ATOM     23  S   UNL     1      -6.692  53.630  48.846  0.00  0.00    +0.000 S 
ATOM     24  O   UNL     1      -5.691  52.616  49.094  0.00  0.00    +0.000 OA
ATOM     25  O   UNL     1      -6.371  55.034  49.031  0.00  0.00    +0.000 OA
BRANCH  23  26
ATOM     26  C   UNL     1      -7.284  53.463  47.170  0.00  0.00    +0.000 A 
ATOM     27  C   UNL     1      -7.455  54.587  46.350  0.00  0.00    +0.000 A 
ATOM     28  C   UNL     1      -7.545  52.184  46.667  0.00  0.00    +0.000 A 
ATOM     29  C   UNL     1      -7.934  54.424  45.041  0.00  0.00    +0.000 A 
ATOM     30  C   UNL     1      -8.022  52.024  45.362  0.00  0.00    +0.000 A 
ATOM     31  C   UNL     1      -8.228  53.146  44.546  0.00  0.00    +0.000 A 
BRANCH  31  32
ATOM     32  C   UNL     1      -8.741  52.981  43.212  0.00  0.00    +0.000 C 
ATOM     33  N   UNL     1      -9.159  52.842  42.145  0.00  0.00    +0.000 NA
ENDBRANCH  31  32
ENDBRANCH  23  26
ENDBRANCH   1  23
TORSDOF 7
ENDMDL
MODEL 2
REMARK VINA RESULT:      -7.1      2.574      4.479
REMARK  Name = 
REMARK  10 active torsions:
REMARK  status: ('A' for Active; 'I' for Inactive)
REMARK    1  A    between atoms: S_1  and  N_4
REMARK    2  A    between atoms: S_1  and  C_5
REMARK    3  A    between atoms: N_10  and  C_13
REMARK    4  A    between atoms: C_14  and  C_17
REMARK    5  A    between atoms: C_16  and  C_20
REMARK    6  A    between atoms: C_20  and  O_25
REMARK    7  A    between atoms: O_25  and  C_28
REMARK    8  A    between atoms: C_26  and  C_29
REMARK    9  A    between atoms: C_26  and  C_30
REMARK   10  A    between atoms: C_28  and  C_31
REMARK                            x       y       z     vdW  Elec       q    Type
REMARK                         _______ _______ _______ _____ _____    ______ ____
ROOT
ATOM      1  N   UNL     1      -8.579  52.090  48.563  0.00  0.00    +0.000 N 
ATOM      2  C   UNL     1      -9.387  53.199  48.797  0.00  0.00    +0.000 C 
ATOM      3  O   UNL     1      -8.902  54.312  48.943  0.00  0.00    +0.000 OA
ATOM      4  N   UNL     1     -10.732  52.910  48.985  0.00  0.00    +0.000 N 
ATOM      5  H   UNL     1      -9.006  51.205  48.497  0.00  0.00    +0.000 HD
ATOM      6  H   UNL     1     -11.078  51.995  48.872  0.00  0.00    +0.000 HD
ENDROOT
BRANCH   4   7
ATOM      7  C   UNL     1     -11.577  53.959  49.341  0.00  0.00    +0.000 A 
ATOM      8  S   UNL     1     -12.051  54.036  50.975  0.00  0.00    +0.000 S 
ATOM      9  C   UNL     1     -12.080  54.999  48.586  0.00  0.00    +0.000 A 
ATOM     10  C   UNL     1     -12.751  55.584  50.759  0.00  0.00    +0.000 A 
ATOM     11  C   UNL     1     -12.685  55.997  49.439  0.00  0.00    +0.000 A 
ATOM     12  C   UNL     1     -13.375  56.390  51.884  0.00  0.00    +0.000 C 
ATOM     13  C   UNL     1     -13.276  57.301  48.986  0.00  0.00    +0.000 C 
ATOM     14  C   UNL     1     -14.317  57.511  51.323  0.00  0.00    +0.000 C 
ATOM     15  C   UNL     1     -13.609  58.231  50.150  0.00  0.00    +0.000 C 
ATOM     16  C   UNL     1     -14.631  58.581  52.386  0.00  0.00    +0.000 C 
ATOM     17  C   UNL     1     -15.658  56.901  50.867  0.00  0.00    +0.000 C 
BRANCH   9  18
ATOM     18  C   UNL     1     -11.990  55.036  47.126  0.00  0.00    +0.000 C 
ATOM     19  O   UNL     1     -11.937  56.075  46.481  0.00  0.00    +0.000 OA
BRANCH  18  20
ATOM     20  O   UNL     1     -11.978  53.788  46.588  0.00  0.00    +0.000 OA
BRANCH  20  21
ATOM     21  C   UNL     1     -11.519  53.665  45.242  0.00  0.00    +0.000 C 
ATOM     22  C   UNL     1     -10.026  53.410  45.230  0.00  0.00    +0.000 C 
ENDBRANCH  20  21
ENDBRANCH  18  20
ENDBRANCH   9  18
ENDBRANCH   4   7
BRANCH   1  23
ATOM     23  S   UNL     1      -6.916  52.182  48.389  0.00  0.00    +0.000 S 
ATOM     24  O   UNL     1      -6.619  53.101  47.311  0.00  0.00    +0.000 OA
ATOM     25  O   UNL     1      -6.446  50.809  48.329  0.00  0.00    +0.000 OA
BRANCH  23  26
ATOM     26  C   UNL     1      -6.297  52.863  49.918  0.00  0.00    +0.000 A 
ATOM     27  C   UNL     1      -6.708  52.346  51.156  0.00  0.00    +0.000 A 
ATOM     28  C   UNL     1      -5.363  53.903  49.870  0.00  0.00    +0.000 A 
ATOM     29  C   UNL     1      -6.212  52.911  52.342  0.00  0.00    +0.000 A 
ATOM     30  C   UNL     1      -4.871  54.463  51.053  0.00  0.00    +0.000 A 
ATOM     31  C   UNL     1      -5.302  53.976  52.295  0.00  0.00    +0.000 A 
BRANCH  31  32
ATOM     32  C   UNL     1      -4.813  54.569  53.511  0.00  0.00    +0.000 C 
ATOM     33  N   UNL     1      -4.428  55.052  54.486  0.00  0.00    +0.000 NA
ENDBRANCH  31  32
ENDBRANCH  23  26
ENDBRANCH   1  23
TORSDOF 7
ENDMDL
MODEL 3
REMARK VINA RESULT:      -7.0      1.725      2.356
REMARK  Name = 
REMARK  10 active torsions:
REMARK  status: ('A' for Active; 'I' for Inactive)
REMARK    1  A    between atoms: S_1  and  N_4
REMARK    2  A    between atoms: S_1  and  C_5
REMARK    3  A    between atoms: N_10  and  C_13
REMARK    4  A    between atoms: C_14  and  C_17
REMARK    5  A    between atoms: C_16  and  C_20
REMARK    6  A    between atoms: C_20  and  O_25
REMARK    7  A    between atoms: O_25  and  C_28
REMARK    8  A    between atoms: C_26  and  C_29
REMARK    9  A    between atoms: C_26  and  C_30
REMARK   10  A    between atoms: C_28  and  C_31
REMARK                            x       y       z     vdW  Elec       q    Type
REMARK                         _______ _______ _______ _____ _____    ______ ____
ROOT
ATOM      1  N   UNL     1      -8.624  52.447  49.731  0.00  0.00    +0.000 N 
ATOM      2  C   UNL     1      -9.823  53.103  49.996  0.00  0.00    +0.000 C 
ATOM      3  O   UNL     1     -10.898  52.554  49.801  0.00  0.00    +0.000 OA
ATOM      4  N   UNL     1      -9.689  54.438  50.354  0.00  0.00    +0.000 N 
ATOM      5  H   UNL     1      -7.782  52.941  49.859  0.00  0.00    +0.000 HD
ATOM      6  H   UNL     1      -8.802  54.844  50.486  0.00  0.00    +0.000 HD
ENDROOT
BRANCH   4   7
ATOM      7  C   UNL     1     -10.853  55.185  50.518  0.00  0.00    +0.000 A 
ATOM      8  S   UNL     1     -11.454  55.322  52.105  0.00  0.00    +0.000 S 
ATOM      9  C   UNL     1     -11.606  55.885  49.596  0.00  0.00    +0.000 A 
ATOM     10  C   UNL     1     -12.600  56.505  51.632  0.00  0.00    +0.000 A 
ATOM     11  C   UNL     1     -12.567  56.732  50.267  0.00  0.00    +0.000 A 
ATOM     12  C   UNL     1     -13.538  57.202  52.600  0.00  0.00    +0.000 C 
ATOM     13  C   UNL     1     -13.512  57.690  49.601  0.00  0.00    +0.000 C 
ATOM     14  C   UNL     1     -14.745  57.859  51.845  0.00  0.00    +0.000 C 
ATOM     15  C   UNL     1     -14.219  58.606  50.596  0.00  0.00    +0.000 C 
ATOM     16  C   UNL     1     -15.472  58.898  52.720  0.00  0.00    +0.000 C 
ATOM     17  C   UNL     1     -15.776  56.781  51.450  0.00  0.00    +0.000 C 
BRANCH   9  18
ATOM     18  C   UNL     1     -11.418  55.751  48.151  0.00  0.00    +0.000 C 
ATOM     19  O   UNL     1     -12.346  55.679  47.356  0.00  0.00    +0.000 OA
BRANCH  18  20
ATOM     20  O   UNL     1     -10.103  55.712  47.814  0.00  0.00    +0.000 OA
BRANCH  20  21
ATOM     21  C   UNL     1      -9.720  54.790  46.793  0.00  0.00    +0.000 C 
ATOM     22  C   UNL     1      -8.210  54.695  46.728  0.00  0.00    +0.000 C 
ENDBRANCH  20  21
ENDBRANCH  18  20
ENDBRANCH   9  18
ENDBRANCH   4   7
BRANCH   1  23
ATOM     23  S   UNL     1      -8.540  50.860  49.203  0.00  0.00    +0.000 S 
ATOM     24  O   UNL     1      -9.602  50.110  49.837  0.00  0.00    +0.000 OA
ATOM     25  O   UNL     1      -7.156  50.456  49.378  0.00  0.00    +0.000 OA
BRANCH  23  26
ATOM     26  C   UNL     1      -8.834  50.909  47.443  0.00  0.00    +0.000 A 
ATOM     27  C   UNL     1      -7.768  50.990  46.536  0.00  0.00    +0.000 A 
ATOM     28  C   UNL     1     -10.149  50.829  46.972  0.00  0.00    +0.000 A 
ATOM     29  C   UNL     1      -8.033  51.040  45.158  0.00  0.00    +0.000 A 
ATOM     30  C   UNL     1     -10.410  50.878  45.599  0.00  0.00    +0.000 A 
ATOM     31  C   UNL     1      -9.352  50.994  44.686  0.00  0.00    +0.000 A 
BRANCH  31  32
ATOM     32  C   UNL     1      -9.623  51.068  43.275  0.00  0.00    +0.000 C 
ATOM     33  N   UNL     1      -9.850  51.132  42.145  0.00  0.00    +0.000 NA
ENDBRANCH  31  32
ENDBRANCH  23  26
ENDBRANCH   1  23
TORSDOF 7
ENDMDL
MODEL 4
REMARK VINA RESULT:      -7.0      3.356      8.486
REMARK  Name = 
REMARK  10 active torsions:
REMARK  status: ('A' for Active; 'I' for Inactive)
REMARK    1  A    between atoms: S_1  and  N_4
REMARK    2  A    between atoms: S_1  and  C_5
REMARK    3  A    between atoms: N_10  and  C_13
REMARK    4  A    between atoms: C_14  and  C_17
REMARK    5  A    between atoms: C_16  and  C_20
REMARK    6  A    between atoms: C_20  and  O_25
REMARK    7  A    between atoms: O_25  and  C_28
REMARK    8  A    between atoms: C_26  and  C_29
REMARK    9  A    between atoms: C_26  and  C_30
REMARK   10  A    between atoms: C_28  and  C_31
REMARK                            x       y       z     vdW  Elec       q    Type
REMARK                         _______ _______ _______ _____ _____    ______ ____
ROOT
ATOM      1  N   UNL     1     -11.527  56.830  49.157  0.00  0.00    +0.000 N 
ATOM      2  C   UNL     1     -10.568  55.901  49.551  0.00  0.00    +0.000 C 
ATOM      3  O   UNL     1     -10.890  54.789  49.943  0.00  0.00    +0.000 OA
ATOM      4  N   UNL     1      -9.268  56.390  49.592  0.00  0.00    +0.000 N 
ATOM      5  H   UNL     1     -11.228  57.729  48.892  0.00  0.00    +0.000 HD
ATOM      6  H   UNL     1      -9.055  57.299  49.280  0.00  0.00    +0.000 HD
ENDROOT
BRANCH   4   7
ATOM      7  C   UNL     1      -8.276  55.549  50.091  0.00  0.00    +0.000 A 
ATOM      8  S   UNL     1      -7.908  55.702  51.746  0.00  0.00    +0.000 S 
ATOM      9  C   UNL     1      -7.543  54.559  49.467  0.00  0.00    +0.000 A 
ATOM     10  C   UNL     1      -6.929  54.297  51.718  0.00  0.00    +0.000 A 
ATOM     11  C   UNL     1      -6.830  53.767  50.443  0.00  0.00    +0.000 A 
ATOM     12  C   UNL     1      -6.249  53.720  52.947  0.00  0.00    +0.000 C 
ATOM     13  C   UNL     1      -5.985  52.561  50.150  0.00  0.00    +0.000 C 
ATOM     14  C   UNL     1      -5.086  52.748  52.547  0.00  0.00    +0.000 C 
ATOM     15  C   UNL     1      -5.571  51.812  51.414  0.00  0.00    +0.000 C 
ATOM     16  C   UNL     1      -4.658  51.850  53.723  0.00  0.00    +0.000 C 
ATOM     17  C   UNL     1      -3.847  53.554  52.103  0.00  0.00    +0.000 C 
BRANCH   9  18
ATOM     18  C   UNL     1      -7.525  54.381  48.014  0.00  0.00    +0.000 C 
ATOM     19  O   UNL     1      -6.532  54.570  47.325  0.00  0.00    +0.000 OA
BRANCH  18  20
ATOM     20  O   UNL     1      -8.736  53.987  47.538  0.00  0.00    +0.000 OA
BRANCH  20  21
ATOM     21  C   UNL     1      -9.217  54.643  46.365  0.00  0.00    +0.000 C 
ATOM     22  C   UNL     1     -10.714  54.448  46.246  0.00  0.00    +0.000 C 
ENDBRANCH  20  21
ENDBRANCH  18  20
ENDBRANCH   9  18
ENDBRANCH   4   7
BRANCH   1  23
ATOM     23  S   UNL     1     -13.168  56.495  49.112  0.00  0.00    +0.000 S 
ATOM     24  O   UNL     1     -13.351  55.075  49.319  0.00  0.00    +0.000 OA
ATOM     25  O   UNL     1     -13.670  57.129  47.905  0.00  0.00    +0.000 OA
BRANCH  23  26
ATOM     26  C   UNL     1     -13.889  57.380  50.485  0.00  0.00    +0.000 A 
ATOM     27  C   UNL     1     -13.815  56.870  51.789  0.00  0.00    +0.000 A 
ATOM     28  C   UNL     1     -14.501  58.615  50.251  0.00  0.00    +0.000 A 
ATOM     29  C   UNL     1     -14.403  57.583  52.846  0.00  0.00    +0.000 A 
ATOM     30  C   UNL     1     -15.085  59.324  51.305  0.00  0.00    +0.000 A 
ATOM     31  C   UNL     1     -15.047  58.805  52.607  0.00  0.00    +0.000 A 
BRANCH  31  32
ATOM     32  C   UNL     1     -15.669  59.524  53.688  0.00  0.00    +0.000 C 
ATOM     33  N   UNL     1     -16.176  60.094  54.553  0.00  0.00    +0.000 NA
ENDBRANCH  31  32
ENDBRANCH  23  26
ENDBRANCH   1  23
TORSDOF 7
ENDMDL
MODEL 5
REMARK VINA RESULT:      -6.8      2.926      5.142
REMARK  Name = 
REMARK  10 active torsions:
REMARK  status: ('A' for Active; 'I' for Inactive)
REMARK    1  A    between atoms: S_1  and  N_4
REMARK    2  A    between atoms: S_1  and  C_5
REMARK    3  A    between atoms: N_10  and  C_13
REMARK    4  A    between atoms: C_14  and  C_17
REMARK    5  A    between atoms: C_16  and  C_20
REMARK    6  A    between atoms: C_20  and  O_25
REMARK    7  A    between atoms: O_25  and  C_28
REMARK    8  A    between atoms: C_26  and  C_29
REMARK    9  A    between atoms: C_26  and  C_30
REMARK   10  A    between atoms: C_28  and  C_31
REMARK                            x       y       z     vdW  Elec       q    Type
REMARK                         _______ _______ _______ _____ _____    ______ ____
ROOT
ATOM      1  N   UNL     1      -8.183  53.677  49.866  0.00  0.00    +0.000 N 
ATOM      2  C   UNL     1      -9.187  54.551  50.273  0.00  0.00    +0.000 C 
ATOM      3  O   UNL     1      -9.064  55.226  51.284  0.00  0.00    +0.000 OA
ATOM      4  N   UNL     1     -10.358  54.479  49.529  0.00  0.00    +0.000 N 
ATOM      5  H   UNL     1      -8.342  53.118  49.072  0.00  0.00    +0.000 HD
ATOM      6  H   UNL     1     -10.418  53.909  48.728  0.00  0.00    +0.000 HD
ENDROOT
BRANCH   4   7
ATOM      7  C   UNL     1     -11.444  55.240  49.954  0.00  0.00    +0.000 A 
ATOM      8  S   UNL     1     -11.711  55.316  51.634  0.00  0.00    +0.000 S 
ATOM      9  C   UNL     1     -12.345  55.997  49.232  0.00  0.00    +0.000 A 
ATOM     10  C   UNL     1     -12.893  56.542  51.450  0.00  0.00    +0.000 A 
ATOM     11  C   UNL     1     -13.128  56.831  50.116  0.00  0.00    +0.000 A 
ATOM     12  C   UNL     1     -13.598  57.213  52.615  0.00  0.00    +0.000 C 
ATOM     13  C   UNL     1     -14.158  57.838  49.694  0.00  0.00    +0.000 C 
ATOM     14  C   UNL     1     -14.912  57.928  52.145  0.00  0.00    +0.000 C 
ATOM     15  C   UNL     1     -14.626  58.721  50.847  0.00  0.00    +0.000 C 
ATOM     16  C   UNL     1     -15.420  58.940  53.190  0.00  0.00    +0.000 C 
ATOM     17  C   UNL     1     -16.032  56.890  51.922  0.00  0.00    +0.000 C 
BRANCH   9  18
ATOM     18  C   UNL     1     -12.454  55.925  47.774  0.00  0.00    +0.000 C 
ATOM     19  O   UNL     1     -12.798  56.871  47.078  0.00  0.00    +0.000 OA
BRANCH  18  20
ATOM     20  O   UNL     1     -12.133  54.691  47.304  0.00  0.00    +0.000 OA
BRANCH  20  21
ATOM     21  C   UNL     1     -11.304  54.634  46.143  0.00  0.00    +0.000 C 
ATOM     22  C   UNL     1     -11.715  53.462  45.277  0.00  0.00    +0.000 C 
ENDBRANCH  20  21
ENDBRANCH  18  20
ENDBRANCH   9  18
ENDBRANCH   4   7
BRANCH   1  23
ATOM     23  S   UNL     1      -6.717  53.526  50.661  0.00  0.00    +0.000 S 
ATOM     24  O   UNL     1      -6.224  54.851  50.968  0.00  0.00    +0.000 OA
ATOM     25  O   UNL     1      -5.919  52.619  49.855  0.00  0.00    +0.000 OA
BRANCH  23  26
ATOM     26  C   UNL     1      -7.069  52.670  52.187  0.00  0.00    +0.000 A 
ATOM     27  C   UNL     1      -6.394  52.999  53.371  0.00  0.00    +0.000 A 
ATOM     28  C   UNL     1      -8.061  51.683  52.199  0.00  0.00    +0.000 A 
ATOM     29  C   UNL     1      -6.685  52.299  54.553  0.00  0.00    +0.000 A 
ATOM     30  C   UNL     1      -8.348  50.987  53.377  0.00  0.00    +0.000 A 
ATOM     31  C   UNL     1      -7.654  51.286  54.558  0.00  0.00    +0.000 A 
BRANCH  31  32
ATOM     32  C   UNL     1      -7.935  50.553  55.764  0.00  0.00    +0.000 C 
ATOM     33  N   UNL     1      -8.151  49.968  56.735  0.00  0.00    +0.000 NA
ENDBRANCH  31  32
ENDBRANCH  23  26
ENDBRANCH   1  23
TORSDOF 7
ENDMDL
MODEL 6
REMARK VINA RESULT:      -6.7      3.103      9.179
REMARK  Name = 
REMARK  10 active torsions:
REMARK  status: ('A' for Active; 'I' for Inactive)
REMARK    1  A    between atoms: S_1  and  N_4
REMARK    2  A    between atoms: S_1  and  C_5
REMARK    3  A    between atoms: N_10  and  C_13
REMARK    4  A    between atoms: C_14  and  C_17
REMARK    5  A    between atoms: C_16  and  C_20
REMARK    6  A    between atoms: C_20  and  O_25
REMARK    7  A    between atoms: O_25  and  C_28
REMARK    8  A    between atoms: C_26  and  C_29
REMARK    9  A    between atoms: C_26  and  C_30
REMARK   10  A    between atoms: C_28  and  C_31
REMARK                            x       y       z     vdW  Elec       q    Type
REMARK                         _______ _______ _______ _____ _____    ______ ____
ROOT
ATOM      1  N   UNL     1     -11.860  57.025  49.307  0.00  0.00    +0.000 N 
ATOM      2  C   UNL     1     -10.963  55.987  49.072  0.00  0.00    +0.000 C 
ATOM      3  O   UNL     1     -11.358  54.857  48.824  0.00  0.00    +0.000 OA
ATOM      4  N   UNL     1      -9.629  56.313  49.282  0.00  0.00    +0.000 N 
ATOM      5  H   UNL     1     -11.500  57.909  49.549  0.00  0.00    +0.000 HD
ATOM      6  H   UNL     1      -9.357  57.235  49.495  0.00  0.00    +0.000 HD
ENDROOT
BRANCH   4   7
ATOM      7  C   UNL     1      -8.689  55.290  49.180  0.00  0.00    +0.000 A 
ATOM      8  S   UNL     1      -8.057  54.987  47.628  0.00  0.00    +0.000 S 
ATOM      9  C   UNL     1      -8.136  54.482  50.152  0.00  0.00    +0.000 A 
ATOM     10  C   UNL     1      -6.866  53.927  48.255  0.00  0.00    +0.000 A 
ATOM     11  C   UNL     1      -7.003  53.756  49.623  0.00  0.00    +0.000 A 
ATOM     12  C   UNL     1      -5.804  53.256  47.404  0.00  0.00    +0.000 C 
ATOM     13  C   UNL     1      -6.108  52.833  50.398  0.00  0.00    +0.000 C 
ATOM     14  C   UNL     1      -5.177  52.026  48.147  0.00  0.00    +0.000 C 
ATOM     15  C   UNL     1      -4.868  52.418  49.611  0.00  0.00    +0.000 C 
ATOM     16  C   UNL     1      -3.847  51.586  47.507  0.00  0.00    +0.000 C 
ATOM     17  C   UNL     1      -6.141  50.822  48.090  0.00  0.00    +0.000 C 
BRANCH   9  18
ATOM     18  C   UNL     1      -8.663  54.405  51.515  0.00  0.00    +0.000 C 
ATOM     19  O   UNL     1      -9.222  53.414  51.966  0.00  0.00    +0.000 OA
BRANCH  18  20
ATOM     20  O   UNL     1      -8.456  55.559  52.203  0.00  0.00    +0.000 OA
BRANCH  20  21
ATOM     21  C   UNL     1      -7.160  55.756  52.768  0.00  0.00    +0.000 C 
ATOM     22  C   UNL     1      -7.119  55.179  54.168  0.00  0.00    +0.000 C 
ENDBRANCH  20  21
ENDBRANCH  18  20
ENDBRANCH   9  18
ENDBRANCH   4   7
BRANCH   1  23
ATOM     23  S   UNL     1     -13.522  56.848  49.201  0.00  0.00    +0.000 S 
ATOM     24  O   UNL     1     -13.838  55.439  49.292  0.00  0.00    +0.000 OA
ATOM     25  O   UNL     1     -13.930  57.614  48.036  0.00  0.00    +0.000 OA
BRANCH  23  26
ATOM     26  C   UNL     1     -14.200  57.688  50.622  0.00  0.00    +0.000 A 
ATOM     27  C   UNL     1     -14.115  57.122  51.902  0.00  0.00    +0.000 A 
ATOM     28  C   UNL     1     -14.789  58.945  50.451  0.00  0.00    +0.000 A 
ATOM     29  C   UNL     1     -14.669  57.802  52.999  0.00  0.00    +0.000 A 
ATOM     30  C   UNL     1     -15.339  59.621  51.545  0.00  0.00    +0.000 A 
ATOM     31  C   UNL     1     -15.290  59.046  52.823  0.00  0.00    +0.000 A 
BRANCH  31  32
ATOM     32  C   UNL     1     -15.877  59.732  53.944  0.00  0.00    +0.000 C 
ATOM     33  N   UNL     1     -16.342  60.276  54.849  0.00  0.00    +0.000 NA
ENDBRANCH  31  32
ENDBRANCH  23  26
ENDBRANCH   1  23
TORSDOF 7
ENDMDL
MODEL 7
REMARK VINA RESULT:      -6.6      3.539      8.328
REMARK  Name = 
REMARK  10 active torsions:
REMARK  status: ('A' for Active; 'I' for Inactive)
REMARK    1  A    between atoms: S_1  and  N_4
REMARK    2  A    between atoms: S_1  and  C_5
REMARK    3  A    between atoms: N_10  and  C_13
REMARK    4  A    between atoms: C_14  and  C_17
REMARK    5  A    between atoms: C_16  and  C_20
REMARK    6  A    between atoms: C_20  and  O_25
REMARK    7  A    between atoms: O_25  and  C_28
REMARK    8  A    between atoms: C_26  and  C_29
REMARK    9  A    between atoms: C_26  and  C_30
REMARK   10  A    between atoms: C_28  and  C_31
REMARK                            x       y       z     vdW  Elec       q    Type
REMARK                         _______ _______ _______ _____ _____    ______ ____
ROOT
ATOM      1  N   UNL     1     -11.962  56.727  49.717  0.00  0.00    +0.000 N 
ATOM      2  C   UNL     1     -11.536  55.573  50.369  0.00  0.00    +0.000 C 
ATOM      3  O   UNL     1     -12.335  54.718  50.723  0.00  0.00    +0.000 OA
ATOM      4  N   UNL     1     -10.186  55.554  50.694  0.00  0.00    +0.000 N 
ATOM      5  H   UNL     1     -11.292  57.411  49.490  0.00  0.00    +0.000 HD
ATOM      6  H   UNL     1      -9.581  56.272  50.401  0.00  0.00    +0.000 HD
ENDROOT
BRANCH   4   7
ATOM      7  C   UNL     1      -9.717  54.483  51.452  0.00  0.00    +0.000 A 
ATOM      8  S   UNL     1     -10.191  54.440  53.087  0.00  0.00    +0.000 S 
ATOM      9  C   UNL     1      -8.945  53.398  51.088  0.00  0.00    +0.000 A 
ATOM     10  C   UNL     1      -9.567  52.857  53.287  0.00  0.00    +0.000 A 
ATOM     11  C   UNL     1      -8.942  52.404  52.137  0.00  0.00    +0.000 A 
ATOM     12  C   UNL     1      -9.681  52.063  54.576  0.00  0.00    +0.000 C 
ATOM     13  C   UNL     1      -8.270  51.062  52.077  0.00  0.00    +0.000 C 
ATOM     14  C   UNL     1      -8.647  50.886  54.610  0.00  0.00    +0.000 C 
ATOM     15  C   UNL     1      -8.657  50.158  53.244  0.00  0.00    +0.000 C 
ATOM     16  C   UNL     1      -9.004  49.839  55.682  0.00  0.00    +0.000 C 
ATOM     17  C   UNL     1      -7.238  51.424  54.937  0.00  0.00    +0.000 C 
BRANCH   9  18
ATOM     18  C   UNL     1      -8.245  53.317  49.805  0.00  0.00    +0.000 C 
ATOM     19  O   UNL     1      -7.049  53.075  49.704  0.00  0.00    +0.000 OA
BRANCH  18  20
ATOM     20  O   UNL     1      -9.081  53.544  48.758  0.00  0.00    +0.000 OA
BRANCH  20  21
ATOM     21  C   UNL     1      -8.581  54.350  47.691  0.00  0.00    +0.000 C 
ATOM     22  C   UNL     1      -9.700  55.197  47.121  0.00  0.00    +0.000 C 
ENDBRANCH  20  21
ENDBRANCH  18  20
ENDBRANCH   9  18
ENDBRANCH   4   7
BRANCH   1  23
ATOM     23  S   UNL     1     -13.559  57.012  49.300  0.00  0.00    +0.000 S 
ATOM     24  O   UNL     1     -14.217  55.738  49.110  0.00  0.00    +0.000 OA
ATOM     25  O   UNL     1     -13.520  57.983  48.221  0.00  0.00    +0.000 OA
BRANCH  23  26
ATOM     26  C   UNL     1     -14.294  57.841  50.700  0.00  0.00    +0.000 A 
ATOM     27  C   UNL     1     -14.842  59.125  50.572  0.00  0.00    +0.000 A 
ATOM     28  C   UNL     1     -14.350  57.176  51.930  0.00  0.00    +0.000 A 
ATOM     29  C   UNL     1     -15.402  59.755  51.694  0.00  0.00    +0.000 A 
ATOM     30  C   UNL     1     -14.908  57.806  53.047  0.00  0.00    +0.000 A 
ATOM     31  C   UNL     1     -15.428  59.104  52.935  0.00  0.00    +0.000 A 
BRANCH  31  32
ATOM     32  C   UNL     1     -15.981  59.760  54.091  0.00  0.00    +0.000 C 
ATOM     33  N   UNL     1     -16.418  60.280  55.023  0.00  0.00    +0.000 NA
ENDBRANCH  31  32
ENDBRANCH  23  26
ENDBRANCH   1  23
TORSDOF 7
ENDMDL
MODEL 8
REMARK VINA RESULT:      -6.6      2.700      4.594
REMARK  Name = 
REMARK  10 active torsions:
REMARK  status: ('A' for Active; 'I' for Inactive)
REMARK    1  A    between atoms: S_1  and  N_4
REMARK    2  A    between atoms: S_1  and  C_5
REMARK    3  A    between atoms: N_10  and  C_13
REMARK    4  A    between atoms: C_14  and  C_17
REMARK    5  A    between atoms: C_16  and  C_20
REMARK    6  A    between atoms: C_20  and  O_25
REMARK    7  A    between atoms: O_25  and  C_28
REMARK    8  A    between atoms: C_26  and  C_29
REMARK    9  A    between atoms: C_26  and  C_30
REMARK   10  A    between atoms: C_28  and  C_31
REMARK                            x       y       z     vdW  Elec       q    Type
REMARK                         _______ _______ _______ _____ _____    ______ ____
ROOT
ATOM      1  N   UNL     1      -9.275  53.183  47.428  0.00  0.00    +0.000 N 
ATOM      2  C   UNL     1      -9.932  54.262  48.012  0.00  0.00    +0.000 C 
ATOM      3  O   UNL     1      -9.339  55.301  48.261  0.00  0.00    +0.000 OA
ATOM      4  N   UNL     1     -11.240  54.004  48.403  0.00  0.00    +0.000 N 
ATOM      5  H   UNL     1      -9.779  52.349  47.286  0.00  0.00    +0.000 HD
ATOM      6  H   UNL     1     -11.674  53.146  48.194  0.00  0.00    +0.000 HD
ENDROOT
BRANCH   4   7
ATOM      7  C   UNL     1     -11.916  55.002  49.101  0.00  0.00    +0.000 A 
ATOM      8  S   UNL     1     -12.796  56.123  48.168  0.00  0.00    +0.000 S 
ATOM      9  C   UNL     1     -12.031  55.225  50.458  0.00  0.00    +0.000 A 
ATOM     10  C   UNL     1     -13.535  56.791  49.562  0.00  0.00    +0.000 A 
ATOM     11  C   UNL     1     -13.055  56.211  50.724  0.00  0.00    +0.000 A 
ATOM     12  C   UNL     1     -14.578  57.893  49.515  0.00  0.00    +0.000 C 
ATOM     13  C   UNL     1     -13.513  56.661  52.081  0.00  0.00    +0.000 C 
ATOM     14  C   UNL     1     -14.718  58.600  50.907  0.00  0.00    +0.000 C 
ATOM     15  C   UNL     1     -14.769  57.526  52.021  0.00  0.00    +0.000 C 
ATOM     16  C   UNL     1     -16.020  59.417  51.008  0.00  0.00    +0.000 C 
ATOM     17  C   UNL     1     -13.541  59.572  51.132  0.00  0.00    +0.000 C 
BRANCH   9  18
ATOM     18  C   UNL     1     -11.206  54.534  51.450  0.00  0.00    +0.000 C 
ATOM     19  O   UNL     1     -11.325  53.345  51.714  0.00  0.00    +0.000 OA
BRANCH  18  20
ATOM     20  O   UNL     1     -10.307  55.371  52.031  0.00  0.00    +0.000 OA
BRANCH  20  21
ATOM     21  C   UNL     1      -9.734  54.951  53.269  0.00  0.00    +0.000 C 
ATOM     22  C   UNL     1      -8.263  54.649  53.077  0.00  0.00    +0.000 C 
ENDBRANCH  20  21
ENDBRANCH  18  20
ENDBRANCH   9  18
ENDBRANCH   4   7
BRANCH   1  23
ATOM     23  S   UNL     1      -7.670  53.230  46.953  0.00  0.00    +0.000 S 
ATOM     24  O   UNL     1      -7.494  54.342  46.044  0.00  0.00    +0.000 OA
ATOM     25  O   UNL     1      -7.341  51.881  46.528  0.00  0.00    +0.000 OA
BRANCH  23  26
ATOM     26  C   UNL     1      -6.726  53.538  48.436  0.00  0.00    +0.000 A 
ATOM     27  C   UNL     1      -5.985  54.719  48.587  0.00  0.00    +0.000 A 
ATOM     28  C   UNL     1      -6.762  52.598  49.472  0.00  0.00    +0.000 A 
ATOM     29  C   UNL     1      -5.243  54.927  49.761  0.00  0.00    +0.000 A 
ATOM     30  C   UNL     1      -6.023  52.808  50.640  0.00  0.00    +0.000 A 
ATOM     31  C   UNL     1      -5.251  53.970  50.785  0.00  0.00    +0.000 A 
BRANCH  31  32
ATOM     32  C   UNL     1      -4.472  54.173  51.978  0.00  0.00    +0.000 C 
ATOM     33  N   UNL     1      -3.848  54.347  52.933  0.00  0.00    +0.000 NA
ENDBRANCH  31  32
ENDBRANCH  23  26
ENDBRANCH   1  23
TORSDOF 7
ENDMDL
MODEL 9
REMARK VINA RESULT:      -6.0      1.768      2.328
REMARK  Name = 
REMARK  10 active torsions:
REMARK  status: ('A' for Active; 'I' for Inactive)
REMARK    1  A    between atoms: S_1  and  N_4
REMARK    2  A    between atoms: S_1  and  C_5
REMARK    3  A    between atoms: N_10  and  C_13
REMARK    4  A    between atoms: C_14  and  C_17
REMARK    5  A    between atoms: C_16  and  C_20
REMARK    6  A    between atoms: C_20  and  O_25
REMARK    7  A    between atoms: O_25  and  C_28
REMARK    8  A    between atoms: C_26  and  C_29
REMARK    9  A    between atoms: C_26  and  C_30
REMARK   10  A    between atoms: C_28  and  C_31
REMARK                            x       y       z     vdW  Elec       q    Type
REMARK                         _______ _______ _______ _____ _____    ______ ____
ROOT
ATOM      1  N   UNL     1      -8.490  51.730  49.920  0.00  0.00    +0.000 N 
ATOM      2  C   UNL     1      -9.424  52.742  49.717  0.00  0.00    +0.000 C 
ATOM      3  O   UNL     1      -9.155  53.720  49.035  0.00  0.00    +0.000 OA
ATOM      4  N   UNL     1     -10.595  52.610  50.453  0.00  0.00    +0.000 N 
ATOM      5  H   UNL     1      -8.732  50.983  50.513  0.00  0.00    +0.000 HD
ATOM      6  H   UNL     1     -10.764  51.811  51.001  0.00  0.00    +0.000 HD
ENDROOT
BRANCH   4   7
ATOM      7  C   UNL     1     -11.521  53.648  50.387  0.00  0.00    +0.000 A 
ATOM      8  S   UNL     1     -11.885  54.439  51.851  0.00  0.00    +0.000 S 
ATOM      9  C   UNL     1     -12.188  54.187  49.306  0.00  0.00    +0.000 A 
ATOM     10  C   UNL     1     -12.763  55.665  51.038  0.00  0.00    +0.000 A 
ATOM     11  C   UNL     1     -12.836  55.426  49.676  0.00  0.00    +0.000 A 
ATOM     12  C   UNL     1     -13.390  56.857  51.739  0.00  0.00    +0.000 C 
ATOM     13  C   UNL     1     -13.596  56.332  48.753  0.00  0.00    +0.000 C 
ATOM     14  C   UNL     1     -14.485  57.529  50.842  0.00  0.00    +0.000 C 
ATOM     15  C   UNL     1     -13.946  57.670  49.398  0.00  0.00    +0.000 C 
ATOM     16  C   UNL     1     -14.839  58.946  51.332  0.00  0.00    +0.000 C 
ATOM     17  C   UNL     1     -15.781  56.692  50.866  0.00  0.00    +0.000 C 
BRANCH   9  18
ATOM     18  C   UNL     1     -12.206  53.553  47.987  0.00  0.00    +0.000 C 
ATOM     19  O   UNL     1     -11.960  54.151  46.948  0.00  0.00    +0.000 OA
BRANCH  18  20
ATOM     20  O   UNL     1     -12.530  52.235  48.064  0.00  0.00    +0.000 OA
BRANCH  20  21
ATOM     21  C   UNL     1     -12.344  51.450  46.887  0.00  0.00    +0.000 C 
ATOM     22  C   UNL     1     -11.035  50.693  46.977  0.00  0.00    +0.000 C 
ENDBRANCH  20  21
ENDBRANCH  18  20
ENDBRANCH   9  18
ENDBRANCH   4   7
BRANCH   1  23
ATOM     23  S   UNL     1      -6.975  51.719  49.207  0.00  0.00    +0.000 S 
ATOM     24  O   UNL     1      -6.148  50.759  49.906  0.00  0.00    +0.000 OA
ATOM     25  O   UNL     1      -6.566  53.109  49.120  0.00  0.00    +0.000 OA
BRANCH  23  26
ATOM     26  C   UNL     1      -7.223  51.158  47.531  0.00  0.00    +0.000 A 
ATOM     27  C   UNL     1      -7.087  49.803  47.196  0.00  0.00    +0.000 A 
ATOM     28  C   UNL     1      -7.594  52.087  46.552  0.00  0.00    +0.000 A 
ATOM     29  C   UNL     1      -7.277  49.395  45.866  0.00  0.00    +0.000 A 
ATOM     30  C   UNL     1      -7.783  51.678  45.228  0.00  0.00    +0.000 A 
ATOM     31  C   UNL     1      -7.615  50.331  44.878  0.00  0.00    +0.000 A 
BRANCH  31  32
ATOM     32  C   UNL     1      -7.787  49.915  43.511  0.00  0.00    +0.000 C 
ATOM     33  N   UNL     1      -7.914  49.581  42.413  0.00  0.00    +0.000 NA
ENDBRANCH  31  32
ENDBRANCH  23  26
ENDBRANCH   1  23
TORSDOF 7
ENDMDL
