MODEL 1
REMARK VINA RESULT:      -7.6      0.000      0.000
REMARK  Name = 
REMARK  9 active torsions:
REMARK  status: ('A' for Active; 'I' for Inactive)
REMARK    1  A    between atoms: S_1  and  N_4
REMARK    2  A    between atoms: S_1  and  C_5
REMARK    3  A    between atoms: N_10  and  C_13
REMARK    4  A    between atoms: C_11  and  O_14
REMARK    5  A    between atoms: O_14  and  C_18
REMARK    6  A    between atoms: C_17  and  C_21
REMARK    7  A    between atoms: C_21  and  O_25
REMARK    8  A    between atoms: O_25  and  C_28
REMARK    9  A    between atoms: C_28  and  C_29
REMARK                            x       y       z     vdW  Elec       q    Type
REMARK                         _______ _______ _______ _____ _____    ______ ____
ROOT
ATOM      1  N   UNL     1     -10.641  54.218  47.024  0.00  0.00    +0.000 N 
ATOM      2  C   UNL     1     -11.019  55.140  47.991  0.00  0.00    +0.000 C 
ATOM      3  O   UNL     1     -10.174  55.860  48.495  0.00  0.00    +0.000 OA
ATOM      4  N   UNL     1     -12.360  55.093  48.328  0.00  0.00    +0.000 N 
ATOM      5  H   UNL     1     -11.333  53.660  46.599  0.00  0.00    +0.000 HD
ATOM      6  H   UNL     1     -12.927  54.448  47.847  0.00  0.00    +0.000 HD
ENDROOT
BRANCH   4   7
ATOM      7  C   UNL     1     -12.968  55.891  49.298  0.00  0.00    +0.000 A 
ATOM      8  S   UNL     1     -14.014  57.147  48.821  0.00  0.00    +0.000 S 
ATOM      9  C   UNL     1     -12.883  55.785  50.687  0.00  0.00    +0.000 A 
ATOM     10  C   UNL     1     -14.267  57.660  50.402  0.00  0.00    +0.000 A 
ATOM     11  C   UNL     1     -13.641  56.854  51.332  0.00  0.00    +0.000 A 
ATOM     12  C   UNL     1     -15.137  58.842  50.688  0.00  0.00    +0.000 C 
ATOM     13  C   UNL     1     -13.771  57.157  52.803  0.00  0.00    +0.000 C 
ATOM     14  C   UNL     1     -14.974  59.295  52.141  0.00  0.00    +0.000 C 
ATOM     15  C   UNL     1     -14.946  58.103  53.101  0.00  0.00    +0.000 C 
BRANCH   9  16
ATOM     16  C   UNL     1     -12.132  54.712  51.347  0.00  0.00    +0.000 C 
ATOM     17  O   UNL     1     -12.323  53.523  51.111  0.00  0.00    +0.000 OA
BRANCH  16  18
ATOM     18  O   UNL     1     -11.277  55.180  52.298  0.00  0.00    +0.000 OA
BRANCH  18  19
ATOM     19  C   UNL     1      -9.875  55.022  52.047  0.00  0.00    +0.000 C 
ATOM     20  C   UNL     1      -9.193  54.684  53.362  0.00  0.00    +0.000 C 
ENDBRANCH  18  19
ENDBRANCH  16  18
ENDBRANCH   9  16
ENDBRANCH   4   7
BRANCH   1  21
ATOM     21  S   UNL     1      -9.044  54.026  46.558  0.00  0.00    +0.000 S 
ATOM     22  O   UNL     1      -8.315  53.389  47.632  0.00  0.00    +0.000 OA
ATOM     23  O   UNL     1      -8.631  55.318  46.049  0.00  0.00    +0.000 OA
BRANCH  21  24
ATOM     24  C   UNL     1      -9.120  52.927  45.158  0.00  0.00    +0.000 A 
ATOM     25  C   UNL     1      -8.159  51.916  45.007  0.00  0.00    +0.000 A 
ATOM     26  C   UNL     1     -10.155  53.078  44.231  0.00  0.00    +0.000 A 
ATOM     27  C   UNL     1      -8.250  51.034  43.929  0.00  0.00    +0.000 A 
ATOM     28  C   UNL     1     -10.242  52.196  43.156  0.00  0.00    +0.000 A 
ATOM     29  C   UNL     1      -9.296  51.178  43.010  0.00  0.00    +0.000 A 
BRANCH  27  30
ATOM     30  O   UNL     1      -7.401  49.994  43.660  0.00  0.00    +0.000 OA
ATOM     31  C   UNL     1      -6.773  49.989  42.384  0.00  0.00    +0.000 C 
ENDBRANCH  27  30
ENDBRANCH  21  24
ENDBRANCH   1  21
TORSDOF 7
ENDMDL
MODEL 2
REMARK VINA RESULT:      -7.3      2.613      3.722
REMARK  Name = 
REMARK  9 active torsions:
REMARK  status: ('A' for Active; 'I' for Inactive)
REMARK    1  A    between atoms: S_1  and  N_4
REMARK    2  A    between atoms: S_1  and  C_5
REMARK    3  A    between atoms: N_10  and  C_13
REMARK    4  A    between atoms: C_11  and  O_14
REMARK    5  A    between atoms: O_14  and  C_18
REMARK    6  A    between atoms: C_17  and  C_21
REMARK    7  A    between atoms: C_21  and  O_25
REMARK    8  A    between atoms: O_25  and  C_28
REMARK    9  A    between atoms: C_28  and  C_29
REMARK                            x       y       z     vdW  Elec       q    Type
REMARK                         _______ _______ _______ _____ _____    ______ ____
ROOT
ATOM      1  N   UNL     1     -10.536  54.150  47.173  0.00  0.00    +0.000 N 
ATOM      2  C   UNL     1     -10.958  55.122  48.069  0.00  0.00    +0.000 C 
ATOM      3  O   UNL     1     -10.169  55.972  48.448  0.00  0.00    +0.000 OA
ATOM      4  N   UNL     1     -12.267  54.975  48.493  0.00  0.00    +0.000 N 
ATOM      5  H   UNL     1     -11.186  53.484  46.848  0.00  0.00    +0.000 HD
ATOM      6  H   UNL     1     -12.787  54.231  48.114  0.00  0.00    +0.000 HD
ENDROOT
BRANCH   4   7
ATOM      7  C   UNL     1     -12.904  55.803  49.419  0.00  0.00    +0.000 A 
ATOM      8  S   UNL     1     -13.965  57.017  48.874  0.00  0.00    +0.000 S 
ATOM      9  C   UNL     1     -12.839  55.758  50.813  0.00  0.00    +0.000 A 
ATOM     10  C   UNL     1     -14.252  57.592  50.427  0.00  0.00    +0.000 A 
ATOM     11  C   UNL     1     -13.625  56.840  51.400  0.00  0.00    +0.000 A 
ATOM     12  C   UNL     1     -15.148  58.768  50.649  0.00  0.00    +0.000 C 
ATOM     13  C   UNL     1     -13.783  57.202  52.854  0.00  0.00    +0.000 C 
ATOM     14  C   UNL     1     -15.016  59.287  52.083  0.00  0.00    +0.000 C 
ATOM     15  C   UNL     1     -14.979  58.138  53.094  0.00  0.00    +0.000 C 
BRANCH   9  16
ATOM     16  C   UNL     1     -12.077  54.729  51.529  0.00  0.00    +0.000 C 
ATOM     17  O   UNL     1     -12.237  53.528  51.337  0.00  0.00    +0.000 OA
BRANCH  16  18
ATOM     18  O   UNL     1     -11.253  55.253  52.478  0.00  0.00    +0.000 OA
BRANCH  18  19
ATOM     19  C   UNL     1      -9.958  54.654  52.616  0.00  0.00    +0.000 C 
ATOM     20  C   UNL     1      -9.003  55.368  51.673  0.00  0.00    +0.000 C 
ENDBRANCH  18  19
ENDBRANCH  16  18
ENDBRANCH   9  16
ENDBRANCH   4   7
BRANCH   1  21
ATOM     21  S   UNL     1      -8.955  54.073  46.627  0.00  0.00    +0.000 S 
ATOM     22  O   UNL     1      -8.543  55.390  46.193  0.00  0.00    +0.000 OA
ATOM     23  O   UNL     1      -8.914  52.949  45.714  0.00  0.00    +0.000 OA
BRANCH  21  24
ATOM     24  C   UNL     1      -8.013  53.600  48.063  0.00  0.00    +0.000 A 
ATOM     25  C   UNL     1      -6.891  54.350  48.445  0.00  0.00    +0.000 A 
ATOM     26  C   UNL     1      -8.418  52.487  48.805  0.00  0.00    +0.000 A 
ATOM     27  C   UNL     1      -6.183  53.996  49.595  0.00  0.00    +0.000 A 
ATOM     28  C   UNL     1      -7.709  52.135  49.951  0.00  0.00    +0.000 A 
ATOM     29  C   UNL     1      -6.601  52.890  50.344  0.00  0.00    +0.000 A 
BRANCH  27  30
ATOM     30  O   UNL     1      -5.085  54.639  50.099  0.00  0.00    +0.000 OA
ATOM     31  C   UNL     1      -4.541  54.130  51.311  0.00  0.00    +0.000 C 
ENDBRANCH  27  30
ENDBRANCH  21  24
ENDBRANCH   1  21
TORSDOF 7
ENDMDL
MODEL 3
REMARK VINA RESULT:      -7.3      3.802      6.265
REMARK  Name = 
REMARK  9 active torsions:
REMARK  status: ('A' for Active; 'I' for Inactive)
REMARK    1  A    between atoms: S_1  and  N_4
REMARK    2  A    between atoms: S_1  and  C_5
REMARK    3  A    between atoms: N_10  and  C_13
REMARK    4  A    between atoms: C_11  and  O_14
REMARK    5  A    between atoms: O_14  and  C_18
REMARK    6  A    between atoms: C_17  and  C_21
REMARK    7  A    between atoms: C_21  and  O_25
REMARK    8  A    between atoms: O_25  and  C_28
REMARK    9  A    between atoms: C_28  and  C_29
REMARK                            x       y       z     vdW  Elec       q    Type
REMARK                         _______ _______ _______ _____ _____    ______ ____
ROOT
ATOM      1  N   UNL     1     -11.040  52.861  51.898  0.00  0.00    +0.000 N 
ATOM      2  C   UNL     1     -11.348  54.214  51.832  0.00  0.00    +0.000 C 
ATOM      3  O   UNL     1     -10.716  55.007  52.508  0.00  0.00    +0.000 OA
ATOM      4  N   UNL     1     -12.423  54.512  51.014  0.00  0.00    +0.000 N 
ATOM      5  H   UNL     1     -11.535  52.229  51.327  0.00  0.00    +0.000 HD
ATOM      6  H   UNL     1     -12.852  53.766  50.536  0.00  0.00    +0.000 HD
ENDROOT
BRANCH   4   7
ATOM      7  C   UNL     1     -12.945  55.791  50.816  0.00  0.00    +0.000 A 
ATOM      8  S   UNL     1     -13.813  56.551  52.067  0.00  0.00    +0.000 S 
ATOM      9  C   UNL     1     -12.820  56.616  49.696  0.00  0.00    +0.000 A 
ATOM     10  C   UNL     1     -14.156  57.905  51.133  0.00  0.00    +0.000 A 
ATOM     11  C   UNL     1     -13.562  57.859  49.887  0.00  0.00    +0.000 A 
ATOM     12  C   UNL     1     -14.982  59.022  51.686  0.00  0.00    +0.000 C 
ATOM     13  C   UNL     1     -13.750  58.998  48.918  0.00  0.00    +0.000 C 
ATOM     14  C   UNL     1     -15.409  59.983  50.573  0.00  0.00    +0.000 C 
ATOM     15  C   UNL     1     -14.254  60.275  49.611  0.00  0.00    +0.000 C 
BRANCH   9  16
ATOM     16  C   UNL     1     -12.022  56.233  48.526  0.00  0.00    +0.000 C 
ATOM     17  O   UNL     1     -12.521  55.989  47.432  0.00  0.00    +0.000 OA
BRANCH  16  18
ATOM     18  O   UNL     1     -10.699  56.096  48.816  0.00  0.00    +0.000 OA
BRANCH  18  19
ATOM     19  C   UNL     1     -10.047  54.916  48.331  0.00  0.00    +0.000 C 
ATOM     20  C   UNL     1      -8.804  55.341  47.568  0.00  0.00    +0.000 C 
ENDBRANCH  18  19
ENDBRANCH  16  18
ENDBRANCH   9  16
ENDBRANCH   4   7
BRANCH   1  21
ATOM     21  S   UNL     1      -9.853  52.272  52.921  0.00  0.00    +0.000 S 
ATOM     22  O   UNL     1      -9.633  50.873  52.629  0.00  0.00    +0.000 OA
ATOM     23  O   UNL     1     -10.240  52.696  54.251  0.00  0.00    +0.000 OA
BRANCH  21  24
ATOM     24  C   UNL     1      -8.396  53.203  52.492  0.00  0.00    +0.000 A 
ATOM     25  C   UNL     1      -7.748  53.979  53.464  0.00  0.00    +0.000 A 
ATOM     26  C   UNL     1      -7.907  53.135  51.184  0.00  0.00    +0.000 A 
ATOM     27  C   UNL     1      -6.584  54.673  53.128  0.00  0.00    +0.000 A 
ATOM     28  C   UNL     1      -6.746  53.829  50.853  0.00  0.00    +0.000 A 
ATOM     29  C   UNL     1      -6.088  54.590  51.822  0.00  0.00    +0.000 A 
BRANCH  27  30
ATOM     30  O   UNL     1      -5.836  55.453  53.969  0.00  0.00    +0.000 OA
ATOM     31  C   UNL     1      -4.525  54.995  54.275  0.00  0.00    +0.000 C 
ENDBRANCH  27  30
ENDBRANCH  21  24
ENDBRANCH   1  21
TORSDOF 7
ENDMDL
MODEL 4
REMARK VINA RESULT:      -7.2      2.219      3.349
REMARK  Name = 
REMARK  9 active torsions:
REMARK  status: ('A' for Active; 'I' for Inactive)
REMARK    1  A    between atoms: S_1  and  N_4
REMARK    2  A    between atoms: S_1  and  C_5
REMARK    3  A    between atoms: N_10  and  C_13
REMARK    4  A    between atoms: C_11  and  O_14
REMARK    5  A    between atoms: O_14  and  C_18
REMARK    6  A    between atoms: C_17  and  C_21
REMARK    7  A    between atoms: C_21  and  O_25
REMARK    8  A    between atoms: O_25  and  C_28
REMARK    9  A    between atoms: C_28  and  C_29
REMARK                            x       y       z     vdW  Elec       q    Type
REMARK                         _______ _______ _______ _____ _____    ______ ____
ROOT
ATOM      1  N   UNL     1     -10.152  52.314  49.160  0.00  0.00    +0.000 N 
ATOM      2  C   UNL     1     -11.223  53.146  49.456  0.00  0.00    +0.000 C 
ATOM      3  O   UNL     1     -12.344  52.836  49.089  0.00  0.00    +0.000 OA
ATOM      4  N   UNL     1     -10.872  54.312  50.113  0.00  0.00    +0.000 N 
ATOM      5  H   UNL     1      -9.254  52.555  49.485  0.00  0.00    +0.000 HD
ATOM      6  H   UNL     1      -9.922  54.440  50.336  0.00  0.00    +0.000 HD
ENDROOT
BRANCH   4   7
ATOM      7  C   UNL     1     -11.764  55.320  50.482  0.00  0.00    +0.000 A 
ATOM      8  S   UNL     1     -12.086  55.599  52.130  0.00  0.00    +0.000 S 
ATOM      9  C   UNL     1     -12.441  56.224  49.661  0.00  0.00    +0.000 A 
ATOM     10  C   UNL     1     -13.211  56.803  51.801  0.00  0.00    +0.000 A 
ATOM     11  C   UNL     1     -13.314  57.085  50.454  0.00  0.00    +0.000 A 
ATOM     12  C   UNL     1     -13.941  57.487  52.913  0.00  0.00    +0.000 C 
ATOM     13  C   UNL     1     -14.267  58.150  49.975  0.00  0.00    +0.000 C 
ATOM     14  C   UNL     1     -15.109  58.312  52.368  0.00  0.00    +0.000 C 
ATOM     15  C   UNL     1     -14.709  59.088  51.111  0.00  0.00    +0.000 C 
BRANCH   9  16
ATOM     16  C   UNL     1     -12.245  56.261  48.208  0.00  0.00    +0.000 C 
ATOM     17  O   UNL     1     -13.174  56.357  47.412  0.00  0.00    +0.000 OA
BRANCH  16  18
ATOM     18  O   UNL     1     -10.942  56.089  47.851  0.00  0.00    +0.000 OA
BRANCH  18  19
ATOM     19  C   UNL     1     -10.690  55.350  46.649  0.00  0.00    +0.000 C 
ATOM     20  C   UNL     1      -9.187  55.167  46.512  0.00  0.00    +0.000 C 
ENDBRANCH  18  19
ENDBRANCH  16  18
ENDBRANCH   9  16
ENDBRANCH   4   7
BRANCH   1  21
ATOM     21  S   UNL     1     -10.341  50.911  48.265  0.00  0.00    +0.000 S 
ATOM     22  O   UNL     1     -11.595  50.288  48.627  0.00  0.00    +0.000 OA
ATOM     23  O   UNL     1      -9.091  50.191  48.404  0.00  0.00    +0.000 OA
BRANCH  21  24
ATOM     24  C   UNL     1     -10.422  51.471  46.576  0.00  0.00    +0.000 A 
ATOM     25  C   UNL     1      -9.247  51.600  45.822  0.00  0.00    +0.000 A 
ATOM     26  C   UNL     1     -11.670  51.760  46.016  0.00  0.00    +0.000 A 
ATOM     27  C   UNL     1      -9.324  52.000  44.487  0.00  0.00    +0.000 A 
ATOM     28  C   UNL     1     -11.743  52.160  44.683  0.00  0.00    +0.000 A 
ATOM     29  C   UNL     1     -10.576  52.275  43.924  0.00  0.00    +0.000 A 
BRANCH  27  30
ATOM     30  O   UNL     1      -8.271  52.154  43.626  0.00  0.00    +0.000 OA
ATOM     31  C   UNL     1      -8.586  52.417  42.264  0.00  0.00    +0.000 C 
ENDBRANCH  27  30
ENDBRANCH  21  24
ENDBRANCH   1  21
TORSDOF 7
ENDMDL
MODEL 5
REMARK VINA RESULT:      -7.1      3.377      8.578
REMARK  Name = 
REMARK  9 active torsions:
REMARK  status: ('A' for Active; 'I' for Inactive)
REMARK    1  A    between atoms: S_1  and  N_4
REMARK    2  A    between atoms: S_1  and  C_5
REMARK    3  A    between atoms: N_10  and  C_13
REMARK    4  A    between atoms: C_11  and  O_14
REMARK    5  A    between atoms: O_14  and  C_18
REMARK    6  A    between atoms: C_17  and  C_21
REMARK    7  A    between atoms: C_21  and  O_25
REMARK    8  A    between atoms: O_25  and  C_28
REMARK    9  A    between atoms: C_28  and  C_29
REMARK                            x       y       z     vdW  Elec       q    Type
REMARK                         _______ _______ _______ _____ _____    ______ ____
ROOT
ATOM      1  N   UNL     1     -10.707  56.021  48.932  0.00  0.00    +0.000 N 
ATOM      2  C   UNL     1      -9.868  55.383  49.837  0.00  0.00    +0.000 C 
ATOM      3  O   UNL     1     -10.307  54.478  50.526  0.00  0.00    +0.000 OA
ATOM      4  N   UNL     1      -8.591  55.911  49.896  0.00  0.00    +0.000 N 
ATOM      5  H   UNL     1     -10.339  56.731  48.357  0.00  0.00    +0.000 HD
ATOM      6  H   UNL     1      -8.377  56.655  49.289  0.00  0.00    +0.000 HD
ENDROOT
BRANCH   4   7
ATOM      7  C   UNL     1      -7.582  55.467  50.754  0.00  0.00    +0.000 A 
ATOM      8  S   UNL     1      -7.759  55.662  52.435  0.00  0.00    +0.000 S 
ATOM      9  C   UNL     1      -6.397  54.804  50.430  0.00  0.00    +0.000 A 
ATOM     10  C   UNL     1      -6.243  55.015  52.763  0.00  0.00    +0.000 A 
ATOM     11  C   UNL     1      -5.600  54.561  51.628  0.00  0.00    +0.000 A 
ATOM     12  C   UNL     1      -5.740  54.927  54.168  0.00  0.00    +0.000 C 
ATOM     13  C   UNL     1      -4.232  53.935  51.735  0.00  0.00    +0.000 C 
ATOM     14  C   UNL     1      -4.246  54.594  54.189  0.00  0.00    +0.000 C 
ATOM     15  C   UNL     1      -3.900  53.503  53.173  0.00  0.00    +0.000 C 
BRANCH   9  16
ATOM     16  C   UNL     1      -6.066  54.418  49.054  0.00  0.00    +0.000 C 
ATOM     17  O   UNL     1      -4.934  54.512  48.590  0.00  0.00    +0.000 OA
BRANCH  16  18
ATOM     18  O   UNL     1      -7.160  54.036  48.339  0.00  0.00    +0.000 OA
BRANCH  18  19
ATOM     19  C   UNL     1      -7.076  54.148  46.913  0.00  0.00    +0.000 C 
ATOM     20  C   UNL     1      -8.286  54.928  46.426  0.00  0.00    +0.000 C 
ENDBRANCH  18  19
ENDBRANCH  16  18
ENDBRANCH   9  16
ENDBRANCH   4   7
BRANCH   1  21
ATOM     21  S   UNL     1     -12.325  55.618  48.788  0.00  0.00    +0.000 S 
ATOM     22  O   UNL     1     -12.493  54.219  49.115  0.00  0.00    +0.000 OA
ATOM     23  O   UNL     1     -12.739  56.129  47.497  0.00  0.00    +0.000 OA
BRANCH  21  24
ATOM     24  C   UNL     1     -13.141  56.616  50.018  0.00  0.00    +0.000 A 
ATOM     25  C   UNL     1     -13.567  57.913  49.699  0.00  0.00    +0.000 A 
ATOM     26  C   UNL     1     -13.360  56.080  51.291  0.00  0.00    +0.000 A 
ATOM     27  C   UNL     1     -14.241  58.672  50.657  0.00  0.00    +0.000 A 
ATOM     28  C   UNL     1     -14.033  56.841  52.244  0.00  0.00    +0.000 A 
ATOM     29  C   UNL     1     -14.474  58.128  51.925  0.00  0.00    +0.000 A 
BRANCH  27  30
ATOM     30  O   UNL     1     -14.730  59.940  50.488  0.00  0.00    +0.000 OA
ATOM     31  C   UNL     1     -14.538  60.539  49.211  0.00  0.00    +0.000 C 
ENDBRANCH  27  30
ENDBRANCH  21  24
ENDBRANCH   1  21
TORSDOF 7
ENDMDL
MODEL 6
REMARK VINA RESULT:      -7.1      3.251      7.969
REMARK  Name = 
REMARK  9 active torsions:
REMARK  status: ('A' for Active; 'I' for Inactive)
REMARK    1  A    between atoms: S_1  and  N_4
REMARK    2  A    between atoms: S_1  and  C_5
REMARK    3  A    between atoms: N_10  and  C_13
REMARK    4  A    between atoms: C_11  and  O_14
REMARK    5  A    between atoms: O_14  and  C_18
REMARK    6  A    between atoms: C_17  and  C_21
REMARK    7  A    between atoms: C_21  and  O_25
REMARK    8  A    between atoms: O_25  and  C_28
REMARK    9  A    between atoms: C_28  and  C_29
REMARK                            x       y       z     vdW  Elec       q    Type
REMARK                         _______ _______ _______ _____ _____    ______ ____
ROOT
ATOM      1  N   UNL     1      -8.123  56.358  49.599  0.00  0.00    +0.000 N 
ATOM      2  C   UNL     1      -8.346  55.295  48.736  0.00  0.00    +0.000 C 
ATOM      3  O   UNL     1      -8.031  54.167  49.078  0.00  0.00    +0.000 OA
ATOM      4  N   UNL     1      -8.871  55.659  47.509  0.00  0.00    +0.000 N 
ATOM      5  H   UNL     1      -8.407  57.262  49.329  0.00  0.00    +0.000 HD
ATOM      6  H   UNL     1      -9.065  56.613  47.363  0.00  0.00    +0.000 HD
ENDROOT
BRANCH   4   7
ATOM      7  C   UNL     1      -9.146  54.776  46.464  0.00  0.00    +0.000 A 
ATOM      8  S   UNL     1      -7.895  54.298  45.413  0.00  0.00    +0.000 S 
ATOM      9  C   UNL     1     -10.353  54.148  46.152  0.00  0.00    +0.000 A 
ATOM     10  C   UNL     1      -8.924  53.377  44.457  0.00  0.00    +0.000 A 
ATOM     11  C   UNL     1     -10.215  53.337  44.946  0.00  0.00    +0.000 A 
ATOM     12  C   UNL     1      -8.406  52.662  43.250  0.00  0.00    +0.000 C 
ATOM     13  C   UNL     1     -11.273  52.544  44.222  0.00  0.00    +0.000 C 
ATOM     14  C   UNL     1      -9.561  52.152  42.384  0.00  0.00    +0.000 C 
ATOM     15  C   UNL     1     -10.668  51.529  43.238  0.00  0.00    +0.000 C 
BRANCH   9  16
ATOM     16  C   UNL     1     -11.556  54.310  46.976  0.00  0.00    +0.000 C 
ATOM     17  O   UNL     1     -12.125  53.366  47.516  0.00  0.00    +0.000 OA
BRANCH  16  18
ATOM     18  O   UNL     1     -12.008  55.594  46.995  0.00  0.00    +0.000 OA
BRANCH  18  19
ATOM     19  C   UNL     1     -12.848  55.970  48.094  0.00  0.00    +0.000 C 
ATOM     20  C   UNL     1     -11.968  56.559  49.184  0.00  0.00    +0.000 C 
ENDBRANCH  18  19
ENDBRANCH  16  18
ENDBRANCH   9  16
ENDBRANCH   4   7
BRANCH   1  21
ATOM     21  S   UNL     1      -7.383  56.152  51.088  0.00  0.00    +0.000 S 
ATOM     22  O   UNL     1      -7.309  57.432  51.757  0.00  0.00    +0.000 OA
ATOM     23  O   UNL     1      -6.182  55.387  50.821  0.00  0.00    +0.000 OA
BRANCH  21  24
ATOM     24  C   UNL     1      -8.485  55.077  51.984  0.00  0.00    +0.000 A 
ATOM     25  C   UNL     1      -7.971  53.989  52.705  0.00  0.00    +0.000 A 
ATOM     26  C   UNL     1      -9.857  55.344  51.969  0.00  0.00    +0.000 A 
ATOM     27  C   UNL     1      -8.838  53.176  53.437  0.00  0.00    +0.000 A 
ATOM     28  C   UNL     1     -10.719  54.530  52.700  0.00  0.00    +0.000 A 
ATOM     29  C   UNL     1     -10.209  53.455  53.433  0.00  0.00    +0.000 A 
BRANCH  27  30
ATOM     30  O   UNL     1      -8.483  52.094  54.199  0.00  0.00    +0.000 OA
ATOM     31  C   UNL     1      -7.120  52.007  54.597  0.00  0.00    +0.000 C 
ENDBRANCH  27  30
ENDBRANCH  21  24
ENDBRANCH   1  21
TORSDOF 7
ENDMDL
MODEL 7
REMARK VINA RESULT:      -7.0      3.279      8.189
REMARK  Name = 
REMARK  9 active torsions:
REMARK  status: ('A' for Active; 'I' for Inactive)
REMARK    1  A    between atoms: S_1  and  N_4
REMARK    2  A    between atoms: S_1  and  C_5
REMARK    3  A    between atoms: N_10  and  C_13
REMARK    4  A    between atoms: C_11  and  O_14
REMARK    5  A    between atoms: O_14  and  C_18
REMARK    6  A    between atoms: C_17  and  C_21
REMARK    7  A    between atoms: C_21  and  O_25
REMARK    8  A    between atoms: O_25  and  C_28
REMARK    9  A    between atoms: C_28  and  C_29
REMARK                            x       y       z     vdW  Elec       q    Type
REMARK                         _______ _______ _______ _____ _____    ______ ____
ROOT
ATOM      1  N   UNL     1     -14.145  55.389  51.645  0.00  0.00    +0.000 N 
ATOM      2  C   UNL     1     -12.832  54.950  51.529  0.00  0.00    +0.000 C 
ATOM      3  O   UNL     1     -11.923  55.674  51.900  0.00  0.00    +0.000 OA
ATOM      4  N   UNL     1     -12.698  53.713  50.926  0.00  0.00    +0.000 N 
ATOM      5  H   UNL     1     -14.876  54.788  51.372  0.00  0.00    +0.000 HD
ATOM      6  H   UNL     1     -13.521  53.243  50.662  0.00  0.00    +0.000 HD
ENDROOT
BRANCH   4   7
ATOM      7  C   UNL     1     -11.481  53.080  50.664  0.00  0.00    +0.000 A 
ATOM      8  S   UNL     1     -10.905  51.886  51.731  0.00  0.00    +0.000 S 
ATOM      9  C   UNL     1     -10.632  53.252  49.569  0.00  0.00    +0.000 A 
ATOM     10  C   UNL     1      -9.481  51.669  50.866  0.00  0.00    +0.000 A 
ATOM     11  C   UNL     1      -9.436  52.425  49.712  0.00  0.00    +0.000 A 
ATOM     12  C   UNL     1      -8.445  50.699  51.336  0.00  0.00    +0.000 C 
ATOM     13  C   UNL     1      -8.237  52.347  48.802  0.00  0.00    +0.000 C 
ATOM     14  C   UNL     1      -7.133  50.894  50.572  0.00  0.00    +0.000 C 
ATOM     15  C   UNL     1      -7.380  51.099  49.075  0.00  0.00    +0.000 C 
BRANCH   9  16
ATOM     16  C   UNL     1     -10.962  54.145  48.454  0.00  0.00    +0.000 C 
ATOM     17  O   UNL     1     -10.365  55.197  48.244  0.00  0.00    +0.000 OA
BRANCH  16  18
ATOM     18  O   UNL     1     -12.046  53.722  47.747  0.00  0.00    +0.000 OA
BRANCH  18  19
ATOM     19  C   UNL     1     -11.812  52.754  46.716  0.00  0.00    +0.000 C 
ATOM     20  C   UNL     1     -11.676  53.492  45.395  0.00  0.00    +0.000 C 
ENDBRANCH  18  19
ENDBRANCH  16  18
ENDBRANCH   9  16
ENDBRANCH   4   7
BRANCH   1  21
ATOM     21  S   UNL     1     -14.523  56.909  52.236  0.00  0.00    +0.000 S 
ATOM     22  O   UNL     1     -13.551  57.277  53.242  0.00  0.00    +0.000 OA
ATOM     23  O   UNL     1     -15.934  56.860  52.558  0.00  0.00    +0.000 OA
BRANCH  21  24
ATOM     24  C   UNL     1     -14.356  57.986  50.828  0.00  0.00    +0.000 A 
ATOM     25  C   UNL     1     -14.200  57.443  49.544  0.00  0.00    +0.000 A 
ATOM     26  C   UNL     1     -14.399  59.370  51.022  0.00  0.00    +0.000 A 
ATOM     27  C   UNL     1     -14.111  58.295  48.442  0.00  0.00    +0.000 A 
ATOM     28  C   UNL     1     -14.310  60.217  49.919  0.00  0.00    +0.000 A 
ATOM     29  C   UNL     1     -14.170  59.680  48.637  0.00  0.00    +0.000 A 
BRANCH  27  30
ATOM     30  O   UNL     1     -13.974  57.914  47.133  0.00  0.00    +0.000 OA
ATOM     31  C   UNL     1     -13.189  56.755  46.879  0.00  0.00    +0.000 C 
ENDBRANCH  27  30
ENDBRANCH  21  24
ENDBRANCH   1  21
TORSDOF 7
ENDMDL
MODEL 8
REMARK VINA RESULT:      -6.9      3.900      8.728
REMARK  Name = 
REMARK  9 active torsions:
REMARK  status: ('A' for Active; 'I' for Inactive)
REMARK    1  A    between atoms: S_1  and  N_4
REMARK    2  A    between atoms: S_1  and  C_5
REMARK    3  A    between atoms: N_10  and  C_13
REMARK    4  A    between atoms: C_11  and  O_14
REMARK    5  A    between atoms: O_14  and  C_18
REMARK    6  A    between atoms: C_17  and  C_21
REMARK    7  A    between atoms: C_21  and  O_25
REMARK    8  A    between atoms: O_25  and  C_28
REMARK    9  A    between atoms: C_28  and  C_29
REMARK                            x       y       z     vdW  Elec       q    Type
REMARK                         _______ _______ _______ _____ _____    ______ ____
ROOT
ATOM      1  N   UNL     1     -11.121  56.459  49.516  0.00  0.00    +0.000 N 
ATOM      2  C   UNL     1     -10.143  55.475  49.466  0.00  0.00    +0.000 C 
ATOM      3  O   UNL     1     -10.444  54.347  49.114  0.00  0.00    +0.000 OA
ATOM      4  N   UNL     1      -8.895  55.891  49.895  0.00  0.00    +0.000 N 
ATOM      5  H   UNL     1     -10.865  57.375  49.772  0.00  0.00    +0.000 HD
ATOM      6  H   UNL     1      -8.798  56.832  50.166  0.00  0.00    +0.000 HD
ENDROOT
BRANCH   4   7
ATOM      7  C   UNL     1      -7.764  55.076  49.973  0.00  0.00    +0.000 A 
ATOM      8  S   UNL     1      -6.839  54.784  48.575  0.00  0.00    +0.000 S 
ATOM      9  C   UNL     1      -7.213  54.462  51.099  0.00  0.00    +0.000 A 
ATOM     10  C   UNL     1      -5.786  53.747  49.377  0.00  0.00    +0.000 A 
ATOM     11  C   UNL     1      -6.052  53.657  50.729  0.00  0.00    +0.000 A 
ATOM     12  C   UNL     1      -4.672  53.074  48.640  0.00  0.00    +0.000 C 
ATOM     13  C   UNL     1      -5.198  52.782  51.610  0.00  0.00    +0.000 C 
ATOM     14  C   UNL     1      -4.051  51.966  49.494  0.00  0.00    +0.000 C 
ATOM     15  C   UNL     1      -3.861  52.415  50.945  0.00  0.00    +0.000 C 
BRANCH   9  16
ATOM     16  C   UNL     1      -7.764  54.653  52.445  0.00  0.00    +0.000 C 
ATOM     17  O   UNL     1      -8.850  54.199  52.790  0.00  0.00    +0.000 OA
BRANCH  16  18
ATOM     18  O   UNL     1      -6.983  55.453  53.221  0.00  0.00    +0.000 OA
BRANCH  18  19
ATOM     19  C   UNL     1      -6.518  54.903  54.460  0.00  0.00    +0.000 C 
ATOM     20  C   UNL     1      -5.002  55.014  54.488  0.00  0.00    +0.000 C 
ENDBRANCH  18  19
ENDBRANCH  16  18
ENDBRANCH   9  16
ENDBRANCH   4   7
BRANCH   1  21
ATOM     21  S   UNL     1     -12.723  56.135  49.154  0.00  0.00    +0.000 S 
ATOM     22  O   UNL     1     -13.164  55.005  49.943  0.00  0.00    +0.000 OA
ATOM     23  O   UNL     1     -12.794  56.098  47.708  0.00  0.00    +0.000 OA
BRANCH  21  24
ATOM     24  C   UNL     1     -13.599  57.597  49.672  0.00  0.00    +0.000 A 
ATOM     25  C   UNL     1     -14.096  57.691  50.980  0.00  0.00    +0.000 A 
ATOM     26  C   UNL     1     -13.766  58.646  48.764  0.00  0.00    +0.000 A 
ATOM     27  C   UNL     1     -14.745  58.857  51.389  0.00  0.00    +0.000 A 
ATOM     28  C   UNL     1     -14.415  59.808  49.175  0.00  0.00    +0.000 A 
ATOM     29  C   UNL     1     -14.897  59.912  50.482  0.00  0.00    +0.000 A 
BRANCH  27  30
ATOM     30  O   UNL     1     -15.266  59.101  52.632  0.00  0.00    +0.000 OA
ATOM     31  C   UNL     1     -15.279  58.013  53.548  0.00  0.00    +0.000 C 
ENDBRANCH  27  30
ENDBRANCH  21  24
ENDBRANCH   1  21
TORSDOF 7
ENDMDL
MODEL 9
REMARK VINA RESULT:      -6.9      3.960      7.759
REMARK  Name = 
REMARK  9 active torsions:
REMARK  status: ('A' for Active; 'I' for Inactive)
REMARK    1  A    between atoms: S_1  and  N_4
REMARK    2  A    between atoms: S_1  and  C_5
REMARK    3  A    between atoms: N_10  and  C_13
REMARK    4  A    between atoms: C_11  and  O_14
REMARK    5  A    between atoms: O_14  and  C_18
REMARK    6  A    between atoms: C_17  and  C_21
REMARK    7  A    between atoms: C_21  and  O_25
REMARK    8  A    between atoms: O_25  and  C_28
REMARK    9  A    between atoms: C_28  and  C_29
REMARK                            x       y       z     vdW  Elec       q    Type
REMARK                         _______ _______ _______ _____ _____    ______ ____
ROOT
ATOM      1  N   UNL     1     -14.094  55.450  51.863  0.00  0.00    +0.000 N 
ATOM      2  C   UNL     1     -12.760  55.177  51.592  0.00  0.00    +0.000 C 
ATOM      3  O   UNL     1     -11.932  56.065  51.703  0.00  0.00    +0.000 OA
ATOM      4  N   UNL     1     -12.521  53.888  51.151  0.00  0.00    +0.000 N 
ATOM      5  H   UNL     1     -14.754  54.721  51.800  0.00  0.00    +0.000 HD
ATOM      6  H   UNL     1     -13.291  53.277  51.094  0.00  0.00    +0.000 HD
ENDROOT
BRANCH   4   7
ATOM      7  C   UNL     1     -11.272  53.389  50.780  0.00  0.00    +0.000 A 
ATOM      8  S   UNL     1     -10.798  53.434  49.146  0.00  0.00    +0.000 S 
ATOM      9  C   UNL     1     -10.267  52.867  51.598  0.00  0.00    +0.000 A 
ATOM     10  C   UNL     1      -9.340  52.655  49.452  0.00  0.00    +0.000 A 
ATOM     11  C   UNL     1      -9.135  52.414  50.796  0.00  0.00    +0.000 A 
ATOM     12  C   UNL     1      -8.397  52.340  48.335  0.00  0.00    +0.000 C 
ATOM     13  C   UNL     1      -7.871  51.734  51.257  0.00  0.00    +0.000 C 
ATOM     14  C   UNL     1      -7.303  51.377  48.806  0.00  0.00    +0.000 C 
ATOM     15  C   UNL     1      -6.768  51.767  50.186  0.00  0.00    +0.000 C 
BRANCH   9  16
ATOM     16  C   UNL     1     -10.390  52.824  53.059  0.00  0.00    +0.000 C 
ATOM     17  O   UNL     1     -11.362  52.341  53.631  0.00  0.00    +0.000 OA
BRANCH  16  18
ATOM     18  O   UNL     1      -9.360  53.453  53.690  0.00  0.00    +0.000 OA
BRANCH  18  19
ATOM     19  C   UNL     1      -9.268  54.874  53.527  0.00  0.00    +0.000 C 
ATOM     20  C   UNL     1      -7.803  55.237  53.350  0.00  0.00    +0.000 C 
ENDBRANCH  18  19
ENDBRANCH  16  18
ENDBRANCH   9  16
ENDBRANCH   4   7
BRANCH   1  21
ATOM     21  S   UNL     1     -14.616  56.981  52.294  0.00  0.00    +0.000 S 
ATOM     22  O   UNL     1     -13.753  57.497  53.332  0.00  0.00    +0.000 OA
ATOM     23  O   UNL     1     -16.043  56.857  52.514  0.00  0.00    +0.000 OA
BRANCH  21  24
ATOM     24  C   UNL     1     -14.411  57.952  50.814  0.00  0.00    +0.000 A 
ATOM     25  C   UNL     1     -14.173  57.317  49.586  0.00  0.00    +0.000 A 
ATOM     26  C   UNL     1     -14.506  59.344  50.897  0.00  0.00    +0.000 A 
ATOM     27  C   UNL     1     -14.054  58.084  48.426  0.00  0.00    +0.000 A 
ATOM     28  C   UNL     1     -14.386  60.106  49.737  0.00  0.00    +0.000 A 
ATOM     29  C   UNL     1     -14.165  59.477  48.509  0.00  0.00    +0.000 A 
BRANCH  27  30
ATOM     30  O   UNL     1     -13.839  57.608  47.160  0.00  0.00    +0.000 OA
ATOM     31  C   UNL     1     -12.938  56.515  47.028  0.00  0.00    +0.000 C 
ENDBRANCH  27  30
ENDBRANCH  21  24
ENDBRANCH   1  21
TORSDOF 7
ENDMDL
