MODEL 1
REMARK VINA RESULT:      -7.7      0.000      0.000
REMARK  Name = 
REMARK  9 active torsions:
REMARK  status: ('A' for Active; 'I' for Inactive)
REMARK    1  A    between atoms: S_1  and  N_4
REMARK    2  A    between atoms: S_1  and  C_5
REMARK    3  A    between atoms: N_10  and  C_13
REMARK    4  A    between atoms: C_16  and  C_19
REMARK    5  A    between atoms: C_19  and  O_23
REMARK    6  A    between atoms: O_23  and  C_26
REMARK    7  A    between atoms: C_24  and  C_27
REMARK    8  A    between atoms: C_24  and  C_28
REMARK    9  A    between atoms: C_26  and  C_29
REMARK                            x       y       z     vdW  Elec       q    Type
REMARK                         _______ _______ _______ _____ _____    ______ ____
ROOT
ATOM      1  C   UNL     1     -10.921  54.380  51.471  0.00  0.00    +0.000 A 
ATOM      2  S   UNL     1     -10.523  53.779  53.009  0.00  0.00    +0.000 S 
ATOM      3  C   UNL     1      -9.826  54.857  50.764  0.00  0.00    +0.000 A 
ATOM      4  C   UNL     1      -8.856  53.868  52.664  0.00  0.00    +0.000 A 
ATOM      5  C   UNL     1      -8.608  54.449  51.431  0.00  0.00    +0.000 A 
ATOM      6  C   UNL     1      -7.800  53.365  53.617  0.00  0.00    +0.000 C 
ATOM      7  C   UNL     1      -7.212  54.680  50.930  0.00  0.00    +0.000 C 
ATOM      8  C   UNL     1      -6.400  53.962  53.271  0.00  0.00    +0.000 C 
ATOM      9  C   UNL     1      -6.173  53.892  51.737  0.00  0.00    +0.000 C 
ATOM     10  C   UNL     1      -5.286  53.150  53.958  0.00  0.00    +0.000 C 
ATOM     11  C   UNL     1      -6.303  55.415  53.778  0.00  0.00    +0.000 C 
ENDROOT
BRANCH   1  15
ATOM     12  N   UNL     1     -14.409  55.196  51.179  0.00  0.00    +0.000 N 
ATOM     13  C   UNL     1     -13.073  55.352  51.510  0.00  0.00    +0.000 C 
ATOM     14  O   UNL     1     -12.667  56.383  52.038  0.00  0.00    +0.000 OA
ATOM     15  N   UNL     1     -12.261  54.299  51.140  0.00  0.00    +0.000 N 
ATOM     16  H   UNL     1     -14.721  54.332  50.827  0.00  0.00    +0.000 HD
ATOM     17  H   UNL     1     -12.623  53.520  50.660  0.00  0.00    +0.000 HD
BRANCH  12  18
ATOM     18  S   UNL     1     -15.512  56.456  51.367  0.00  0.00    +0.000 S 
ATOM     19  O   UNL     1     -15.644  56.727  52.786  0.00  0.00    +0.000 OA
ATOM     20  O   UNL     1     -16.678  56.049  50.601  0.00  0.00    +0.000 OA
BRANCH  18  21
ATOM     21  C   UNL     1     -14.742  57.855  50.515  0.00  0.00    +0.000 A 
ATOM     22  N   UNL     1     -14.685  59.005  51.231  0.00  0.00    +0.000 NA
ATOM     23  N   UNL     1     -14.311  57.653  49.253  0.00  0.00    +0.000 NA
ATOM     24  C   UNL     1     -14.107  60.033  50.584  0.00  0.00    +0.000 A 
ATOM     25  C   UNL     1     -13.784  58.740  48.659  0.00  0.00    +0.000 A 
ATOM     26  C   UNL     1     -13.645  59.961  49.286  0.00  0.00    +0.000 A 
ENDBRANCH  18  21
ENDBRANCH  12  18
ENDBRANCH   1  15
BRANCH   3  27
ATOM     27  C   UNL     1      -9.896  55.694  49.553  0.00  0.00    +0.000 C 
ATOM     28  O   UNL     1      -9.596  56.883  49.538  0.00  0.00    +0.000 OA
BRANCH  27  29
ATOM     29  O   UNL     1     -10.489  55.045  48.509  0.00  0.00    +0.000 OA
BRANCH  29  30
ATOM     30  C   UNL     1     -11.578  55.694  47.846  0.00  0.00    +0.000 C 
ATOM     31  C   UNL     1     -11.615  55.331  46.376  0.00  0.00    +0.000 C 
ENDBRANCH  29  30
ENDBRANCH  27  29
ENDBRANCH   3  27
TORSDOF 6
ENDMDL
MODEL 2
REMARK VINA RESULT:      -7.5      3.071      7.607
REMARK  Name = 
REMARK  9 active torsions:
REMARK  status: ('A' for Active; 'I' for Inactive)
REMARK    1  A    between atoms: S_1  and  N_4
REMARK    2  A    between atoms: S_1  and  C_5
REMARK    3  A    between atoms: N_10  and  C_13
REMARK    4  A    between atoms: C_16  and  C_19
REMARK    5  A    between atoms: C_19  and  O_23
REMARK    6  A    between atoms: O_23  and  C_26
REMARK    7  A    between atoms: C_24  and  C_27
REMARK    8  A    between atoms: C_24  and  C_28
REMARK    9  A    between atoms: C_26  and  C_29
REMARK                            x       y       z     vdW  Elec       q    Type
REMARK                         _______ _______ _______ _____ _____    ______ ____
ROOT
ATOM      1  C   UNL     1     -11.015  54.816  50.077  0.00  0.00    +0.000 A 
ATOM      2  S   UNL     1     -11.706  54.803  51.630  0.00  0.00    +0.000 S 
ATOM      3  C   UNL     1     -11.634  55.700  49.205  0.00  0.00    +0.000 A 
ATOM      4  C   UNL     1     -12.652  56.175  51.271  0.00  0.00    +0.000 A 
ATOM      5  C   UNL     1     -12.519  56.569  49.950  0.00  0.00    +0.000 A 
ATOM      6  C   UNL     1     -13.525  56.853  52.298  0.00  0.00    +0.000 C 
ATOM      7  C   UNL     1     -13.295  57.725  49.386  0.00  0.00    +0.000 C 
ATOM      8  C   UNL     1     -14.591  57.765  51.616  0.00  0.00    +0.000 C 
ATOM      9  C   UNL     1     -13.918  58.592  50.488  0.00  0.00    +0.000 C 
ATOM     10  C   UNL     1     -15.188  58.749  52.641  0.00  0.00    +0.000 C 
ATOM     11  C   UNL     1     -15.745  56.907  51.060  0.00  0.00    +0.000 C 
ENDROOT
BRANCH   1  15
ATOM     12  N   UNL     1      -7.649  53.559  49.977  0.00  0.00    +0.000 N 
ATOM     13  C   UNL     1      -8.684  54.453  50.197  0.00  0.00    +0.000 C 
ATOM     14  O   UNL     1      -8.471  55.566  50.668  0.00  0.00    +0.000 OA
ATOM     15  N   UNL     1      -9.941  53.962  49.908  0.00  0.00    +0.000 N 
ATOM     16  H   UNL     1      -7.838  52.704  49.528  0.00  0.00    +0.000 HD
ATOM     17  H   UNL     1     -10.068  53.038  49.593  0.00  0.00    +0.000 HD
BRANCH  12  18
ATOM     18  S   UNL     1      -6.072  53.906  50.460  0.00  0.00    +0.000 S 
ATOM     19  O   UNL     1      -5.741  55.236  49.984  0.00  0.00    +0.000 OA
ATOM     20  O   UNL     1      -5.287  52.767  50.015  0.00  0.00    +0.000 OA
BRANCH  18  21
ATOM     21  C   UNL     1      -6.141  53.870  52.268  0.00  0.00    +0.000 A 
ATOM     22  N   UNL     1      -5.411  54.826  52.892  0.00  0.00    +0.000 NA
ATOM     23  N   UNL     1      -6.884  52.900  52.841  0.00  0.00    +0.000 NA
ATOM     24  C   UNL     1      -5.476  54.785  54.234  0.00  0.00    +0.000 A 
ATOM     25  C   UNL     1      -6.864  52.901  54.187  0.00  0.00    +0.000 A 
ATOM     26  C   UNL     1      -6.182  53.834  54.941  0.00  0.00    +0.000 A 
ENDBRANCH  18  21
ENDBRANCH  12  18
ENDBRANCH   1  15
BRANCH   3  27
ATOM     27  C   UNL     1     -11.455  55.715  47.742  0.00  0.00    +0.000 C 
ATOM     28  O   UNL     1     -12.386  55.616  46.949  0.00  0.00    +0.000 OA
BRANCH  27  29
ATOM     29  O   UNL     1     -10.141  55.677  47.381  0.00  0.00    +0.000 OA
BRANCH  29  30
ATOM     30  C   UNL     1      -9.736  54.700  46.416  0.00  0.00    +0.000 C 
ATOM     31  C   UNL     1      -8.298  54.915  45.992  0.00  0.00    +0.000 C 
ENDBRANCH  29  30
ENDBRANCH  27  29
ENDBRANCH   3  27
TORSDOF 6
ENDMDL
MODEL 3
REMARK VINA RESULT:      -7.1      3.422      5.907
REMARK  Name = 
REMARK  9 active torsions:
REMARK  status: ('A' for Active; 'I' for Inactive)
REMARK    1  A    between atoms: S_1  and  N_4
REMARK    2  A    between atoms: S_1  and  C_5
REMARK    3  A    between atoms: N_10  and  C_13
REMARK    4  A    between atoms: C_16  and  C_19
REMARK    5  A    between atoms: C_19  and  O_23
REMARK    6  A    between atoms: O_23  and  C_26
REMARK    7  A    between atoms: C_24  and  C_27
REMARK    8  A    between atoms: C_24  and  C_28
REMARK    9  A    between atoms: C_26  and  C_29
REMARK                            x       y       z     vdW  Elec       q    Type
REMARK                         _______ _______ _______ _____ _____    ______ ____
ROOT
ATOM      1  C   UNL     1     -10.722  53.958  47.575  0.00  0.00    +0.000 A 
ATOM      2  S   UNL     1     -11.605  52.719  46.819  0.00  0.00    +0.000 S 
ATOM      3  C   UNL     1      -9.478  54.179  47.002  0.00  0.00    +0.000 A 
ATOM      4  C   UNL     1     -10.485  52.641  45.535  0.00  0.00    +0.000 A 
ATOM      5  C   UNL     1      -9.399  53.476  45.739  0.00  0.00    +0.000 A 
ATOM      6  C   UNL     1     -10.687  51.751  44.333  0.00  0.00    +0.000 C 
ATOM      7  C   UNL     1      -8.257  53.542  44.766  0.00  0.00    +0.000 C 
ATOM      8  C   UNL     1      -9.347  51.538  43.562  0.00  0.00    +0.000 C 
ATOM      9  C   UNL     1      -8.609  52.896  43.420  0.00  0.00    +0.000 C 
ATOM     10  C   UNL     1      -9.624  50.992  42.148  0.00  0.00    +0.000 C 
ATOM     11  C   UNL     1      -8.469  50.506  44.300  0.00  0.00    +0.000 C 
ENDROOT
BRANCH   1  15
ATOM     12  N   UNL     1     -12.646  56.318  49.484  0.00  0.00    +0.000 N 
ATOM     13  C   UNL     1     -12.053  55.738  48.376  0.00  0.00    +0.000 C 
ATOM     14  O   UNL     1     -12.195  56.219  47.256  0.00  0.00    +0.000 OA
ATOM     15  N   UNL     1     -11.365  54.570  48.635  0.00  0.00    +0.000 N 
ATOM     16  H   UNL     1     -12.454  55.957  50.379  0.00  0.00    +0.000 HD
ATOM     17  H   UNL     1     -11.332  54.188  49.542  0.00  0.00    +0.000 HD
BRANCH  12  18
ATOM     18  S   UNL     1     -13.692  57.631  49.334  0.00  0.00    +0.000 S 
ATOM     19  O   UNL     1     -14.723  57.274  48.378  0.00  0.00    +0.000 OA
ATOM     20  O   UNL     1     -12.828  58.768  49.067  0.00  0.00    +0.000 OA
BRANCH  18  21
ATOM     21  C   UNL     1     -14.394  57.835  50.989  0.00  0.00    +0.000 A 
ATOM     22  N   UNL     1     -14.994  56.733  51.501  0.00  0.00    +0.000 NA
ATOM     23  N   UNL     1     -14.285  59.050  51.564  0.00  0.00    +0.000 NA
ATOM     24  C   UNL     1     -15.508  56.902  52.732  0.00  0.00    +0.000 A 
ATOM     25  C   UNL     1     -14.860  59.151  52.777  0.00  0.00    +0.000 A 
ATOM     26  C   UNL     1     -15.480  58.098  53.418  0.00  0.00    +0.000 A 
ENDBRANCH  18  21
ENDBRANCH  12  18
ENDBRANCH   1  15
BRANCH   3  27
ATOM     27  C   UNL     1      -8.389  54.964  47.610  0.00  0.00    +0.000 C 
ATOM     28  O   UNL     1      -7.205  54.801  47.334  0.00  0.00    +0.000 OA
BRANCH  27  29
ATOM     29  O   UNL     1      -8.831  55.759  48.627  0.00  0.00    +0.000 OA
BRANCH  29  30
ATOM     30  C   UNL     1      -8.207  55.620  49.908  0.00  0.00    +0.000 C 
ATOM     31  C   UNL     1      -7.893  56.974  50.510  0.00  0.00    +0.000 C 
ENDBRANCH  29  30
ENDBRANCH  27  29
ENDBRANCH   3  27
TORSDOF 6
ENDMDL
MODEL 4
REMARK VINA RESULT:      -6.9      3.930      7.437
REMARK  Name = 
REMARK  9 active torsions:
REMARK  status: ('A' for Active; 'I' for Inactive)
REMARK    1  A    between atoms: S_1  and  N_4
REMARK    2  A    between atoms: S_1  and  C_5
REMARK    3  A    between atoms: N_10  and  C_13
REMARK    4  A    between atoms: C_16  and  C_19
REMARK    5  A    between atoms: C_19  and  O_23
REMARK    6  A    between atoms: O_23  and  C_26
REMARK    7  A    between atoms: C_24  and  C_27
REMARK    8  A    between atoms: C_24  and  C_28
REMARK    9  A    between atoms: C_26  and  C_29
REMARK                            x       y       z     vdW  Elec       q    Type
REMARK                         _______ _______ _______ _____ _____    ______ ____
ROOT
ATOM      1  C   UNL     1      -8.707  54.976  47.176  0.00  0.00    +0.000 A 
ATOM      2  S   UNL     1      -7.487  54.233  46.256  0.00  0.00    +0.000 S 
ATOM      3  C   UNL     1      -9.989  54.667  46.745  0.00  0.00    +0.000 A 
ATOM      4  C   UNL     1      -8.626  53.255  45.449  0.00  0.00    +0.000 A 
ATOM      5  C   UNL     1      -9.928  53.571  45.802  0.00  0.00    +0.000 A 
ATOM      6  C   UNL     1      -8.227  52.182  44.466  0.00  0.00    +0.000 C 
ATOM      7  C   UNL     1     -11.107  52.877  45.183  0.00  0.00    +0.000 C 
ATOM      8  C   UNL     1      -9.432  51.767  43.566  0.00  0.00    +0.000 C 
ATOM      9  C   UNL     1     -10.699  51.596  44.445  0.00  0.00    +0.000 C 
ATOM     10  C   UNL     1      -9.144  50.423  42.871  0.00  0.00    +0.000 C 
ATOM     11  C   UNL     1      -9.661  52.825  42.467  0.00  0.00    +0.000 C 
ENDROOT
BRANCH   1  15
ATOM     12  N   UNL     1      -7.669  56.016  50.456  0.00  0.00    +0.000 N 
ATOM     13  C   UNL     1      -8.092  55.165  49.449  0.00  0.00    +0.000 C 
ATOM     14  O   UNL     1      -8.246  53.966  49.656  0.00  0.00    +0.000 OA
ATOM     15  N   UNL     1      -8.255  55.766  48.217  0.00  0.00    +0.000 N 
ATOM     16  H   UNL     1      -7.628  56.984  50.283  0.00  0.00    +0.000 HD
ATOM     17  H   UNL     1      -8.058  56.721  48.085  0.00  0.00    +0.000 HD
BRANCH  12  18
ATOM     18  S   UNL     1      -7.223  55.429  51.971  0.00  0.00    +0.000 S 
ATOM     19  O   UNL     1      -7.031  56.566  52.852  0.00  0.00    +0.000 OA
ATOM     20  O   UNL     1      -6.114  54.527  51.711  0.00  0.00    +0.000 OA
BRANCH  18  21
ATOM     21  C   UNL     1      -8.641  54.439  52.502  0.00  0.00    +0.000 A 
ATOM     22  N   UNL     1      -8.340  53.202  52.966  0.00  0.00    +0.000 NA
ATOM     23  N   UNL     1      -9.866  54.992  52.378  0.00  0.00    +0.000 NA
ATOM     24  C   UNL     1      -9.406  52.481  53.357  0.00  0.00    +0.000 A 
ATOM     25  C   UNL     1     -10.883  54.193  52.751  0.00  0.00    +0.000 A 
ATOM     26  C   UNL     1     -10.709  52.924  53.263  0.00  0.00    +0.000 A 
ENDBRANCH  18  21
ENDBRANCH  12  18
ENDBRANCH   1  15
BRANCH   3  27
ATOM     27  C   UNL     1     -11.215  55.381  47.145  0.00  0.00    +0.000 C 
ATOM     28  O   UNL     1     -11.922  55.999  46.356  0.00  0.00    +0.000 OA
BRANCH  27  29
ATOM     29  O   UNL     1     -11.373  55.418  48.499  0.00  0.00    +0.000 OA
BRANCH  29  30
ATOM     30  C   UNL     1     -12.432  54.646  49.075  0.00  0.00    +0.000 C 
ATOM     31  C   UNL     1     -12.013  53.203  49.265  0.00  0.00    +0.000 C 
ENDBRANCH  29  30
ENDBRANCH  27  29
ENDBRANCH   3  27
TORSDOF 6
ENDMDL
MODEL 5
REMARK VINA RESULT:      -6.7      2.272      2.893
REMARK  Name = 
REMARK  9 active torsions:
REMARK  status: ('A' for Active; 'I' for Inactive)
REMARK    1  A    between atoms: S_1  and  N_4
REMARK    2  A    between atoms: S_1  and  C_5
REMARK    3  A    between atoms: N_10  and  C_13
REMARK    4  A    between atoms: C_16  and  C_19
REMARK    5  A    between atoms: C_19  and  O_23
REMARK    6  A    between atoms: O_23  and  C_26
REMARK    7  A    between atoms: C_24  and  C_27
REMARK    8  A    between atoms: C_24  and  C_28
REMARK    9  A    between atoms: C_26  and  C_29
REMARK                            x       y       z     vdW  Elec       q    Type
REMARK                         _______ _______ _______ _____ _____    ______ ____
ROOT
ATOM      1  C   UNL     1      -8.429  55.690  49.948  0.00  0.00    +0.000 A 
ATOM      2  S   UNL     1      -7.902  55.986  51.535  0.00  0.00    +0.000 S 
ATOM      3  C   UNL     1      -7.734  54.670  49.315  0.00  0.00    +0.000 A 
ATOM      4  C   UNL     1      -6.938  54.579  51.526  0.00  0.00    +0.000 A 
ATOM      5  C   UNL     1      -6.939  53.954  50.290  0.00  0.00    +0.000 A 
ATOM      6  C   UNL     1      -6.183  54.102  52.742  0.00  0.00    +0.000 C 
ATOM      7  C   UNL     1      -6.122  52.723  50.025  0.00  0.00    +0.000 C 
ATOM      8  C   UNL     1      -5.063  53.091  52.348  0.00  0.00    +0.000 C 
ATOM      9  C   UNL     1      -5.625  52.071  51.321  0.00  0.00    +0.000 C 
ATOM     10  C   UNL     1      -4.584  52.310  53.587  0.00  0.00    +0.000 C 
ATOM     11  C   UNL     1      -3.848  53.845  51.769  0.00  0.00    +0.000 C 
ENDROOT
BRANCH   1  15
ATOM     12  N   UNL     1     -11.740  56.810  49.111  0.00  0.00    +0.000 N 
ATOM     13  C   UNL     1     -10.746  55.970  49.584  0.00  0.00    +0.000 C 
ATOM     14  O   UNL     1     -11.019  54.876  50.069  0.00  0.00    +0.000 OA
ATOM     15  N   UNL     1      -9.471  56.492  49.519  0.00  0.00    +0.000 N 
ATOM     16  H   UNL     1     -11.489  57.647  48.657  0.00  0.00    +0.000 HD
ATOM     17  H   UNL     1      -9.309  57.402  49.180  0.00  0.00    +0.000 HD
BRANCH  12  18
ATOM     18  S   UNL     1     -13.372  56.429  49.294  0.00  0.00    +0.000 S 
ATOM     19  O   UNL     1     -13.466  55.028  49.657  0.00  0.00    +0.000 OA
ATOM     20  O   UNL     1     -14.005  56.899  48.073  0.00  0.00    +0.000 OA
BRANCH  18  21
ATOM     21  C   UNL     1     -13.927  57.484  50.656  0.00  0.00    +0.000 A 
ATOM     22  N   UNL     1     -13.807  56.940  51.891  0.00  0.00    +0.000 NA
ATOM     23  N   UNL     1     -14.424  58.697  50.339  0.00  0.00    +0.000 NA
ATOM     24  C   UNL     1     -14.222  57.738  52.891  0.00  0.00    +0.000 A 
ATOM     25  C   UNL     1     -14.856  59.419  51.390  0.00  0.00    +0.000 A 
ATOM     26  C   UNL     1     -14.768  58.990  52.698  0.00  0.00    +0.000 A 
ENDBRANCH  18  21
ENDBRANCH  12  18
ENDBRANCH   1  15
BRANCH   3  27
ATOM     27  C   UNL     1      -7.761  54.393  47.868  0.00  0.00    +0.000 C 
ATOM     28  O   UNL     1      -6.817  54.627  47.120  0.00  0.00    +0.000 OA
BRANCH  27  29
ATOM     29  O   UNL     1      -8.999  54.016  47.436  0.00  0.00    +0.000 OA
BRANCH  29  30
ATOM     30  C   UNL     1      -9.498  54.603  46.230  0.00  0.00    +0.000 C 
ATOM     31  C   UNL     1     -11.012  54.594  46.205  0.00  0.00    +0.000 C 
ENDBRANCH  29  30
ENDBRANCH  27  29
ENDBRANCH   3  27
TORSDOF 6
ENDMDL
MODEL 6
REMARK VINA RESULT:      -6.6      2.496      3.218
REMARK  Name = 
REMARK  9 active torsions:
REMARK  status: ('A' for Active; 'I' for Inactive)
REMARK    1  A    between atoms: S_1  and  N_4
REMARK    2  A    between atoms: S_1  and  C_5
REMARK    3  A    between atoms: N_10  and  C_13
REMARK    4  A    between atoms: C_16  and  C_19
REMARK    5  A    between atoms: C_19  and  O_23
REMARK    6  A    between atoms: O_23  and  C_26
REMARK    7  A    between atoms: C_24  and  C_27
REMARK    8  A    between atoms: C_24  and  C_28
REMARK    9  A    between atoms: C_26  and  C_29
REMARK                            x       y       z     vdW  Elec       q    Type
REMARK                         _______ _______ _______ _____ _____    ______ ____
ROOT
ATOM      1  C   UNL     1      -9.991  54.904  50.687  0.00  0.00    +0.000 A 
ATOM      2  S   UNL     1      -9.813  54.999  52.374  0.00  0.00    +0.000 S 
ATOM      3  C   UNL     1      -9.617  53.676  50.159  0.00  0.00    +0.000 A 
ATOM      4  C   UNL     1      -9.512  53.324  52.482  0.00  0.00    +0.000 A 
ATOM      5  C   UNL     1      -9.444  52.724  51.235  0.00  0.00    +0.000 A 
ATOM      6  C   UNL     1      -9.343  52.612  53.801  0.00  0.00    +0.000 C 
ATOM      7  C   UNL     1      -9.139  51.263  51.075  0.00  0.00    +0.000 C 
ATOM      8  C   UNL     1      -8.649  51.227  53.608  0.00  0.00    +0.000 C 
ATOM      9  C   UNL     1      -9.286  50.496  52.395  0.00  0.00    +0.000 C 
ATOM     10  C   UNL     1      -8.849  50.349  54.857  0.00  0.00    +0.000 C 
ATOM     11  C   UNL     1      -7.132  51.418  53.404  0.00  0.00    +0.000 C 
ENDROOT
BRANCH   1  15
ATOM     12  N   UNL     1     -12.277  57.267  49.235  0.00  0.00    +0.000 N 
ATOM     13  C   UNL     1     -11.848  56.113  49.868  0.00  0.00    +0.000 C 
ATOM     14  O   UNL     1     -12.648  55.261  50.242  0.00  0.00    +0.000 OA
ATOM     15  N   UNL     1     -10.488  56.047  50.086  0.00  0.00    +0.000 N 
ATOM     16  H   UNL     1     -11.611  57.897  48.876  0.00  0.00    +0.000 HD
ATOM     17  H   UNL     1      -9.892  56.785  49.824  0.00  0.00    +0.000 HD
BRANCH  12  18
ATOM     18  S   UNL     1     -13.917  57.617  49.064  0.00  0.00    +0.000 S 
ATOM     19  O   UNL     1     -14.554  56.478  48.431  0.00  0.00    +0.000 OA
ATOM     20  O   UNL     1     -13.956  58.915  48.413  0.00  0.00    +0.000 OA
BRANCH  18  21
ATOM     21  C   UNL     1     -14.509  57.822  50.762  0.00  0.00    +0.000 A 
ATOM     22  N   UNL     1     -14.174  58.995  51.352  0.00  0.00    +0.000 NA
ATOM     23  N   UNL     1     -15.207  56.802  51.303  0.00  0.00    +0.000 NA
ATOM     24  C   UNL     1     -14.625  59.131  52.612  0.00  0.00    +0.000 A 
ATOM     25  C   UNL     1     -15.586  56.996  52.580  0.00  0.00    +0.000 A 
ATOM     26  C   UNL     1     -15.330  58.155  53.284  0.00  0.00    +0.000 A 
ENDBRANCH  18  21
ENDBRANCH  12  18
ENDBRANCH   1  15
BRANCH   3  27
ATOM     27  C   UNL     1      -9.381  53.401  48.731  0.00  0.00    +0.000 C 
ATOM     28  O   UNL     1     -10.212  52.869  48.002  0.00  0.00    +0.000 OA
BRANCH  27  29
ATOM     29  O   UNL     1      -8.091  53.645  48.363  0.00  0.00    +0.000 OA
BRANCH  29  30
ATOM     30  C   UNL     1      -7.812  54.852  47.646  0.00  0.00    +0.000 C 
ATOM     31  C   UNL     1      -7.546  54.567  46.182  0.00  0.00    +0.000 C 
ENDBRANCH  29  30
ENDBRANCH  27  29
ENDBRANCH   3  27
TORSDOF 6
ENDMDL
MODEL 7
REMARK VINA RESULT:      -6.5      2.187      3.002
REMARK  Name = 
REMARK  9 active torsions:
REMARK  status: ('A' for Active; 'I' for Inactive)
REMARK    1  A    between atoms: S_1  and  N_4
REMARK    2  A    between atoms: S_1  and  C_5
REMARK    3  A    between atoms: N_10  and  C_13
REMARK    4  A    between atoms: C_16  and  C_19
REMARK    5  A    between atoms: C_19  and  O_23
REMARK    6  A    between atoms: O_23  and  C_26
REMARK    7  A    between atoms: C_24  and  C_27
REMARK    8  A    between atoms: C_24  and  C_28
REMARK    9  A    between atoms: C_26  and  C_29
REMARK                            x       y       z     vdW  Elec       q    Type
REMARK                         _______ _______ _______ _____ _____    ______ ____
ROOT
ATOM      1  C   UNL     1     -10.337  53.485  51.058  0.00  0.00    +0.000 A 
ATOM      2  S   UNL     1     -10.630  53.200  52.707  0.00  0.00    +0.000 S 
ATOM      3  C   UNL     1      -8.999  53.378  50.707  0.00  0.00    +0.000 A 
ATOM      4  C   UNL     1      -9.036  52.644  52.941  0.00  0.00    +0.000 A 
ATOM      5  C   UNL     1      -8.264  52.776  51.799  0.00  0.00    +0.000 A 
ATOM      6  C   UNL     1      -8.556  52.082  54.256  0.00  0.00    +0.000 C 
ATOM      7  C   UNL     1      -6.811  52.398  51.777  0.00  0.00    +0.000 C 
ATOM      8  C   UNL     1      -6.997  52.075  54.329  0.00  0.00    +0.000 C 
ATOM      9  C   UNL     1      -6.419  51.545  52.990  0.00  0.00    +0.000 C 
ATOM     10  C   UNL     1      -6.517  51.145  55.460  0.00  0.00    +0.000 C 
ATOM     11  C   UNL     1      -6.474  53.494  54.634  0.00  0.00    +0.000 C 
ENDROOT
BRANCH   1  15
ATOM     12  N   UNL     1     -13.034  55.295  49.519  0.00  0.00    +0.000 N 
ATOM     13  C   UNL     1     -11.885  55.082  50.262  0.00  0.00    +0.000 C 
ATOM     14  O   UNL     1     -11.284  56.017  50.781  0.00  0.00    +0.000 OA
ATOM     15  N   UNL     1     -11.462  53.770  50.305  0.00  0.00    +0.000 N 
ATOM     16  H   UNL     1     -13.539  54.522  49.178  0.00  0.00    +0.000 HD
ATOM     17  H   UNL     1     -11.943  53.062  49.818  0.00  0.00    +0.000 HD
BRANCH  12  18
ATOM     18  S   UNL     1     -13.587  56.852  49.185  0.00  0.00    +0.000 S 
ATOM     19  O   UNL     1     -14.637  56.749  48.189  0.00  0.00    +0.000 OA
ATOM     20  O   UNL     1     -12.390  57.619  48.890  0.00  0.00    +0.000 OA
BRANCH  18  21
ATOM     21  C   UNL     1     -14.255  57.436  50.763  0.00  0.00    +0.000 A 
ATOM     22  N   UNL     1     -14.969  56.521  51.461  0.00  0.00    +0.000 NA
ATOM     23  N   UNL     1     -14.010  58.719  51.103  0.00  0.00    +0.000 NA
ATOM     24  C   UNL     1     -15.455  56.972  52.631  0.00  0.00    +0.000 A 
ATOM     25  C   UNL     1     -14.565  59.106  52.266  0.00  0.00    +0.000 A 
ATOM     26  C   UNL     1     -15.292  58.265  53.083  0.00  0.00    +0.000 A 
ENDBRANCH  18  21
ENDBRANCH  12  18
ENDBRANCH   1  15
BRANCH   3  27
ATOM     27  C   UNL     1      -8.411  53.853  49.442  0.00  0.00    +0.000 C 
ATOM     28  O   UNL     1      -8.627  53.321  48.358  0.00  0.00    +0.000 OA
BRANCH  27  29
ATOM     29  O   UNL     1      -7.478  54.828  49.640  0.00  0.00    +0.000 OA
BRANCH  29  30
ATOM     30  C   UNL     1      -7.939  56.161  49.883  0.00  0.00    +0.000 C 
ATOM     31  C   UNL     1      -7.542  56.631  51.267  0.00  0.00    +0.000 C 
ENDBRANCH  29  30
ENDBRANCH  27  29
ENDBRANCH   3  27
TORSDOF 6
ENDMDL
MODEL 8
REMARK VINA RESULT:      -6.4      3.493      7.791
REMARK  Name = 
REMARK  9 active torsions:
REMARK  status: ('A' for Active; 'I' for Inactive)
REMARK    1  A    between atoms: S_1  and  N_4
REMARK    2  A    between atoms: S_1  and  C_5
REMARK    3  A    between atoms: N_10  and  C_13
REMARK    4  A    between atoms: C_16  and  C_19
REMARK    5  A    between atoms: C_19  and  O_23
REMARK    6  A    between atoms: O_23  and  C_26
REMARK    7  A    between atoms: C_24  and  C_27
REMARK    8  A    between atoms: C_24  and  C_28
REMARK    9  A    between atoms: C_26  and  C_29
REMARK                            x       y       z     vdW  Elec       q    Type
REMARK                         _______ _______ _______ _____ _____    ______ ____
ROOT
ATOM      1  C   UNL     1      -9.928  53.554  48.962  0.00  0.00    +0.000 A 
ATOM      2  S   UNL     1      -9.042  52.274  48.280  0.00  0.00    +0.000 S 
ATOM      3  C   UNL     1     -10.622  54.306  48.025  0.00  0.00    +0.000 A 
ATOM      4  C   UNL     1      -9.785  52.506  46.763  0.00  0.00    +0.000 A 
ATOM      5  C   UNL     1     -10.618  53.613  46.754  0.00  0.00    +0.000 A 
ATOM      6  C   UNL     1      -9.539  51.592  45.589  0.00  0.00    +0.000 C 
ATOM      7  C   UNL     1     -11.345  54.047  45.514  0.00  0.00    +0.000 C 
ATOM      8  C   UNL     1      -9.968  52.269  44.250  0.00  0.00    +0.000 C 
ATOM      9  C   UNL     1     -11.348  52.956  44.437  0.00  0.00    +0.000 C 
ATOM     10  C   UNL     1     -10.103  51.215  43.135  0.00  0.00    +0.000 C 
ATOM     11  C   UNL     1      -8.899  53.289  43.805  0.00  0.00    +0.000 C 
ENDROOT
BRANCH   1  15
ATOM     12  N   UNL     1      -8.689  54.333  52.244  0.00  0.00    +0.000 N 
ATOM     13  C   UNL     1      -8.732  54.291  50.861  0.00  0.00    +0.000 C 
ATOM     14  O   UNL     1      -7.866  54.835  50.183  0.00  0.00    +0.000 OA
ATOM     15  N   UNL     1      -9.841  53.657  50.338  0.00  0.00    +0.000 N 
ATOM     16  H   UNL     1      -9.353  53.825  52.763  0.00  0.00    +0.000 HD
ATOM     17  H   UNL     1     -10.543  53.292  50.923  0.00  0.00    +0.000 HD
BRANCH  12  18
ATOM     18  S   UNL     1      -7.523  55.236  53.059  0.00  0.00    +0.000 S 
ATOM     19  O   UNL     1      -7.971  55.414  54.428  0.00  0.00    +0.000 OA
ATOM     20  O   UNL     1      -7.297  56.400  52.220  0.00  0.00    +0.000 OA
BRANCH  18  21
ATOM     21  C   UNL     1      -6.037  54.204  53.000  0.00  0.00    +0.000 A 
ATOM     22  N   UNL     1      -6.042  53.138  53.836  0.00  0.00    +0.000 NA
ATOM     23  N   UNL     1      -5.053  54.582  52.158  0.00  0.00    +0.000 NA
ATOM     24  C   UNL     1      -4.931  52.382  53.777  0.00  0.00    +0.000 A 
ATOM     25  C   UNL     1      -3.958  53.799  52.187  0.00  0.00    +0.000 A 
ATOM     26  C   UNL     1      -3.847  52.671  52.974  0.00  0.00    +0.000 A 
ENDBRANCH  18  21
ENDBRANCH  12  18
ENDBRANCH   1  15
BRANCH   3  27
ATOM     27  C   UNL     1     -11.223  55.628  48.273  0.00  0.00    +0.000 C 
ATOM     28  O   UNL     1     -10.661  56.515  48.908  0.00  0.00    +0.000 OA
BRANCH  27  29
ATOM     29  O   UNL     1     -12.525  55.688  47.871  0.00  0.00    +0.000 OA
BRANCH  29  30
ATOM     30  C   UNL     1     -13.357  56.707  48.436  0.00  0.00    +0.000 C 
ATOM     31  C   UNL     1     -13.967  57.575  47.355  0.00  0.00    +0.000 C 
ENDBRANCH  29  30
ENDBRANCH  27  29
ENDBRANCH   3  27
TORSDOF 6
ENDMDL
MODEL 9
REMARK VINA RESULT:      -6.3      3.967      8.034
REMARK  Name = 
REMARK  9 active torsions:
REMARK  status: ('A' for Active; 'I' for Inactive)
REMARK    1  A    between atoms: S_1  and  N_4
REMARK    2  A    between atoms: S_1  and  C_5
REMARK    3  A    between atoms: N_10  and  C_13
REMARK    4  A    between atoms: C_16  and  C_19
REMARK    5  A    between atoms: C_19  and  O_23
REMARK    6  A    between atoms: O_23  and  C_26
REMARK    7  A    between atoms: C_24  and  C_27
REMARK    8  A    between atoms: C_24  and  C_28
REMARK    9  A    between atoms: C_26  and  C_29
REMARK                            x       y       z     vdW  Elec       q    Type
REMARK                         _______ _______ _______ _____ _____    ______ ____
ROOT
ATOM      1  C   UNL     1      -8.742  54.472  47.283  0.00  0.00    +0.000 A 
ATOM      2  S   UNL     1      -7.536  53.621  46.441  0.00  0.00    +0.000 S 
ATOM      3  C   UNL     1      -9.980  54.441  46.656  0.00  0.00    +0.000 A 
ATOM      4  C   UNL     1      -8.687  52.948  45.379  0.00  0.00    +0.000 A 
ATOM      5  C   UNL     1      -9.958  53.452  45.599  0.00  0.00    +0.000 A 
ATOM      6  C   UNL     1      -8.325  51.926  44.329  0.00  0.00    +0.000 C 
ATOM      7  C   UNL     1     -11.130  53.044  44.753  0.00  0.00    +0.000 C 
ATOM      8  C   UNL     1      -9.435  51.825  43.237  0.00  0.00    +0.000 C 
ATOM      9  C   UNL     1     -10.830  51.792  43.919  0.00  0.00    +0.000 C 
ATOM     10  C   UNL     1      -9.269  50.528  42.423  0.00  0.00    +0.000 C 
ATOM     11  C   UNL     1      -9.326  53.012  42.259  0.00  0.00    +0.000 C 
ENDROOT
BRANCH   1  15
ATOM     12  N   UNL     1      -8.106  55.003  50.780  0.00  0.00    +0.000 N 
ATOM     13  C   UNL     1      -8.512  54.347  49.630  0.00  0.00    +0.000 C 
ATOM     14  O   UNL     1      -8.945  53.199  49.675  0.00  0.00    +0.000 OA
ATOM     15  N   UNL     1      -8.328  55.060  48.464  0.00  0.00    +0.000 N 
ATOM     16  H   UNL     1      -7.835  55.947  50.726  0.00  0.00    +0.000 HD
ATOM     17  H   UNL     1      -7.916  55.954  48.472  0.00  0.00    +0.000 HD
BRANCH  12  18
ATOM     18  S   UNL     1      -8.065  54.218  52.271  0.00  0.00    +0.000 S 
ATOM     19  O   UNL     1      -8.377  52.819  52.048  0.00  0.00    +0.000 OA
ATOM     20  O   UNL     1      -8.918  55.015  53.136  0.00  0.00    +0.000 OA
BRANCH  18  21
ATOM     21  C   UNL     1      -6.356  54.413  52.832  0.00  0.00    +0.000 A 
ATOM     22  N   UNL     1      -6.213  54.907  54.085  0.00  0.00    +0.000 NA
ATOM     23  N   UNL     1      -5.377  54.075  51.967  0.00  0.00    +0.000 NA
ATOM     24  C   UNL     1      -4.936  55.042  54.486  0.00  0.00    +0.000 A 
ATOM     25  C   UNL     1      -4.128  54.279  52.426  0.00  0.00    +0.000 A 
ATOM     26  C   UNL     1      -3.847  54.753  53.691  0.00  0.00    +0.000 A 
ENDBRANCH  18  21
ENDBRANCH  12  18
ENDBRANCH   1  15
BRANCH   3  27
ATOM     27  C   UNL     1     -11.120  55.316  46.982  0.00  0.00    +0.000 C 
ATOM     28  O   UNL     1     -12.093  55.456  46.248  0.00  0.00    +0.000 OA
BRANCH  27  29
ATOM     29  O   UNL     1     -10.889  56.073  48.093  0.00  0.00    +0.000 OA
BRANCH  29  30
ATOM     30  C   UNL     1     -12.003  56.388  48.934  0.00  0.00    +0.000 C 
ATOM     31  C   UNL     1     -11.894  55.683  50.271  0.00  0.00    +0.000 C 
ENDBRANCH  29  30
ENDBRANCH  27  29
ENDBRANCH   3  27
TORSDOF 6
ENDMDL
