MODEL 1
REMARK VINA RESULT:      -7.7      0.000      0.000
REMARK  Name = 
REMARK  9 active torsions:
REMARK  status: ('A' for Active; 'I' for Inactive)
REMARK    1  A    between atoms: S_1  and  N_4
REMARK    2  A    between atoms: S_1  and  N_5
REMARK    3  A    between atoms: N_12  and  C_14
REMARK    4  A    between atoms: C_16  and  C_19
REMARK    5  A    between atoms: C_19  and  O_23
REMARK    6  A    between atoms: O_23  and  C_26
REMARK    7  A    between atoms: C_24  and  C_27
REMARK    8  A    between atoms: C_24  and  C_28
REMARK    9  A    between atoms: C_26  and  C_29
REMARK                            x       y       z     vdW  Elec       q    Type
REMARK                         _______ _______ _______ _____ _____    ______ ____
ROOT
ATOM      1  C   UNL     1     -10.997  54.311  51.671  0.00  0.00    +0.000 A 
ATOM      2  S   UNL     1     -10.495  53.689  53.174  0.00  0.00    +0.000 S 
ATOM      3  C   UNL     1      -9.949  54.793  50.909  0.00  0.00    +0.000 A 
ATOM      4  C   UNL     1      -8.843  53.876  52.768  0.00  0.00    +0.000 A 
ATOM      5  C   UNL     1      -8.681  54.461  51.524  0.00  0.00    +0.000 A 
ATOM      6  C   UNL     1      -7.707  53.468  53.686  0.00  0.00    +0.000 C 
ATOM      7  C   UNL     1      -7.323  54.789  50.973  0.00  0.00    +0.000 C 
ATOM      8  C   UNL     1      -6.378  54.194  53.289  0.00  0.00    +0.000 C 
ATOM      9  C   UNL     1      -6.193  54.120  51.753  0.00  0.00    +0.000 C 
ATOM     10  C   UNL     1      -5.150  53.518  53.929  0.00  0.00    +0.000 C 
ATOM     11  C   UNL     1      -6.408  55.660  53.770  0.00  0.00    +0.000 C 
ENDROOT
BRANCH   1  15
ATOM     12  N   UNL     1     -14.466  55.224  51.285  0.00  0.00    +0.000 N 
ATOM     13  C   UNL     1     -13.127  55.360  51.654  0.00  0.00    +0.000 C 
ATOM     14  O   UNL     1     -12.664  56.404  52.092  0.00  0.00    +0.000 OA
ATOM     15  N   UNL     1     -12.358  54.236  51.392  0.00  0.00    +0.000 N 
ATOM     16  H   UNL     1     -14.783  54.363  50.928  0.00  0.00    +0.000 HD
ATOM     17  H   UNL     1     -12.759  53.416  51.024  0.00  0.00    +0.000 HD
BRANCH  12  18
ATOM     18  S   UNL     1     -15.548  56.493  51.435  0.00  0.00    +0.000 S 
ATOM     19  O   UNL     1     -16.715  56.117  50.679  0.00  0.00    +0.000 OA
ATOM     20  O   UNL     1     -15.657  56.853  52.828  0.00  0.00    +0.000 OA
BRANCH  18  21
ATOM     21  N   UNL     1     -14.713  57.696  50.570  0.00  0.00    +0.000 NA
ATOM     22  C   UNL     1     -14.655  57.486  49.100  0.00  0.00    +0.000 C 
ATOM     23  C   UNL     1     -15.008  59.090  50.987  0.00  0.00    +0.000 C 
ATOM     24  C   UNL     1     -13.706  58.481  48.438  0.00  0.00    +0.000 C 
ATOM     25  C   UNL     1     -14.061  60.078  50.310  0.00  0.00    +0.000 C 
ATOM     26  C   UNL     1     -14.072  59.914  48.796  0.00  0.00    +0.000 C 
ENDBRANCH  18  21
ENDBRANCH  12  18
ENDBRANCH   1  15
BRANCH   3  27
ATOM     27  C   UNL     1     -10.146  55.551  49.675  0.00  0.00    +0.000 C 
ATOM     28  O   UNL     1      -9.871  56.741  49.563  0.00  0.00    +0.000 OA
BRANCH  27  29
ATOM     29  O   UNL     1     -10.658  54.780  48.678  0.00  0.00    +0.000 OA
BRANCH  29  30
ATOM     30  C   UNL     1     -11.868  55.227  48.065  0.00  0.00    +0.000 C 
ATOM     31  C   UNL     1     -11.606  55.612  46.623  0.00  0.00    +0.000 C 
ENDBRANCH  29  30
ENDBRANCH  27  29
ENDBRANCH   3  27
TORSDOF 6
ENDMDL
MODEL 2
REMARK VINA RESULT:      -7.2      2.845      7.640
REMARK  Name = 
REMARK  9 active torsions:
REMARK  status: ('A' for Active; 'I' for Inactive)
REMARK    1  A    between atoms: S_1  and  N_4
REMARK    2  A    between atoms: S_1  and  N_5
REMARK    3  A    between atoms: N_12  and  C_14
REMARK    4  A    between atoms: C_16  and  C_19
REMARK    5  A    between atoms: C_19  and  O_23
REMARK    6  A    between atoms: O_23  and  C_26
REMARK    7  A    between atoms: C_24  and  C_27
REMARK    8  A    between atoms: C_24  and  C_28
REMARK    9  A    between atoms: C_26  and  C_29
REMARK                            x       y       z     vdW  Elec       q    Type
REMARK                         _______ _______ _______ _____ _____    ______ ____
ROOT
ATOM      1  C   UNL     1     -11.190  54.727  50.069  0.00  0.00    +0.000 A 
ATOM      2  S   UNL     1     -11.815  54.777  51.651  0.00  0.00    +0.000 S 
ATOM      3  C   UNL     1     -11.750  55.678  49.236  0.00  0.00    +0.000 A 
ATOM      4  C   UNL     1     -12.717  56.192  51.315  0.00  0.00    +0.000 A 
ATOM      5  C   UNL     1     -12.586  56.585  49.994  0.00  0.00    +0.000 A 
ATOM      6  C   UNL     1     -13.573  56.901  52.346  0.00  0.00    +0.000 C 
ATOM      7  C   UNL     1     -13.334  57.764  49.440  0.00  0.00    +0.000 C 
ATOM      8  C   UNL     1     -14.635  57.822  51.657  0.00  0.00    +0.000 C 
ATOM      9  C   UNL     1     -13.951  58.637  50.531  0.00  0.00    +0.000 C 
ATOM     10  C   UNL     1     -15.237  58.835  52.650  0.00  0.00    +0.000 C 
ATOM     11  C   UNL     1     -15.794  56.972  51.096  0.00  0.00    +0.000 C 
ENDROOT
BRANCH   1  15
ATOM     12  N   UNL     1      -7.982  53.079  49.956  0.00  0.00    +0.000 N 
ATOM     13  C   UNL     1      -8.901  54.107  50.176  0.00  0.00    +0.000 C 
ATOM     14  O   UNL     1      -8.594  55.167  50.706  0.00  0.00    +0.000 OA
ATOM     15  N   UNL     1     -10.201  53.780  49.822  0.00  0.00    +0.000 N 
ATOM     16  H   UNL     1      -8.287  52.243  49.535  0.00  0.00    +0.000 HD
ATOM     17  H   UNL     1     -10.417  52.911  49.412  0.00  0.00    +0.000 HD
BRANCH  12  18
ATOM     18  S   UNL     1      -6.374  53.235  50.394  0.00  0.00    +0.000 S 
ATOM     19  O   UNL     1      -5.784  51.931  50.225  0.00  0.00    +0.000 OA
ATOM     20  O   UNL     1      -5.817  54.386  49.728  0.00  0.00    +0.000 OA
BRANCH  18  21
ATOM     21  N   UNL     1      -6.550  53.532  52.059  0.00  0.00    +0.000 NA
ATOM     22  C   UNL     1      -6.655  52.316  52.907  0.00  0.00    +0.000 C 
ATOM     23  C   UNL     1      -5.667  54.595  52.604  0.00  0.00    +0.000 C 
ATOM     24  C   UNL     1      -7.033  52.676  54.342  0.00  0.00    +0.000 C 
ATOM     25  C   UNL     1      -6.046  54.938  54.044  0.00  0.00    +0.000 C 
ATOM     26  C   UNL     1      -6.068  53.697  54.926  0.00  0.00    +0.000 C 
ENDBRANCH  18  21
ENDBRANCH  12  18
ENDBRANCH   1  15
BRANCH   3  27
ATOM     27  C   UNL     1     -11.523  55.705  47.793  0.00  0.00    +0.000 C 
ATOM     28  O   UNL     1     -12.430  55.737  46.967  0.00  0.00    +0.000 OA
BRANCH  27  29
ATOM     29  O   UNL     1     -10.199  55.697  47.484  0.00  0.00    +0.000 OA
BRANCH  29  30
ATOM     30  C   UNL     1      -9.775  54.803  46.452  0.00  0.00    +0.000 C 
ATOM     31  C   UNL     1      -8.280  54.927  46.243  0.00  0.00    +0.000 C 
ENDBRANCH  29  30
ENDBRANCH  27  29
ENDBRANCH   3  27
TORSDOF 6
ENDMDL
MODEL 3
REMARK VINA RESULT:      -6.9      4.109      7.625
REMARK  Name = 
REMARK  9 active torsions:
REMARK  status: ('A' for Active; 'I' for Inactive)
REMARK    1  A    between atoms: S_1  and  N_4
REMARK    2  A    between atoms: S_1  and  N_5
REMARK    3  A    between atoms: N_12  and  C_14
REMARK    4  A    between atoms: C_16  and  C_19
REMARK    5  A    between atoms: C_19  and  O_23
REMARK    6  A    between atoms: O_23  and  C_26
REMARK    7  A    between atoms: C_24  and  C_27
REMARK    8  A    between atoms: C_24  and  C_28
REMARK    9  A    between atoms: C_26  and  C_29
REMARK                            x       y       z     vdW  Elec       q    Type
REMARK                         _______ _______ _______ _____ _____    ______ ____
ROOT
ATOM      1  C   UNL     1      -8.671  54.852  47.139  0.00  0.00    +0.000 A 
ATOM      2  S   UNL     1      -7.463  54.037  46.260  0.00  0.00    +0.000 S 
ATOM      3  C   UNL     1      -9.947  54.586  46.679  0.00  0.00    +0.000 A 
ATOM      4  C   UNL     1      -8.625  53.160  45.360  0.00  0.00    +0.000 A 
ATOM      5  C   UNL     1      -9.918  53.531  45.688  0.00  0.00    +0.000 A 
ATOM      6  C   UNL     1      -8.262  52.124  44.313  0.00  0.00    +0.000 C 
ATOM      7  C   UNL     1     -11.111  52.948  44.987  0.00  0.00    +0.000 C 
ATOM      8  C   UNL     1      -9.459  51.870  43.337  0.00  0.00    +0.000 C 
ATOM      9  C   UNL     1     -10.764  51.713  44.158  0.00  0.00    +0.000 C 
ATOM     10  C   UNL     1      -9.268  50.570  42.533  0.00  0.00    +0.000 C 
ATOM     11  C   UNL     1      -9.579  53.031  42.328  0.00  0.00    +0.000 C 
ENDROOT
BRANCH   1  15
ATOM     12  N   UNL     1      -7.523  55.869  50.405  0.00  0.00    +0.000 N 
ATOM     13  C   UNL     1      -8.015  55.017  49.415  0.00  0.00    +0.000 C 
ATOM     14  O   UNL     1      -8.159  53.814  49.588  0.00  0.00    +0.000 OA
ATOM     15  N   UNL     1      -8.239  55.643  48.199  0.00  0.00    +0.000 N 
ATOM     16  H   UNL     1      -7.418  56.827  50.207  0.00  0.00    +0.000 HD
ATOM     17  H   UNL     1      -8.098  56.612  48.088  0.00  0.00    +0.000 HD
BRANCH  12  18
ATOM     18  S   UNL     1      -7.104  55.296  51.921  0.00  0.00    +0.000 S 
ATOM     19  O   UNL     1      -5.936  54.473  51.731  0.00  0.00    +0.000 OA
ATOM     20  O   UNL     1      -7.082  56.401  52.849  0.00  0.00    +0.000 OA
BRANCH  18  21
ATOM     21  N   UNL     1      -8.432  54.280  52.230  0.00  0.00    +0.000 NA
ATOM     22  C   UNL     1      -8.116  53.050  53.001  0.00  0.00    +0.000 C 
ATOM     23  C   UNL     1      -9.671  54.979  52.656  0.00  0.00    +0.000 C 
ATOM     24  C   UNL     1      -9.309  52.099  53.035  0.00  0.00    +0.000 C 
ATOM     25  C   UNL     1     -10.856  54.016  52.699  0.00  0.00    +0.000 C 
ATOM     26  C   UNL     1     -10.556  52.798  53.561  0.00  0.00    +0.000 C 
ENDBRANCH  18  21
ENDBRANCH  12  18
ENDBRANCH   1  15
BRANCH   3  27
ATOM     27  C   UNL     1     -11.127  55.314  47.139  0.00  0.00    +0.000 C 
ATOM     28  O   UNL     1     -11.843  55.977  46.396  0.00  0.00    +0.000 OA
BRANCH  27  29
ATOM     29  O   UNL     1     -11.333  55.162  48.475  0.00  0.00    +0.000 OA
BRANCH  29  30
ATOM     30  C   UNL     1     -12.391  54.290  48.876  0.00  0.00    +0.000 C 
ATOM     31  C   UNL     1     -11.828  52.940  49.268  0.00  0.00    +0.000 C 
ENDBRANCH  29  30
ENDBRANCH  27  29
ENDBRANCH   3  27
TORSDOF 6
ENDMDL
MODEL 4
REMARK VINA RESULT:      -6.8      1.940      2.346
REMARK  Name = 
REMARK  9 active torsions:
REMARK  status: ('A' for Active; 'I' for Inactive)
REMARK    1  A    between atoms: S_1  and  N_4
REMARK    2  A    between atoms: S_1  and  N_5
REMARK    3  A    between atoms: N_12  and  C_14
REMARK    4  A    between atoms: C_16  and  C_19
REMARK    5  A    between atoms: C_19  and  O_23
REMARK    6  A    between atoms: O_23  and  C_26
REMARK    7  A    between atoms: C_24  and  C_27
REMARK    8  A    between atoms: C_24  and  C_28
REMARK    9  A    between atoms: C_26  and  C_29
REMARK                            x       y       z     vdW  Elec       q    Type
REMARK                         _______ _______ _______ _____ _____    ______ ____
ROOT
ATOM      1  C   UNL     1     -11.398  53.296  50.843  0.00  0.00    +0.000 A 
ATOM      2  S   UNL     1     -10.509  52.733  52.180  0.00  0.00    +0.000 S 
ATOM      3  C   UNL     1     -10.699  53.206  49.653  0.00  0.00    +0.000 A 
ATOM      4  C   UNL     1      -9.236  52.181  51.178  0.00  0.00    +0.000 A 
ATOM      5  C   UNL     1      -9.463  52.477  49.845  0.00  0.00    +0.000 A 
ATOM      6  C   UNL     1      -8.001  51.477  51.709  0.00  0.00    +0.000 C 
ATOM      7  C   UNL     1      -8.458  52.152  48.778  0.00  0.00    +0.000 C 
ATOM      8  C   UNL     1      -6.829  51.544  50.674  0.00  0.00    +0.000 C 
ATOM      9  C   UNL     1      -7.370  51.196  49.264  0.00  0.00    +0.000 C 
ATOM     10  C   UNL     1      -5.723  50.523  51.003  0.00  0.00    +0.000 C 
ATOM     11  C   UNL     1      -6.188  52.948  50.685  0.00  0.00    +0.000 C 
ENDROOT
BRANCH   1  15
ATOM     12  N   UNL     1     -14.170  55.419  51.752  0.00  0.00    +0.000 N 
ATOM     13  C   UNL     1     -12.840  55.031  51.583  0.00  0.00    +0.000 C 
ATOM     14  O   UNL     1     -11.899  55.791  51.770  0.00  0.00    +0.000 OA
ATOM     15  N   UNL     1     -12.691  53.740  51.100  0.00  0.00    +0.000 N 
ATOM     16  H   UNL     1     -14.888  54.768  51.577  0.00  0.00    +0.000 HD
ATOM     17  H   UNL     1     -13.471  53.159  50.945  0.00  0.00    +0.000 HD
BRANCH  12  18
ATOM     18  S   UNL     1     -14.573  56.968  52.243  0.00  0.00    +0.000 S 
ATOM     19  O   UNL     1     -16.009  56.992  52.356  0.00  0.00    +0.000 OA
ATOM     20  O   UNL     1     -13.741  57.335  53.363  0.00  0.00    +0.000 OA
BRANCH  18  21
ATOM     21  N   UNL     1     -14.129  57.843  50.854  0.00  0.00    +0.000 NA
ATOM     22  C   UNL     1     -14.535  57.225  49.566  0.00  0.00    +0.000 C 
ATOM     23  C   UNL     1     -14.351  59.309  50.937  0.00  0.00    +0.000 C 
ATOM     24  C   UNL     1     -13.905  57.953  48.382  0.00  0.00    +0.000 C 
ATOM     25  C   UNL     1     -13.728  60.027  49.742  0.00  0.00    +0.000 C 
ATOM     26  C   UNL     1     -14.216  59.443  48.423  0.00  0.00    +0.000 C 
ENDBRANCH  18  21
ENDBRANCH  12  18
ENDBRANCH   1  15
BRANCH   3  27
ATOM     27  C   UNL     1     -11.171  53.805  48.406  0.00  0.00    +0.000 C 
ATOM     28  O   UNL     1     -11.954  53.248  47.644  0.00  0.00    +0.000 OA
BRANCH  27  29
ATOM     29  O   UNL     1     -10.644  55.042  48.203  0.00  0.00    +0.000 OA
BRANCH  29  30
ATOM     30  C   UNL     1     -10.334  55.405  46.856  0.00  0.00    +0.000 C 
ATOM     31  C   UNL     1      -8.856  55.206  46.594  0.00  0.00    +0.000 C 
ENDBRANCH  29  30
ENDBRANCH  27  29
ENDBRANCH   3  27
TORSDOF 6
ENDMDL
MODEL 5
REMARK VINA RESULT:      -6.8      3.723      6.033
REMARK  Name = 
REMARK  9 active torsions:
REMARK  status: ('A' for Active; 'I' for Inactive)
REMARK    1  A    between atoms: S_1  and  N_4
REMARK    2  A    between atoms: S_1  and  N_5
REMARK    3  A    between atoms: N_12  and  C_14
REMARK    4  A    between atoms: C_16  and  C_19
REMARK    5  A    between atoms: C_19  and  O_23
REMARK    6  A    between atoms: O_23  and  C_26
REMARK    7  A    between atoms: C_24  and  C_27
REMARK    8  A    between atoms: C_24  and  C_28
REMARK    9  A    between atoms: C_26  and  C_29
REMARK                            x       y       z     vdW  Elec       q    Type
REMARK                         _______ _______ _______ _____ _____    ______ ____
ROOT
ATOM      1  C   UNL     1     -10.570  54.514  46.757  0.00  0.00    +0.000 A 
ATOM      2  S   UNL     1     -11.649  53.850  45.621  0.00  0.00    +0.000 S 
ATOM      3  C   UNL     1      -9.306  53.958  46.691  0.00  0.00    +0.000 A 
ATOM      4  C   UNL     1     -10.405  52.934  44.885  0.00  0.00    +0.000 A 
ATOM      5  C   UNL     1      -9.194  53.090  45.538  0.00  0.00    +0.000 A 
ATOM      6  C   UNL     1     -10.627  52.042  43.678  0.00  0.00    +0.000 C 
ATOM      7  C   UNL     1      -7.965  52.336  45.119  0.00  0.00    +0.000 C 
ATOM      8  C   UNL     1      -9.483  50.982  43.546  0.00  0.00    +0.000 C 
ATOM      9  C   UNL     1      -8.114  51.679  43.749  0.00  0.00    +0.000 C 
ATOM     10  C   UNL     1      -9.464  50.340  42.146  0.00  0.00    +0.000 C 
ATOM     11  C   UNL     1      -9.683  49.851  44.576  0.00  0.00    +0.000 C 
ENDROOT
BRANCH   1  15
ATOM     12  N   UNL     1     -12.119  56.218  49.535  0.00  0.00    +0.000 N 
ATOM     13  C   UNL     1     -11.704  55.144  48.746  0.00  0.00    +0.000 C 
ATOM     14  O   UNL     1     -11.820  53.978  49.100  0.00  0.00    +0.000 OA
ATOM     15  N   UNL     1     -11.072  55.524  47.572  0.00  0.00    +0.000 N 
ATOM     16  H   UNL     1     -11.992  57.137  49.204  0.00  0.00    +0.000 HD
ATOM     17  H   UNL     1     -10.981  56.473  47.323  0.00  0.00    +0.000 HD
BRANCH  12  18
ATOM     18  S   UNL     1     -12.826  55.980  51.033  0.00  0.00    +0.000 S 
ATOM     19  O   UNL     1     -13.869  55.006  50.834  0.00  0.00    +0.000 OA
ATOM     20  O   UNL     1     -11.788  55.757  52.010  0.00  0.00    +0.000 OA
BRANCH  18  21
ATOM     21  N   UNL     1     -13.549  57.502  51.263  0.00  0.00    +0.000 NA
ATOM     22  C   UNL     1     -13.857  58.246  50.015  0.00  0.00    +0.000 C 
ATOM     23  C   UNL     1     -14.622  57.539  52.289  0.00  0.00    +0.000 C 
ATOM     24  C   UNL     1     -14.290  59.678  50.319  0.00  0.00    +0.000 C 
ATOM     25  C   UNL     1     -15.057  58.974  52.577  0.00  0.00    +0.000 C 
ATOM     26  C   UNL     1     -15.453  59.704  51.302  0.00  0.00    +0.000 C 
ENDBRANCH  18  21
ENDBRANCH  12  18
ENDBRANCH   1  15
BRANCH   3  27
ATOM     27  C   UNL     1      -8.269  54.219  47.687  0.00  0.00    +0.000 C 
ATOM     28  O   UNL     1      -7.251  54.861  47.449  0.00  0.00    +0.000 OA
BRANCH  27  29
ATOM     29  O   UNL     1      -8.572  53.675  48.895  0.00  0.00    +0.000 OA
BRANCH  29  30
ATOM     30  C   UNL     1      -8.034  52.383  49.182  0.00  0.00    +0.000 C 
ATOM     31  C   UNL     1      -7.435  52.370  50.573  0.00  0.00    +0.000 C 
ENDBRANCH  29  30
ENDBRANCH  27  29
ENDBRANCH   3  27
TORSDOF 6
ENDMDL
MODEL 6
REMARK VINA RESULT:      -6.7      3.871      6.028
REMARK  Name = 
REMARK  9 active torsions:
REMARK  status: ('A' for Active; 'I' for Inactive)
REMARK    1  A    between atoms: S_1  and  N_4
REMARK    2  A    between atoms: S_1  and  N_5
REMARK    3  A    between atoms: N_12  and  C_14
REMARK    4  A    between atoms: C_16  and  C_19
REMARK    5  A    between atoms: C_19  and  O_23
REMARK    6  A    between atoms: O_23  and  C_26
REMARK    7  A    between atoms: C_24  and  C_27
REMARK    8  A    between atoms: C_24  and  C_28
REMARK    9  A    between atoms: C_26  and  C_29
REMARK                            x       y       z     vdW  Elec       q    Type
REMARK                         _______ _______ _______ _____ _____    ______ ____
ROOT
ATOM      1  C   UNL     1     -10.420  54.111  47.401  0.00  0.00    +0.000 A 
ATOM      2  S   UNL     1      -9.603  54.665  46.014  0.00  0.00    +0.000 S 
ATOM      3  C   UNL     1     -10.553  52.735  47.435  0.00  0.00    +0.000 A 
ATOM      4  C   UNL     1      -9.242  53.068  45.515  0.00  0.00    +0.000 A 
ATOM      5  C   UNL     1      -9.790  52.125  46.367  0.00  0.00    +0.000 A 
ATOM      6  C   UNL     1      -8.439  52.745  44.270  0.00  0.00    +0.000 C 
ATOM      7  C   UNL     1      -9.666  50.652  46.103  0.00  0.00    +0.000 C 
ATOM      8  C   UNL     1      -8.693  51.271  43.805  0.00  0.00    +0.000 C 
ATOM      9  C   UNL     1      -8.625  50.329  45.034  0.00  0.00    +0.000 C 
ATOM     10  C   UNL     1      -7.618  50.798  42.808  0.00  0.00    +0.000 C 
ATOM     11  C   UNL     1     -10.062  51.163  43.103  0.00  0.00    +0.000 C 
ENDROOT
BRANCH   1  15
ATOM     12  N   UNL     1     -12.385  56.622  49.087  0.00  0.00    +0.000 N 
ATOM     13  C   UNL     1     -12.031  55.712  48.090  0.00  0.00    +0.000 C 
ATOM     14  O   UNL     1     -12.764  55.443  47.148  0.00  0.00    +0.000 OA
ATOM     15  N   UNL     1     -10.818  55.080  48.315  0.00  0.00    +0.000 N 
ATOM     16  H   UNL     1     -11.760  56.793  49.829  0.00  0.00    +0.000 HD
ATOM     17  H   UNL     1     -10.258  55.309  49.093  0.00  0.00    +0.000 HD
BRANCH  12  18
ATOM     18  S   UNL     1     -13.852  57.430  49.053  0.00  0.00    +0.000 S 
ATOM     19  O   UNL     1     -13.633  58.627  48.282  0.00  0.00    +0.000 OA
ATOM     20  O   UNL     1     -14.890  56.498  48.686  0.00  0.00    +0.000 OA
BRANCH  18  21
ATOM     21  N   UNL     1     -13.988  57.864  50.691  0.00  0.00    +0.000 NA
ATOM     22  C   UNL     1     -15.124  58.766  51.010  0.00  0.00    +0.000 C 
ATOM     23  C   UNL     1     -13.789  56.751  51.655  0.00  0.00    +0.000 C 
ATOM     24  C   UNL     1     -15.036  59.279  52.444  0.00  0.00    +0.000 C 
ATOM     25  C   UNL     1     -13.715  57.274  53.088  0.00  0.00    +0.000 C 
ATOM     26  C   UNL     1     -14.926  58.128  53.435  0.00  0.00    +0.000 C 
ENDBRANCH  18  21
ENDBRANCH  12  18
ENDBRANCH   1  15
BRANCH   3  27
ATOM     27  C   UNL     1     -11.384  52.041  48.417  0.00  0.00    +0.000 C 
ATOM     28  O   UNL     1     -12.462  51.523  48.144  0.00  0.00    +0.000 OA
BRANCH  27  29
ATOM     29  O   UNL     1     -10.817  52.035  49.653  0.00  0.00    +0.000 OA
BRANCH  29  30
ATOM     30  C   UNL     1     -11.701  51.983  50.775  0.00  0.00    +0.000 C 
ATOM     31  C   UNL     1     -12.110  53.384  51.177  0.00  0.00    +0.000 C 
ENDBRANCH  29  30
ENDBRANCH  27  29
ENDBRANCH   3  27
TORSDOF 6
ENDMDL
MODEL 7
REMARK VINA RESULT:      -6.6      3.213      8.346
REMARK  Name = 
REMARK  9 active torsions:
REMARK  status: ('A' for Active; 'I' for Inactive)
REMARK    1  A    between atoms: S_1  and  N_4
REMARK    2  A    between atoms: S_1  and  N_5
REMARK    3  A    between atoms: N_12  and  C_14
REMARK    4  A    between atoms: C_16  and  C_19
REMARK    5  A    between atoms: C_19  and  O_23
REMARK    6  A    between atoms: O_23  and  C_26
REMARK    7  A    between atoms: C_24  and  C_27
REMARK    8  A    between atoms: C_24  and  C_28
REMARK    9  A    between atoms: C_26  and  C_29
REMARK                            x       y       z     vdW  Elec       q    Type
REMARK                         _______ _______ _______ _____ _____    ______ ____
ROOT
ATOM      1  C   UNL     1     -10.689  54.622  50.512  0.00  0.00    +0.000 A 
ATOM      2  S   UNL     1     -11.482  55.092  51.943  0.00  0.00    +0.000 S 
ATOM      3  C   UNL     1     -11.265  55.157  49.375  0.00  0.00    +0.000 A 
ATOM      4  C   UNL     1     -12.502  56.173  51.094  0.00  0.00    +0.000 A 
ATOM      5  C   UNL     1     -12.277  56.129  49.729  0.00  0.00    +0.000 A 
ATOM      6  C   UNL     1     -13.541  57.046  51.772  0.00  0.00    +0.000 C 
ATOM      7  C   UNL     1     -13.095  56.941  48.765  0.00  0.00    +0.000 C 
ATOM      8  C   UNL     1     -14.623  57.526  50.748  0.00  0.00    +0.000 C 
ATOM      9  C   UNL     1     -13.923  58.021  49.458  0.00  0.00    +0.000 C 
ATOM     10  C   UNL     1     -15.443  58.707  51.303  0.00  0.00    +0.000 C 
ATOM     11  C   UNL     1     -15.608  56.380  50.436  0.00  0.00    +0.000 C 
ENDROOT
BRANCH   1  15
ATOM     12  N   UNL     1      -7.296  53.525  51.065  0.00  0.00    +0.000 N 
ATOM     13  C   UNL     1      -8.349  54.419  50.860  0.00  0.00    +0.000 C 
ATOM     14  O   UNL     1      -8.211  55.633  50.930  0.00  0.00    +0.000 OA
ATOM     15  N   UNL     1      -9.575  53.802  50.661  0.00  0.00    +0.000 N 
ATOM     16  H   UNL     1      -7.467  52.558  51.006  0.00  0.00    +0.000 HD
ATOM     17  H   UNL     1      -9.655  52.821  50.626  0.00  0.00    +0.000 HD
BRANCH  12  18
ATOM     18  S   UNL     1      -5.749  54.063  51.409  0.00  0.00    +0.000 S 
ATOM     19  O   UNL     1      -5.308  54.790  50.246  0.00  0.00    +0.000 OA
ATOM     20  O   UNL     1      -5.749  54.686  52.710  0.00  0.00    +0.000 OA
BRANCH  18  21
ATOM     21  N   UNL     1      -4.924  52.576  51.457  0.00  0.00    +0.000 NA
ATOM     22  C   UNL     1      -4.954  51.883  52.771  0.00  0.00    +0.000 C 
ATOM     23  C   UNL     1      -5.152  51.694  50.284  0.00  0.00    +0.000 C 
ATOM     24  C   UNL     1      -4.010  50.684  52.783  0.00  0.00    +0.000 C 
ATOM     25  C   UNL     1      -4.211  50.491  50.312  0.00  0.00    +0.000 C 
ATOM     26  C   UNL     1      -4.310  49.735  51.631  0.00  0.00    +0.000 C 
ENDBRANCH  18  21
ENDBRANCH  12  18
ENDBRANCH   1  15
BRANCH   3  27
ATOM     27  C   UNL     1     -10.889  54.746  48.024  0.00  0.00    +0.000 C 
ATOM     28  O   UNL     1     -11.310  53.727  47.486  0.00  0.00    +0.000 OA
BRANCH  27  29
ATOM     29  O   UNL     1     -10.030  55.626  47.442  0.00  0.00    +0.000 OA
BRANCH  29  30
ATOM     30  C   UNL     1      -8.660  55.232  47.345  0.00  0.00    +0.000 C 
ATOM     31  C   UNL     1      -8.315  54.909  45.906  0.00  0.00    +0.000 C 
ENDBRANCH  29  30
ENDBRANCH  27  29
ENDBRANCH   3  27
TORSDOF 6
ENDMDL
MODEL 8
REMARK VINA RESULT:      -6.5      2.157      3.020
REMARK  Name = 
REMARK  9 active torsions:
REMARK  status: ('A' for Active; 'I' for Inactive)
REMARK    1  A    between atoms: S_1  and  N_4
REMARK    2  A    between atoms: S_1  and  N_5
REMARK    3  A    between atoms: N_12  and  C_14
REMARK    4  A    between atoms: C_16  and  C_19
REMARK    5  A    between atoms: C_19  and  O_23
REMARK    6  A    between atoms: O_23  and  C_26
REMARK    7  A    between atoms: C_24  and  C_27
REMARK    8  A    between atoms: C_24  and  C_28
REMARK    9  A    between atoms: C_26  and  C_29
REMARK                            x       y       z     vdW  Elec       q    Type
REMARK                         _______ _______ _______ _____ _____    ______ ____
ROOT
ATOM      1  C   UNL     1     -10.479  53.426  51.034  0.00  0.00    +0.000 A 
ATOM      2  S   UNL     1     -10.745  53.091  52.682  0.00  0.00    +0.000 S 
ATOM      3  C   UNL     1      -9.153  53.298  50.664  0.00  0.00    +0.000 A 
ATOM      4  C   UNL     1      -9.125  52.585  52.903  0.00  0.00    +0.000 A 
ATOM      5  C   UNL     1      -8.378  52.727  51.745  0.00  0.00    +0.000 A 
ATOM      6  C   UNL     1      -8.584  52.071  54.223  0.00  0.00    +0.000 C 
ATOM      7  C   UNL     1      -6.911  52.411  51.706  0.00  0.00    +0.000 C 
ATOM      8  C   UNL     1      -7.022  52.165  54.263  0.00  0.00    +0.000 C 
ATOM      9  C   UNL     1      -6.443  51.627  52.930  0.00  0.00    +0.000 C 
ATOM     10  C   UNL     1      -6.432  51.304  55.396  0.00  0.00    +0.000 C 
ATOM     11  C   UNL     1      -6.581  53.623  54.506  0.00  0.00    +0.000 C 
ENDROOT
BRANCH   1  15
ATOM     12  N   UNL     1     -13.051  55.337  49.375  0.00  0.00    +0.000 N 
ATOM     13  C   UNL     1     -11.956  55.090  50.205  0.00  0.00    +0.000 C 
ATOM     14  O   UNL     1     -11.322  55.984  50.750  0.00  0.00    +0.000 OA
ATOM     15  N   UNL     1     -11.601  53.751  50.279  0.00  0.00    +0.000 N 
ATOM     16  H   UNL     1     -13.517  54.579  48.954  0.00  0.00    +0.000 HD
ATOM     17  H   UNL     1     -12.123  53.057  49.814  0.00  0.00    +0.000 HD
BRANCH  12  18
ATOM     18  S   UNL     1     -13.589  56.894  49.079  0.00  0.00    +0.000 S 
ATOM     19  O   UNL     1     -12.426  57.655  48.699  0.00  0.00    +0.000 OA
ATOM     20  O   UNL     1     -14.743  56.834  48.215  0.00  0.00    +0.000 OA
BRANCH  18  21
ATOM     21  N   UNL     1     -14.041  57.354  50.652  0.00  0.00    +0.000 NA
ATOM     22  C   UNL     1     -14.007  58.816  50.913  0.00  0.00    +0.000 C 
ATOM     23  C   UNL     1     -15.235  56.654  51.193  0.00  0.00    +0.000 C 
ATOM     24  C   UNL     1     -14.206  59.116  52.397  0.00  0.00    +0.000 C 
ATOM     25  C   UNL     1     -15.432  56.971  52.674  0.00  0.00    +0.000 C 
ATOM     26  C   UNL     1     -15.482  58.472  52.922  0.00  0.00    +0.000 C 
ENDBRANCH  18  21
ENDBRANCH  12  18
ENDBRANCH   1  15
BRANCH   3  27
ATOM     27  C   UNL     1      -8.647  53.722  49.360  0.00  0.00    +0.000 C 
ATOM     28  O   UNL     1      -9.034  53.244  48.299  0.00  0.00    +0.000 OA
BRANCH  27  29
ATOM     29  O   UNL     1      -7.711  54.702  49.469  0.00  0.00    +0.000 OA
BRANCH  29  30
ATOM     30  C   UNL     1      -8.184  56.046  49.581  0.00  0.00    +0.000 C 
ATOM     31  C   UNL     1      -7.664  56.673  50.858  0.00  0.00    +0.000 C 
ENDBRANCH  29  30
ENDBRANCH  27  29
ENDBRANCH   3  27
TORSDOF 6
ENDMDL
MODEL 9
REMARK VINA RESULT:      -6.5      2.844      4.411
REMARK  Name = 
REMARK  9 active torsions:
REMARK  status: ('A' for Active; 'I' for Inactive)
REMARK    1  A    between atoms: S_1  and  N_4
REMARK    2  A    between atoms: S_1  and  N_5
REMARK    3  A    between atoms: N_12  and  C_14
REMARK    4  A    between atoms: C_16  and  C_19
REMARK    5  A    between atoms: C_19  and  O_23
REMARK    6  A    between atoms: O_23  and  C_26
REMARK    7  A    between atoms: C_24  and  C_27
REMARK    8  A    between atoms: C_24  and  C_28
REMARK    9  A    between atoms: C_26  and  C_29
REMARK                            x       y       z     vdW  Elec       q    Type
REMARK                         _______ _______ _______ _____ _____    ______ ____
ROOT
ATOM      1  C   UNL     1      -8.249  54.277  50.523  0.00  0.00    +0.000 A 
ATOM      2  S   UNL     1      -7.558  53.595  49.126  0.00  0.00    +0.000 S 
ATOM      3  C   UNL     1      -7.836  53.658  51.688  0.00  0.00    +0.000 A 
ATOM      4  C   UNL     1      -6.543  52.575  50.053  0.00  0.00    +0.000 A 
ATOM      5  C   UNL     1      -6.775  52.714  51.411  0.00  0.00    +0.000 A 
ATOM      6  C   UNL     1      -5.536  51.620  49.441  0.00  0.00    +0.000 C 
ATOM      7  C   UNL     1      -6.052  51.877  52.427  0.00  0.00    +0.000 C 
ATOM      8  C   UNL     1      -5.136  50.500  50.459  0.00  0.00    +0.000 C 
ATOM      9  C   UNL     1      -4.850  51.142  51.839  0.00  0.00    +0.000 C 
ATOM     10  C   UNL     1      -3.851  49.770  50.021  0.00  0.00    +0.000 C 
ATOM     11  C   UNL     1      -6.259  49.448  50.562  0.00  0.00    +0.000 C 
ENDROOT
BRANCH   1  15
ATOM     12  N   UNL     1     -11.201  56.224  49.803  0.00  0.00    +0.000 N 
ATOM     13  C   UNL     1     -10.395  55.089  49.911  0.00  0.00    +0.000 C 
ATOM     14  O   UNL     1     -10.819  53.956  49.730  0.00  0.00    +0.000 OA
ATOM     15  N   UNL     1      -9.101  55.360  50.328  0.00  0.00    +0.000 N 
ATOM     16  H   UNL     1     -10.809  57.111  49.970  0.00  0.00    +0.000 HD
ATOM     17  H   UNL     1      -8.795  56.284  50.481  0.00  0.00    +0.000 HD
BRANCH  12  18
ATOM     18  S   UNL     1     -12.821  56.110  49.398  0.00  0.00    +0.000 S 
ATOM     19  O   UNL     1     -12.880  56.174  47.959  0.00  0.00    +0.000 OA
ATOM     20  O   UNL     1     -13.404  54.999  50.109  0.00  0.00    +0.000 OA
BRANCH  18  21
ATOM     21  N   UNL     1     -13.387  57.586  50.024  0.00  0.00    +0.000 NA
ATOM     22  C   UNL     1     -13.844  58.566  49.006  0.00  0.00    +0.000 C 
ATOM     23  C   UNL     1     -14.270  57.467  51.212  0.00  0.00    +0.000 C 
ATOM     24  C   UNL     1     -14.118  59.929  49.637  0.00  0.00    +0.000 C 
ATOM     25  C   UNL     1     -14.548  58.836  51.829  0.00  0.00    +0.000 C 
ATOM     26  C   UNL     1     -15.097  59.812  50.797  0.00  0.00    +0.000 C 
ENDBRANCH  18  21
ENDBRANCH  12  18
ENDBRANCH   1  15
BRANCH   3  27
ATOM     27  C   UNL     1      -8.438  53.932  52.992  0.00  0.00    +0.000 C 
ATOM     28  O   UNL     1      -9.074  53.100  53.629  0.00  0.00    +0.000 OA
BRANCH  27  29
ATOM     29  O   UNL     1      -8.201  55.206  53.406  0.00  0.00    +0.000 OA
BRANCH  29  30
ATOM     30  C   UNL     1      -6.849  55.553  53.708  0.00  0.00    +0.000 C 
ATOM     31  C   UNL     1      -6.330  54.680  54.833  0.00  0.00    +0.000 C 
ENDBRANCH  29  30
ENDBRANCH  27  29
ENDBRANCH   3  27
TORSDOF 6
ENDMDL
