MODEL 1
REMARK VINA RESULT:      -7.8      0.000      0.000
REMARK  Name = 
REMARK  9 active torsions:
REMARK  status: ('A' for Active; 'I' for Inactive)
REMARK    1  A    between atoms: S_1  and  N_4
REMARK    2  A    between atoms: S_1  and  N_5
REMARK    3  A    between atoms: N_12  and  C_13
REMARK    4  A    between atoms: C_15  and  C_18
REMARK    5  A    between atoms: C_18  and  O_22
REMARK    6  A    between atoms: O_22  and  C_25
REMARK    7  A    between atoms: C_23  and  C_26
REMARK    8  A    between atoms: C_23  and  C_27
REMARK    9  A    between atoms: C_25  and  C_28
REMARK                            x       y       z     vdW  Elec       q    Type
REMARK                         _______ _______ _______ _____ _____    ______ ____
ROOT
ATOM      1  C   UNL     1     -11.272  53.720  48.244  0.00  0.00    +0.000 A 
ATOM      2  S   UNL     1     -11.805  52.606  47.067  0.00  0.00    +0.000 S 
ATOM      3  C   UNL     1      -9.987  54.176  48.016  0.00  0.00    +0.000 A 
ATOM      4  C   UNL     1     -10.466  52.945  46.065  0.00  0.00    +0.000 A 
ATOM      5  C   UNL     1      -9.570  53.806  46.673  0.00  0.00    +0.000 A 
ATOM      6  C   UNL     1     -10.314  52.372  44.674  0.00  0.00    +0.000 C 
ATOM      7  C   UNL     1      -8.303  54.233  45.984  0.00  0.00    +0.000 C 
ATOM      8  C   UNL     1      -8.845  52.506  44.164  0.00  0.00    +0.000 C 
ATOM      9  C   UNL     1      -8.314  53.924  44.488  0.00  0.00    +0.000 C 
ATOM     10  C   UNL     1      -8.779  52.321  42.636  0.00  0.00    +0.000 C 
ATOM     11  C   UNL     1      -7.956  51.424  44.811  0.00  0.00    +0.000 C 
ENDROOT
BRANCH   1  15
ATOM     12  N   UNL     1     -13.895  55.323  50.126  0.00  0.00    +0.000 N 
ATOM     13  C   UNL     1     -12.971  55.146  49.080  0.00  0.00    +0.000 C 
ATOM     14  O   UNL     1     -12.929  55.885  48.106  0.00  0.00    +0.000 OA
ATOM     15  N   UNL     1     -12.193  54.013  49.236  0.00  0.00    +0.000 N 
ATOM     16  H   UNL     1     -13.943  54.677  50.867  0.00  0.00    +0.000 HD
ATOM     17  H   UNL     1     -12.290  53.433  50.026  0.00  0.00    +0.000 HD
BRANCH  12  18
ATOM     18  S   UNL     1     -14.908  56.649  50.084  0.00  0.00    +0.000 S 
ATOM     19  O   UNL     1     -14.784  57.252  48.779  0.00  0.00    +0.000 OA
ATOM     20  O   UNL     1     -16.186  56.341  50.692  0.00  0.00    +0.000 OA
BRANCH  18  21
ATOM     21  N   UNL     1     -14.081  57.663  51.176  0.00  0.00    +0.000 NA
ATOM     22  C   UNL     1     -13.919  57.151  52.561  0.00  0.00    +0.000 C 
ATOM     23  C   UNL     1     -14.688  59.029  51.293  0.00  0.00    +0.000 C 
ATOM     24  C   UNL     1     -15.010  57.830  53.367  0.00  0.00    +0.000 C 
ATOM     25  C   UNL     1     -15.115  59.206  52.746  0.00  0.00    +0.000 C 
ENDBRANCH  18  21
ENDBRANCH  12  18
ENDBRANCH   1  15
BRANCH   3  26
ATOM     26  C   UNL     1      -9.195  54.944  48.993  0.00  0.00    +0.000 C 
ATOM     27  O   UNL     1      -8.587  55.973  48.722  0.00  0.00    +0.000 OA
BRANCH  26  28
ATOM     28  O   UNL     1      -9.279  54.414  50.242  0.00  0.00    +0.000 OA
BRANCH  28  29
ATOM     29  C   UNL     1      -9.308  55.308  51.356  0.00  0.00    +0.000 C 
ATOM     30  C   UNL     1     -10.557  55.074  52.181  0.00  0.00    +0.000 C 
ENDBRANCH  28  29
ENDBRANCH  26  28
ENDBRANCH   3  26
TORSDOF 6
ENDMDL
MODEL 2
REMARK VINA RESULT:      -7.7      3.116      8.345
REMARK  Name = 
REMARK  9 active torsions:
REMARK  status: ('A' for Active; 'I' for Inactive)
REMARK    1  A    between atoms: S_1  and  N_4
REMARK    2  A    between atoms: S_1  and  N_5
REMARK    3  A    between atoms: N_12  and  C_13
REMARK    4  A    between atoms: C_15  and  C_18
REMARK    5  A    between atoms: C_18  and  O_22
REMARK    6  A    between atoms: O_22  and  C_25
REMARK    7  A    between atoms: C_23  and  C_26
REMARK    8  A    between atoms: C_23  and  C_27
REMARK    9  A    between atoms: C_25  and  C_28
REMARK                            x       y       z     vdW  Elec       q    Type
REMARK                         _______ _______ _______ _____ _____    ______ ____
ROOT
ATOM      1  C   UNL     1     -11.062  55.032  50.328  0.00  0.00    +0.000 A 
ATOM      2  S   UNL     1     -11.668  55.063  51.923  0.00  0.00    +0.000 S 
ATOM      3  C   UNL     1     -11.800  55.806  49.452  0.00  0.00    +0.000 A 
ATOM      4  C   UNL     1     -12.730  56.345  51.549  0.00  0.00    +0.000 A 
ATOM      5  C   UNL     1     -12.703  56.663  50.203  0.00  0.00    +0.000 A 
ATOM      6  C   UNL     1     -13.572  57.045  52.592  0.00  0.00    +0.000 C 
ATOM      7  C   UNL     1     -13.573  57.753  49.639  0.00  0.00    +0.000 C 
ATOM      8  C   UNL     1     -14.722  57.868  51.931  0.00  0.00    +0.000 C 
ATOM      9  C   UNL     1     -14.162  58.656  50.721  0.00  0.00    +0.000 C 
ATOM     10  C   UNL     1     -15.301  58.891  52.925  0.00  0.00    +0.000 C 
ATOM     11  C   UNL     1     -15.867  56.930  51.495  0.00  0.00    +0.000 C 
ENDROOT
BRANCH   1  15
ATOM     12  N   UNL     1      -7.622  53.962  50.203  0.00  0.00    +0.000 N 
ATOM     13  C   UNL     1      -8.698  54.849  50.383  0.00  0.00    +0.000 C 
ATOM     14  O   UNL     1      -8.548  55.996  50.781  0.00  0.00    +0.000 OA
ATOM     15  N   UNL     1      -9.927  54.258  50.145  0.00  0.00    +0.000 N 
ATOM     16  H   UNL     1      -7.781  53.027  49.937  0.00  0.00    +0.000 HD
ATOM     17  H   UNL     1      -9.993  53.320  49.856  0.00  0.00    +0.000 HD
BRANCH  12  18
ATOM     18  S   UNL     1      -6.070  54.525  50.450  0.00  0.00    +0.000 S 
ATOM     19  O   UNL     1      -5.896  55.700  49.631  0.00  0.00    +0.000 OA
ATOM     20  O   UNL     1      -5.726  54.487  51.856  0.00  0.00    +0.000 OA
BRANCH  18  21
ATOM     21  N   UNL     1      -5.197  53.269  49.700  0.00  0.00    +0.000 NA
ATOM     22  C   UNL     1      -4.383  53.645  48.515  0.00  0.00    +0.000 C 
ATOM     23  C   UNL     1      -6.058  52.116  49.280  0.00  0.00    +0.000 C 
ATOM     24  C   UNL     1      -5.221  53.248  47.314  0.00  0.00    +0.000 C 
ATOM     25  C   UNL     1      -5.926  51.987  47.767  0.00  0.00    +0.000 C 
ENDBRANCH  18  21
ENDBRANCH  12  18
ENDBRANCH   1  15
BRANCH   3  26
ATOM     26  C   UNL     1     -11.652  55.768  47.987  0.00  0.00    +0.000 C 
ATOM     27  O   UNL     1     -12.595  55.791  47.205  0.00  0.00    +0.000 OA
BRANCH  26  28
ATOM     28  O   UNL     1     -10.346  55.775  47.608  0.00  0.00    +0.000 OA
BRANCH  28  29
ATOM     29  C   UNL     1      -9.940  54.890  46.563  0.00  0.00    +0.000 C 
ATOM     30  C   UNL     1      -8.448  55.008  46.329  0.00  0.00    +0.000 C 
ENDBRANCH  28  29
ENDBRANCH  26  28
ENDBRANCH   3  26
TORSDOF 6
ENDMDL
MODEL 3
REMARK VINA RESULT:      -7.6      3.489      8.351
REMARK  Name = 
REMARK  9 active torsions:
REMARK  status: ('A' for Active; 'I' for Inactive)
REMARK    1  A    between atoms: S_1  and  N_4
REMARK    2  A    between atoms: S_1  and  N_5
REMARK    3  A    between atoms: N_12  and  C_13
REMARK    4  A    between atoms: C_15  and  C_18
REMARK    5  A    between atoms: C_18  and  O_22
REMARK    6  A    between atoms: O_22  and  C_25
REMARK    7  A    between atoms: C_23  and  C_26
REMARK    8  A    between atoms: C_23  and  C_27
REMARK    9  A    between atoms: C_25  and  C_28
REMARK                            x       y       z     vdW  Elec       q    Type
REMARK                         _______ _______ _______ _____ _____    ______ ____
ROOT
ATOM      1  C   UNL     1     -11.020  55.031  50.334  0.00  0.00    +0.000 A 
ATOM      2  S   UNL     1     -11.638  55.065  51.923  0.00  0.00    +0.000 S 
ATOM      3  C   UNL     1     -11.756  55.797  49.449  0.00  0.00    +0.000 A 
ATOM      4  C   UNL     1     -12.705  56.340  51.536  0.00  0.00    +0.000 A 
ATOM      5  C   UNL     1     -12.670  56.652  50.189  0.00  0.00    +0.000 A 
ATOM      6  C   UNL     1     -13.560  57.039  52.569  0.00  0.00    +0.000 C 
ATOM      7  C   UNL     1     -13.542  57.734  49.613  0.00  0.00    +0.000 C 
ATOM      8  C   UNL     1     -14.710  57.852  51.896  0.00  0.00    +0.000 C 
ATOM      9  C   UNL     1     -14.145  58.638  50.687  0.00  0.00    +0.000 C 
ATOM     10  C   UNL     1     -15.303  58.876  52.881  0.00  0.00    +0.000 C 
ATOM     11  C   UNL     1     -15.845  56.905  51.454  0.00  0.00    +0.000 C 
ENDROOT
BRANCH   1  15
ATOM     12  N   UNL     1      -7.578  53.960  50.298  0.00  0.00    +0.000 N 
ATOM     13  C   UNL     1      -8.661  54.842  50.473  0.00  0.00    +0.000 C 
ATOM     14  O   UNL     1      -8.526  55.970  50.925  0.00  0.00    +0.000 OA
ATOM     15  N   UNL     1      -9.879  54.264  50.163  0.00  0.00    +0.000 N 
ATOM     16  H   UNL     1      -7.727  53.038  49.987  0.00  0.00    +0.000 HD
ATOM     17  H   UNL     1      -9.934  53.338  49.832  0.00  0.00    +0.000 HD
BRANCH  12  18
ATOM     18  S   UNL     1      -6.037  54.510  50.629  0.00  0.00    +0.000 S 
ATOM     19  O   UNL     1      -5.690  55.475  49.614  0.00  0.00    +0.000 OA
ATOM     20  O   UNL     1      -5.874  54.762  52.047  0.00  0.00    +0.000 OA
BRANCH  18  21
ATOM     21  N   UNL     1      -5.158  53.092  50.283  0.00  0.00    +0.000 NA
ATOM     22  C   UNL     1      -5.907  51.812  50.367  0.00  0.00    +0.000 C 
ATOM     23  C   UNL     1      -3.935  52.929  51.134  0.00  0.00    +0.000 C 
ATOM     24  C   UNL     1      -5.552  51.230  51.722  0.00  0.00    +0.000 C 
ATOM     25  C   UNL     1      -4.106  51.634  51.921  0.00  0.00    +0.000 C 
ENDBRANCH  18  21
ENDBRANCH  12  18
ENDBRANCH   1  15
BRANCH   3  26
ATOM     26  C   UNL     1     -11.596  55.754  47.985  0.00  0.00    +0.000 C 
ATOM     27  O   UNL     1     -12.533  55.782  47.195  0.00  0.00    +0.000 OA
BRANCH  26  28
ATOM     28  O   UNL     1     -10.287  55.749  47.617  0.00  0.00    +0.000 OA
BRANCH  28  29
ATOM     29  C   UNL     1      -9.883  54.869  46.568  0.00  0.00    +0.000 C 
ATOM     30  C   UNL     1      -8.389  54.979  46.340  0.00  0.00    +0.000 C 
ENDBRANCH  28  29
ENDBRANCH  26  28
ENDBRANCH   3  26
TORSDOF 6
ENDMDL
MODEL 4
REMARK VINA RESULT:      -7.6      1.746      2.295
REMARK  Name = 
REMARK  9 active torsions:
REMARK  status: ('A' for Active; 'I' for Inactive)
REMARK    1  A    between atoms: S_1  and  N_4
REMARK    2  A    between atoms: S_1  and  N_5
REMARK    3  A    between atoms: N_12  and  C_13
REMARK    4  A    between atoms: C_15  and  C_18
REMARK    5  A    between atoms: C_18  and  O_22
REMARK    6  A    between atoms: O_22  and  C_25
REMARK    7  A    between atoms: C_23  and  C_26
REMARK    8  A    between atoms: C_23  and  C_27
REMARK    9  A    between atoms: C_25  and  C_28
REMARK                            x       y       z     vdW  Elec       q    Type
REMARK                         _______ _______ _______ _____ _____    ______ ____
ROOT
ATOM      1  C   UNL     1     -11.204  53.682  47.459  0.00  0.00    +0.000 A 
ATOM      2  S   UNL     1     -12.042  52.496  46.565  0.00  0.00    +0.000 S 
ATOM      3  C   UNL     1      -9.882  53.815  47.079  0.00  0.00    +0.000 A 
ATOM      4  C   UNL     1     -10.758  52.355  45.450  0.00  0.00    +0.000 A 
ATOM      5  C   UNL     1      -9.664  53.116  45.823  0.00  0.00    +0.000 A 
ATOM      6  C   UNL     1     -10.842  51.507  44.201  0.00  0.00    +0.000 C 
ATOM      7  C   UNL     1      -8.405  53.134  44.999  0.00  0.00    +0.000 C 
ATOM      8  C   UNL     1      -9.426  51.237  43.603  0.00  0.00    +0.000 C 
ATOM      9  C   UNL     1      -8.609  52.552  43.601  0.00  0.00    +0.000 C 
ATOM     10  C   UNL     1      -9.533  50.753  42.145  0.00  0.00    +0.000 C 
ATOM     11  C   UNL     1      -8.704  50.141  44.416  0.00  0.00    +0.000 C 
ENDROOT
BRANCH   1  15
ATOM     12  N   UNL     1     -13.218  56.163  49.129  0.00  0.00    +0.000 N 
ATOM     13  C   UNL     1     -12.433  55.606  48.103  0.00  0.00    +0.000 C 
ATOM     14  O   UNL     1     -12.260  56.163  47.027  0.00  0.00    +0.000 OA
ATOM     15  N   UNL     1     -11.961  54.342  48.414  0.00  0.00    +0.000 N 
ATOM     16  H   UNL     1     -13.386  55.663  49.960  0.00  0.00    +0.000 HD
ATOM     17  H   UNL     1     -12.157  53.926  49.284  0.00  0.00    +0.000 HD
BRANCH  12  18
ATOM     18  S   UNL     1     -13.860  57.687  48.906  0.00  0.00    +0.000 S 
ATOM     19  O   UNL     1     -12.884  58.645  49.367  0.00  0.00    +0.000 OA
ATOM     20  O   UNL     1     -14.515  57.788  47.617  0.00  0.00    +0.000 OA
BRANCH  18  21
ATOM     21  N   UNL     1     -15.096  57.641  50.078  0.00  0.00    +0.000 NA
ATOM     22  C   UNL     1     -15.117  58.755  51.061  0.00  0.00    +0.000 C 
ATOM     23  C   UNL     1     -15.114  56.369  50.871  0.00  0.00    +0.000 C 
ATOM     24  C   UNL     1     -14.455  58.199  52.307  0.00  0.00    +0.000 C 
ATOM     25  C   UNL     1     -14.888  56.748  52.330  0.00  0.00    +0.000 C 
ENDBRANCH  18  21
ENDBRANCH  12  18
ENDBRANCH   1  15
BRANCH   3  26
ATOM     26  C   UNL     1      -8.875  54.578  47.837  0.00  0.00    +0.000 C 
ATOM     27  O   UNL     1      -8.982  55.768  48.107  0.00  0.00    +0.000 OA
BRANCH  26  28
ATOM     28  O   UNL     1      -7.851  53.789  48.258  0.00  0.00    +0.000 OA
BRANCH  28  29
ATOM     29  C   UNL     1      -6.541  54.356  48.320  0.00  0.00    +0.000 C 
ATOM     30  C   UNL     1      -5.593  53.578  47.432  0.00  0.00    +0.000 C 
ENDBRANCH  28  29
ENDBRANCH  26  28
ENDBRANCH   3  26
TORSDOF 6
ENDMDL
MODEL 5
REMARK VINA RESULT:      -7.5      2.827      4.637
REMARK  Name = 
REMARK  9 active torsions:
REMARK  status: ('A' for Active; 'I' for Inactive)
REMARK    1  A    between atoms: S_1  and  N_4
REMARK    2  A    between atoms: S_1  and  N_5
REMARK    3  A    between atoms: N_12  and  C_13
REMARK    4  A    between atoms: C_15  and  C_18
REMARK    5  A    between atoms: C_18  and  O_22
REMARK    6  A    between atoms: O_22  and  C_25
REMARK    7  A    between atoms: C_23  and  C_26
REMARK    8  A    between atoms: C_23  and  C_27
REMARK    9  A    between atoms: C_25  and  C_28
REMARK                            x       y       z     vdW  Elec       q    Type
REMARK                         _______ _______ _______ _____ _____    ______ ____
ROOT
ATOM      1  C   UNL     1      -9.912  54.708  50.762  0.00  0.00    +0.000 A 
ATOM      2  S   UNL     1      -8.726  55.605  51.598  0.00  0.00    +0.000 S 
ATOM      3  C   UNL     1      -9.381  53.678  50.008  0.00  0.00    +0.000 A 
ATOM      4  C   UNL     1      -7.520  54.456  51.226  0.00  0.00    +0.000 A 
ATOM      5  C   UNL     1      -7.992  53.468  50.381  0.00  0.00    +0.000 A 
ATOM      6  C   UNL     1      -6.117  54.527  51.785  0.00  0.00    +0.000 C 
ATOM      7  C   UNL     1      -7.099  52.355  49.903  0.00  0.00    +0.000 C 
ATOM      8  C   UNL     1      -5.139  53.619  50.976  0.00  0.00    +0.000 C 
ATOM      9  C   UNL     1      -5.808  52.247  50.713  0.00  0.00    +0.000 C 
ATOM     10  C   UNL     1      -3.847  53.362  51.773  0.00  0.00    +0.000 C 
ATOM     11  C   UNL     1      -4.750  54.305  49.649  0.00  0.00    +0.000 C 
ENDROOT
BRANCH   1  15
ATOM     12  N   UNL     1     -13.064  56.419  50.402  0.00  0.00    +0.000 N 
ATOM     13  C   UNL     1     -11.721  56.103  50.127  0.00  0.00    +0.000 C 
ATOM     14  O   UNL     1     -11.105  56.596  49.193  0.00  0.00    +0.000 OA
ATOM     15  N   UNL     1     -11.218  55.124  50.966  0.00  0.00    +0.000 N 
ATOM     16  H   UNL     1     -13.550  55.961  51.124  0.00  0.00    +0.000 HD
ATOM     17  H   UNL     1     -11.768  54.736  51.684  0.00  0.00    +0.000 HD
BRANCH  12  18
ATOM     18  S   UNL     1     -13.817  57.586  49.475  0.00  0.00    +0.000 S 
ATOM     19  O   UNL     1     -12.968  58.753  49.468  0.00  0.00    +0.000 OA
ATOM     20  O   UNL     1     -14.372  57.007  48.269  0.00  0.00    +0.000 OA
BRANCH  18  21
ATOM     21  N   UNL     1     -15.134  57.942  50.495  0.00  0.00    +0.000 NA
ATOM     22  C   UNL     1     -15.080  59.240  51.217  0.00  0.00    +0.000 C 
ATOM     23  C   UNL     1     -15.385  56.888  51.530  0.00  0.00    +0.000 C 
ATOM     24  C   UNL     1     -14.596  58.900  52.614  0.00  0.00    +0.000 C 
ATOM     25  C   UNL     1     -15.223  57.550  52.894  0.00  0.00    +0.000 C 
ENDBRANCH  18  21
ENDBRANCH  12  18
ENDBRANCH   1  15
BRANCH   3  26
ATOM     26  C   UNL     1     -10.140  52.909  49.006  0.00  0.00    +0.000 C 
ATOM     27  O   UNL     1     -11.150  52.263  49.262  0.00  0.00    +0.000 OA
BRANCH  26  28
ATOM     28  O   UNL     1      -9.627  53.058  47.756  0.00  0.00    +0.000 OA
BRANCH  28  29
ATOM     29  C   UNL     1     -10.080  54.159  46.966  0.00  0.00    +0.000 C 
ATOM     30  C   UNL     1      -8.907  55.025  46.555  0.00  0.00    +0.000 C 
ENDBRANCH  28  29
ENDBRANCH  26  28
ENDBRANCH   3  26
TORSDOF 6
ENDMDL
MODEL 6
REMARK VINA RESULT:      -7.5      2.894      5.434
REMARK  Name = 
REMARK  9 active torsions:
REMARK  status: ('A' for Active; 'I' for Inactive)
REMARK    1  A    between atoms: S_1  and  N_4
REMARK    2  A    between atoms: S_1  and  N_5
REMARK    3  A    between atoms: N_12  and  C_13
REMARK    4  A    between atoms: C_15  and  C_18
REMARK    5  A    between atoms: C_18  and  O_22
REMARK    6  A    between atoms: O_22  and  C_25
REMARK    7  A    between atoms: C_23  and  C_26
REMARK    8  A    between atoms: C_23  and  C_27
REMARK    9  A    between atoms: C_25  and  C_28
REMARK                            x       y       z     vdW  Elec       q    Type
REMARK                         _______ _______ _______ _____ _____    ______ ____
ROOT
ATOM      1  C   UNL     1     -10.839  53.940  51.887  0.00  0.00    +0.000 A 
ATOM      2  S   UNL     1     -10.652  53.023  53.314  0.00  0.00    +0.000 S 
ATOM      3  C   UNL     1      -9.643  54.427  51.395  0.00  0.00    +0.000 A 
ATOM      4  C   UNL     1      -8.955  52.993  53.133  0.00  0.00    +0.000 A 
ATOM      5  C   UNL     1      -8.536  53.768  52.067  0.00  0.00    +0.000 A 
ATOM      6  C   UNL     1      -8.047  52.189  54.035  0.00  0.00    +0.000 C 
ATOM      7  C   UNL     1      -7.077  53.906  51.726  0.00  0.00    +0.000 C 
ATOM      8  C   UNL     1      -6.564  52.661  53.911  0.00  0.00    +0.000 C 
ATOM      9  C   UNL     1      -6.209  52.856  52.417  0.00  0.00    +0.000 C 
ATOM     10  C   UNL     1      -5.605  51.602  54.484  0.00  0.00    +0.000 C 
ATOM     11  C   UNL     1      -6.353  53.970  54.702  0.00  0.00    +0.000 C 
ENDROOT
BRANCH   1  15
ATOM     12  N   UNL     1     -14.124  55.236  51.161  0.00  0.00    +0.000 N 
ATOM     13  C   UNL     1     -12.828  55.219  51.709  0.00  0.00    +0.000 C 
ATOM     14  O   UNL     1     -12.351  56.175  52.305  0.00  0.00    +0.000 OA
ATOM     15  N   UNL     1     -12.141  54.051  51.426  0.00  0.00    +0.000 N 
ATOM     16  H   UNL     1     -14.457  54.473  50.637  0.00  0.00    +0.000 HD
ATOM     17  H   UNL     1     -12.563  53.324  50.914  0.00  0.00    +0.000 HD
BRANCH  12  18
ATOM     18  S   UNL     1     -15.083  56.578  51.417  0.00  0.00    +0.000 S 
ATOM     19  O   UNL     1     -16.136  56.558  50.430  0.00  0.00    +0.000 OA
ATOM     20  O   UNL     1     -15.331  56.773  52.831  0.00  0.00    +0.000 OA
BRANCH  18  21
ATOM     21  N   UNL     1     -13.988  57.794  50.942  0.00  0.00    +0.000 NA
ATOM     22  C   UNL     1     -14.244  59.158  51.473  0.00  0.00    +0.000 C 
ATOM     23  C   UNL     1     -13.860  57.931  49.455  0.00  0.00    +0.000 C 
ATOM     24  C   UNL     1     -14.944  59.899  50.349  0.00  0.00    +0.000 C 
ATOM     25  C   UNL     1     -14.297  59.347  49.096  0.00  0.00    +0.000 C 
ENDBRANCH  18  21
ENDBRANCH  12  18
ENDBRANCH   1  15
BRANCH   3  26
ATOM     26  C   UNL     1      -9.538  55.441  50.330  0.00  0.00    +0.000 C 
ATOM     27  O   UNL     1      -8.966  56.516  50.465  0.00  0.00    +0.000 OA
BRANCH  26  28
ATOM     28  O   UNL     1     -10.089  55.011  49.164  0.00  0.00    +0.000 OA
BRANCH  28  29
ATOM     29  C   UNL     1      -9.291  55.057  47.981  0.00  0.00    +0.000 C 
ATOM     30  C   UNL     1      -8.372  53.854  47.923  0.00  0.00    +0.000 C 
ENDBRANCH  28  29
ENDBRANCH  26  28
ENDBRANCH   3  26
TORSDOF 6
ENDMDL
MODEL 7
REMARK VINA RESULT:      -7.2      3.663      8.369
REMARK  Name = 
REMARK  9 active torsions:
REMARK  status: ('A' for Active; 'I' for Inactive)
REMARK    1  A    between atoms: S_1  and  N_4
REMARK    2  A    between atoms: S_1  and  N_5
REMARK    3  A    between atoms: N_12  and  C_13
REMARK    4  A    between atoms: C_15  and  C_18
REMARK    5  A    between atoms: C_18  and  O_22
REMARK    6  A    between atoms: O_22  and  C_25
REMARK    7  A    between atoms: C_23  and  C_26
REMARK    8  A    between atoms: C_23  and  C_27
REMARK    9  A    between atoms: C_25  and  C_28
REMARK                            x       y       z     vdW  Elec       q    Type
REMARK                         _______ _______ _______ _____ _____    ______ ____
ROOT
ATOM      1  C   UNL     1     -10.768  54.758  50.579  0.00  0.00    +0.000 A 
ATOM      2  S   UNL     1     -11.627  54.873  52.049  0.00  0.00    +0.000 S 
ATOM      3  C   UNL     1     -11.331  55.506  49.562  0.00  0.00    +0.000 A 
ATOM      4  C   UNL     1     -12.578  56.159  51.452  0.00  0.00    +0.000 A 
ATOM      5  C   UNL     1     -12.321  56.414  50.117  0.00  0.00    +0.000 A 
ATOM      6  C   UNL     1     -13.561  56.922  52.310  0.00  0.00    +0.000 C 
ATOM      7  C   UNL     1     -13.056  57.495  49.371  0.00  0.00    +0.000 C 
ATOM      8  C   UNL     1     -14.563  57.737  51.434  0.00  0.00    +0.000 C 
ATOM      9  C   UNL     1     -13.790  58.458  50.303  0.00  0.00    +0.000 C 
ATOM     10  C   UNL     1     -15.270  58.816  52.276  0.00  0.00    +0.000 C 
ATOM     11  C   UNL     1     -15.646  56.804  50.853  0.00  0.00    +0.000 C 
ENDROOT
BRANCH   1  15
ATOM     12  N   UNL     1      -7.370  53.631  51.003  0.00  0.00    +0.000 N 
ATOM     13  C   UNL     1      -8.437  54.547  50.958  0.00  0.00    +0.000 C 
ATOM     14  O   UNL     1      -8.309  55.725  51.262  0.00  0.00    +0.000 OA
ATOM     15  N   UNL     1      -9.641  53.954  50.619  0.00  0.00    +0.000 N 
ATOM     16  H   UNL     1      -7.519  52.678  50.809  0.00  0.00    +0.000 HD
ATOM     17  H   UNL     1      -9.694  52.993  50.414  0.00  0.00    +0.000 HD
BRANCH  12  18
ATOM     18  S   UNL     1      -5.849  54.194  51.396  0.00  0.00    +0.000 S 
ATOM     19  O   UNL     1      -5.313  54.855  50.230  0.00  0.00    +0.000 OA
ATOM     20  O   UNL     1      -5.845  54.793  52.714  0.00  0.00    +0.000 OA
BRANCH  18  21
ATOM     21  N   UNL     1      -5.031  52.705  51.536  0.00  0.00    +0.000 NA
ATOM     22  C   UNL     1      -3.911  52.474  50.587  0.00  0.00    +0.000 C 
ATOM     23  C   UNL     1      -5.938  51.517  51.425  0.00  0.00    +0.000 C 
ATOM     24  C   UNL     1      -4.493  51.603  49.490  0.00  0.00    +0.000 C 
ATOM     25  C   UNL     1      -5.474  50.709  50.219  0.00  0.00    +0.000 C 
ENDBRANCH  18  21
ENDBRANCH  12  18
ENDBRANCH   1  15
BRANCH   3  26
ATOM     26  C   UNL     1     -10.944  55.399  48.144  0.00  0.00    +0.000 C 
ATOM     27  O   UNL     1      -9.829  55.673  47.718  0.00  0.00    +0.000 OA
BRANCH  26  28
ATOM     28  O   UNL     1     -11.950  54.893  47.381  0.00  0.00    +0.000 OA
BRANCH  28  29
ATOM     29  C   UNL     1     -11.757  53.618  46.766  0.00  0.00    +0.000 C 
ATOM     30  C   UNL     1     -11.547  53.784  45.275  0.00  0.00    +0.000 C 
ENDBRANCH  28  29
ENDBRANCH  26  28
ENDBRANCH   3  26
TORSDOF 6
ENDMDL
MODEL 8
REMARK VINA RESULT:      -7.2      2.873      8.221
REMARK  Name = 
REMARK  9 active torsions:
REMARK  status: ('A' for Active; 'I' for Inactive)
REMARK    1  A    between atoms: S_1  and  N_4
REMARK    2  A    between atoms: S_1  and  N_5
REMARK    3  A    between atoms: N_12  and  C_13
REMARK    4  A    between atoms: C_15  and  C_18
REMARK    5  A    between atoms: C_18  and  O_22
REMARK    6  A    between atoms: O_22  and  C_25
REMARK    7  A    between atoms: C_23  and  C_26
REMARK    8  A    between atoms: C_23  and  C_27
REMARK    9  A    between atoms: C_25  and  C_28
REMARK                            x       y       z     vdW  Elec       q    Type
REMARK                         _______ _______ _______ _____ _____    ______ ____
ROOT
ATOM      1  C   UNL     1     -11.425  55.702  47.790  0.00  0.00    +0.000 A 
ATOM      2  S   UNL     1     -13.018  56.248  47.518  0.00  0.00    +0.000 S 
ATOM      3  C   UNL     1     -11.021  55.842  49.105  0.00  0.00    +0.000 A 
ATOM      4  C   UNL     1     -13.311  56.389  49.193  0.00  0.00    +0.000 A 
ATOM      5  C   UNL     1     -12.174  56.135  49.939  0.00  0.00    +0.000 A 
ATOM      6  C   UNL     1     -14.668  56.733  49.764  0.00  0.00    +0.000 C 
ATOM      7  C   UNL     1     -12.190  56.218  51.442  0.00  0.00    +0.000 C 
ATOM      8  C   UNL     1     -14.556  57.194  51.252  0.00  0.00    +0.000 C 
ATOM      9  C   UNL     1     -13.605  56.240  52.015  0.00  0.00    +0.000 C 
ATOM     10  C   UNL     1     -15.930  57.136  51.945  0.00  0.00    +0.000 C 
ATOM     11  C   UNL     1     -14.050  58.650  51.322  0.00  0.00    +0.000 C 
ENDROOT
BRANCH   1  15
ATOM     12  N   UNL     1     -10.262  53.446  45.230  0.00  0.00    +0.000 N 
ATOM     13  C   UNL     1     -10.928  53.844  46.404  0.00  0.00    +0.000 C 
ATOM     14  O   UNL     1     -11.623  53.079  47.059  0.00  0.00    +0.000 OA
ATOM     15  N   UNL     1     -10.779  55.193  46.675  0.00  0.00    +0.000 N 
ATOM     16  H   UNL     1      -9.759  54.100  44.693  0.00  0.00    +0.000 HD
ATOM     17  H   UNL     1     -10.234  55.772  46.095  0.00  0.00    +0.000 HD
BRANCH  12  18
ATOM     18  S   UNL     1     -10.344  51.845  44.767  0.00  0.00    +0.000 S 
ATOM     19  O   UNL     1      -9.655  51.065  45.766  0.00  0.00    +0.000 OA
ATOM     20  O   UNL     1     -11.669  51.515  44.285  0.00  0.00    +0.000 OA
BRANCH  18  21
ATOM     21  N   UNL     1      -9.329  51.900  43.399  0.00  0.00    +0.000 NA
ATOM     22  C   UNL     1      -9.796  51.160  42.199  0.00  0.00    +0.000 C 
ATOM     23  C   UNL     1      -7.933  51.428  43.677  0.00  0.00    +0.000 C 
ATOM     24  C   UNL     1      -9.038  49.846  42.221  0.00  0.00    +0.000 C 
ATOM     25  C   UNL     1      -7.682  50.220  42.781  0.00  0.00    +0.000 C 
ENDBRANCH  18  21
ENDBRANCH  12  18
ENDBRANCH   1  15
BRANCH   3  26
ATOM     26  C   UNL     1      -9.631  55.683  49.565  0.00  0.00    +0.000 C 
ATOM     27  O   UNL     1      -8.976  56.580  50.083  0.00  0.00    +0.000 OA
BRANCH  26  28
ATOM     28  O   UNL     1      -9.187  54.407  49.409  0.00  0.00    +0.000 OA
BRANCH  28  29
ATOM     29  C   UNL     1      -9.823  53.373  50.161  0.00  0.00    +0.000 C 
ATOM     30  C   UNL     1      -9.465  53.499  51.628  0.00  0.00    +0.000 C 
ENDBRANCH  28  29
ENDBRANCH  26  28
ENDBRANCH   3  26
TORSDOF 6
ENDMDL
MODEL 9
REMARK VINA RESULT:      -7.1      1.803      2.349
REMARK  Name = 
REMARK  9 active torsions:
REMARK  status: ('A' for Active; 'I' for Inactive)
REMARK    1  A    between atoms: S_1  and  N_4
REMARK    2  A    between atoms: S_1  and  N_5
REMARK    3  A    between atoms: N_12  and  C_13
REMARK    4  A    between atoms: C_15  and  C_18
REMARK    5  A    between atoms: C_18  and  O_22
REMARK    6  A    between atoms: O_22  and  C_25
REMARK    7  A    between atoms: C_23  and  C_26
REMARK    8  A    between atoms: C_23  and  C_27
REMARK    9  A    between atoms: C_25  and  C_28
REMARK                            x       y       z     vdW  Elec       q    Type
REMARK                         _______ _______ _______ _____ _____    ______ ____
ROOT
ATOM      1  C   UNL     1     -10.633  54.205  47.734  0.00  0.00    +0.000 A 
ATOM      2  S   UNL     1      -9.968  54.843  46.299  0.00  0.00    +0.000 S 
ATOM      3  C   UNL     1     -10.794  52.833  47.694  0.00  0.00    +0.000 A 
ATOM      4  C   UNL     1      -9.592  53.283  45.718  0.00  0.00    +0.000 A 
ATOM      5  C   UNL     1     -10.072  52.291  46.555  0.00  0.00    +0.000 A 
ATOM      6  C   UNL     1      -8.809  53.045  44.447  0.00  0.00    +0.000 C 
ATOM      7  C   UNL     1      -9.875  50.834  46.236  0.00  0.00    +0.000 C 
ATOM      8  C   UNL     1      -8.968  51.574  43.951  0.00  0.00    +0.000 C 
ATOM      9  C   UNL     1      -8.822  50.607  45.152  0.00  0.00    +0.000 C 
ATOM     10  C   UNL     1      -7.869  51.220  42.932  0.00  0.00    +0.000 C 
ATOM     11  C   UNL     1     -10.334  51.390  43.258  0.00  0.00    +0.000 C 
ENDROOT
BRANCH   1  15
ATOM     12  N   UNL     1     -12.298  56.678  49.761  0.00  0.00    +0.000 N 
ATOM     13  C   UNL     1     -12.123  55.784  48.689  0.00  0.00    +0.000 C 
ATOM     14  O   UNL     1     -13.000  55.559  47.867  0.00  0.00    +0.000 OA
ATOM     15  N   UNL     1     -10.899  55.138  48.724  0.00  0.00    +0.000 N 
ATOM     16  H   UNL     1     -11.595  56.792  50.440  0.00  0.00    +0.000 HD
ATOM     17  H   UNL     1     -10.240  55.333  49.429  0.00  0.00    +0.000 HD
BRANCH  12  18
ATOM     18  S   UNL     1     -13.725  57.538  49.860  0.00  0.00    +0.000 S 
ATOM     19  O   UNL     1     -13.629  58.650  48.945  0.00  0.00    +0.000 OA
ATOM     20  O   UNL     1     -14.865  56.645  49.898  0.00  0.00    +0.000 OA
BRANCH  18  21
ATOM     21  N   UNL     1     -13.555  58.177  51.430  0.00  0.00    +0.000 NA
ATOM     22  C   UNL     1     -13.833  57.248  52.556  0.00  0.00    +0.000 C 
ATOM     23  C   UNL     1     -14.390  59.399  51.668  0.00  0.00    +0.000 C 
ATOM     24  C   UNL     1     -15.246  57.573  53.001  0.00  0.00    +0.000 C 
ATOM     25  C   UNL     1     -15.351  59.071  52.805  0.00  0.00    +0.000 C 
ENDBRANCH  18  21
ENDBRANCH  12  18
ENDBRANCH   1  15
BRANCH   3  26
ATOM     26  C   UNL     1     -11.563  52.060  48.686  0.00  0.00    +0.000 C 
ATOM     27  O   UNL     1     -12.494  51.317  48.399  0.00  0.00    +0.000 OA
BRANCH  26  28
ATOM     28  O   UNL     1     -11.072  52.218  49.944  0.00  0.00    +0.000 OA
BRANCH  28  29
ATOM     29  C   UNL     1     -11.984  52.561  50.988  0.00  0.00    +0.000 C 
ATOM     30  C   UNL     1     -11.251  52.662  52.310  0.00  0.00    +0.000 C 
ENDBRANCH  28  29
ENDBRANCH  26  28
ENDBRANCH   3  26
TORSDOF 6
ENDMDL
