MODEL 1
REMARK VINA RESULT:      -7.4      0.000      0.000
REMARK  Name = 
REMARK  10 active torsions:
REMARK  status: ('A' for Active; 'I' for Inactive)
REMARK    1  A    between atoms: S_1  and  N_4
REMARK    2  A    between atoms: S_1  and  C_5
REMARK    3  A    between atoms: N_10  and  C_13
REMARK    4  A    between atoms: C_14  and  C_17
REMARK    5  A    between atoms: C_16  and  C_20
REMARK    6  A    between atoms: C_20  and  O_24
REMARK    7  A    between atoms: O_24  and  C_27
REMARK    8  A    between atoms: C_25  and  C_28
REMARK    9  A    between atoms: C_25  and  C_29
REMARK   10  A    between atoms: C_27  and  C_30
REMARK                            x       y       z     vdW  Elec       q    Type
REMARK                         _______ _______ _______ _____ _____    ______ ____
ROOT
ATOM      1  N   UNL     1      -9.675  51.744  48.739  0.00  0.00    +0.000 N 
ATOM      2  C   UNL     1     -10.740  52.603  48.970  0.00  0.00    +0.000 C 
ATOM      3  O   UNL     1     -11.840  52.415  48.473  0.00  0.00    +0.000 OA
ATOM      4  N   UNL     1     -10.400  53.724  49.707  0.00  0.00    +0.000 N 
ATOM      5  H   UNL     1      -8.811  51.956  49.160  0.00  0.00    +0.000 HD
ATOM      6  H   UNL     1      -9.487  53.848  50.054  0.00  0.00    +0.000 HD
ENDROOT
BRANCH   4   7
ATOM      7  C   UNL     1     -11.389  54.667  49.937  0.00  0.00    +0.000 A 
ATOM      8  S   UNL     1     -12.072  54.642  51.493  0.00  0.00    +0.000 S 
ATOM      9  C   UNL     1     -11.891  55.674  49.132  0.00  0.00    +0.000 A 
ATOM     10  C   UNL     1     -12.860  56.132  51.221  0.00  0.00    +0.000 A 
ATOM     11  C   UNL     1     -12.687  56.586  49.923  0.00  0.00    +0.000 A 
ATOM     12  C   UNL     1     -13.646  56.848  52.293  0.00  0.00    +0.000 C 
ATOM     13  C   UNL     1     -13.334  57.851  49.437  0.00  0.00    +0.000 C 
ATOM     14  C   UNL     1     -14.615  57.898  51.670  0.00  0.00    +0.000 C 
ATOM     15  C   UNL     1     -13.869  58.712  50.583  0.00  0.00    +0.000 C 
ATOM     16  C   UNL     1     -15.105  58.888  52.743  0.00  0.00    +0.000 C 
ATOM     17  C   UNL     1     -15.851  57.193  51.076  0.00  0.00    +0.000 C 
BRANCH   9  18
ATOM     18  C   UNL     1     -11.608  55.754  47.697  0.00  0.00    +0.000 C 
ATOM     19  O   UNL     1     -12.484  55.886  46.848  0.00  0.00    +0.000 OA
BRANCH  18  20
ATOM     20  O   UNL     1     -10.278  55.671  47.426  0.00  0.00    +0.000 OA
BRANCH  20  21
ATOM     21  C   UNL     1      -9.890  54.878  46.299  0.00  0.00    +0.000 C 
ATOM     22  C   UNL     1      -8.389  54.963  46.115  0.00  0.00    +0.000 C 
ENDBRANCH  20  21
ENDBRANCH  18  20
ENDBRANCH   9  18
ENDBRANCH   4   7
BRANCH   1  23
ATOM     23  S   UNL     1      -9.771  50.370  47.792  0.00  0.00    +0.000 S 
ATOM     24  O   UNL     1     -11.066  49.742  47.930  0.00  0.00    +0.000 OA
ATOM     25  O   UNL     1      -8.562  49.631  48.087  0.00  0.00    +0.000 OA
BRANCH  23  26
ATOM     26  C   UNL     1      -9.611  51.001  46.133  0.00  0.00    +0.000 A 
ATOM     27  C   UNL     1     -10.751  51.343  45.400  0.00  0.00    +0.000 A 
ATOM     28  C   UNL     1      -8.340  51.222  45.597  0.00  0.00    +0.000 A 
ATOM     29  C   UNL     1     -10.617  51.865  44.109  0.00  0.00    +0.000 A 
ATOM     30  C   UNL     1      -8.211  51.739  44.304  0.00  0.00    +0.000 A 
ATOM     31  C   UNL     1      -9.347  52.057  43.547  0.00  0.00    +0.000 A 
ATOM     32  C   UNL     1      -9.186  52.593  42.154  0.00  0.00    +0.000 C 
ENDBRANCH  23  26
ENDBRANCH   1  23
TORSDOF 6
ENDMDL
MODEL 2
REMARK VINA RESULT:      -7.1      1.905      2.726
REMARK  Name = 
REMARK  10 active torsions:
REMARK  status: ('A' for Active; 'I' for Inactive)
REMARK    1  A    between atoms: S_1  and  N_4
REMARK    2  A    between atoms: S_1  and  C_5
REMARK    3  A    between atoms: N_10  and  C_13
REMARK    4  A    between atoms: C_14  and  C_17
REMARK    5  A    between atoms: C_16  and  C_20
REMARK    6  A    between atoms: C_20  and  O_24
REMARK    7  A    between atoms: O_24  and  C_27
REMARK    8  A    between atoms: C_25  and  C_28
REMARK    9  A    between atoms: C_25  and  C_29
REMARK   10  A    between atoms: C_27  and  C_30
REMARK                            x       y       z     vdW  Elec       q    Type
REMARK                         _______ _______ _______ _____ _____    ______ ____
ROOT
ATOM      1  N   UNL     1      -8.068  53.357  49.606  0.00  0.00    +0.000 N 
ATOM      2  C   UNL     1      -9.182  54.180  49.675  0.00  0.00    +0.000 C 
ATOM      3  O   UNL     1      -9.242  55.237  49.065  0.00  0.00    +0.000 OA
ATOM      4  N   UNL     1     -10.141  53.745  50.573  0.00  0.00    +0.000 N 
ATOM      5  H   UNL     1      -8.077  52.523  50.130  0.00  0.00    +0.000 HD
ATOM      6  H   UNL     1     -10.029  52.902  51.070  0.00  0.00    +0.000 HD
ENDROOT
BRANCH   4   7
ATOM      7  C   UNL     1     -11.265  54.537  50.750  0.00  0.00    +0.000 A 
ATOM      8  S   UNL     1     -11.424  55.244  52.286  0.00  0.00    +0.000 S 
ATOM      9  C   UNL     1     -12.268  54.901  49.869  0.00  0.00    +0.000 A 
ATOM     10  C   UNL     1     -12.684  56.259  51.739  0.00  0.00    +0.000 A 
ATOM     11  C   UNL     1     -13.045  55.983  50.430  0.00  0.00    +0.000 A 
ATOM     12  C   UNL     1     -13.308  57.325  52.607  0.00  0.00    +0.000 C 
ATOM     13  C   UNL     1     -14.168  56.715  49.752  0.00  0.00    +0.000 C 
ATOM     14  C   UNL     1     -14.695  57.763  52.045  0.00  0.00    +0.000 C 
ATOM     15  C   UNL     1     -14.590  57.973  50.514  0.00  0.00    +0.000 C 
ATOM     16  C   UNL     1     -15.138  59.098  52.673  0.00  0.00    +0.000 C 
ATOM     17  C   UNL     1     -15.763  56.703  52.382  0.00  0.00    +0.000 C 
BRANCH   9  18
ATOM     18  C   UNL     1     -12.454  54.253  48.569  0.00  0.00    +0.000 C 
ATOM     19  O   UNL     1     -12.549  53.037  48.434  0.00  0.00    +0.000 OA
BRANCH  18  20
ATOM     20  O   UNL     1     -12.512  55.149  47.548  0.00  0.00    +0.000 OA
BRANCH  20  21
ATOM     21  C   UNL     1     -11.399  55.188  46.650  0.00  0.00    +0.000 C 
ATOM     22  C   UNL     1     -11.656  54.256  45.484  0.00  0.00    +0.000 C 
ENDBRANCH  20  21
ENDBRANCH  18  20
ENDBRANCH   9  18
ENDBRANCH   4   7
BRANCH   1  23
ATOM     23  S   UNL     1      -6.712  53.693  48.688  0.00  0.00    +0.000 S 
ATOM     24  O   UNL     1      -5.667  52.728  48.946  0.00  0.00    +0.000 OA
ATOM     25  O   UNL     1      -6.472  55.106  48.885  0.00  0.00    +0.000 OA
BRANCH  23  26
ATOM     26  C   UNL     1      -7.288  53.485  47.014  0.00  0.00    +0.000 A 
ATOM     27  C   UNL     1      -7.621  52.213  46.539  0.00  0.00    +0.000 A 
ATOM     28  C   UNL     1      -7.474  54.607  46.202  0.00  0.00    +0.000 A 
ATOM     29  C   UNL     1      -8.098  52.061  45.234  0.00  0.00    +0.000 A 
ATOM     30  C   UNL     1      -7.947  54.449  44.896  0.00  0.00    +0.000 A 
ATOM     31  C   UNL     1      -8.255  53.176  44.399  0.00  0.00    +0.000 A 
ATOM     32  C   UNL     1      -8.744  53.027  42.986  0.00  0.00    +0.000 C 
ENDBRANCH  23  26
ENDBRANCH   1  23
TORSDOF 6
ENDMDL
MODEL 3
REMARK VINA RESULT:      -6.9      3.251      4.910
REMARK  Name = 
REMARK  10 active torsions:
REMARK  status: ('A' for Active; 'I' for Inactive)
REMARK    1  A    between atoms: S_1  and  N_4
REMARK    2  A    between atoms: S_1  and  C_5
REMARK    3  A    between atoms: N_10  and  C_13
REMARK    4  A    between atoms: C_14  and  C_17
REMARK    5  A    between atoms: C_16  and  C_20
REMARK    6  A    between atoms: C_20  and  O_24
REMARK    7  A    between atoms: O_24  and  C_27
REMARK    8  A    between atoms: C_25  and  C_28
REMARK    9  A    between atoms: C_25  and  C_29
REMARK   10  A    between atoms: C_27  and  C_30
REMARK                            x       y       z     vdW  Elec       q    Type
REMARK                         _______ _______ _______ _____ _____    ______ ____
ROOT
ATOM      1  N   UNL     1      -8.413  52.638  48.934  0.00  0.00    +0.000 N 
ATOM      2  C   UNL     1      -9.312  53.662  49.197  0.00  0.00    +0.000 C 
ATOM      3  O   UNL     1      -8.941  54.768  49.560  0.00  0.00    +0.000 OA
ATOM      4  N   UNL     1     -10.638  53.273  49.120  0.00  0.00    +0.000 N 
ATOM      5  H   UNL     1      -8.776  51.766  48.655  0.00  0.00    +0.000 HD
ATOM      6  H   UNL     1     -10.885  52.357  48.858  0.00  0.00    +0.000 HD
ENDROOT
BRANCH   4   7
ATOM      7  C   UNL     1     -11.605  54.217  49.423  0.00  0.00    +0.000 A 
ATOM      8  S   UNL     1     -12.118  54.241  51.043  0.00  0.00    +0.000 S 
ATOM      9  C   UNL     1     -12.200  55.193  48.644  0.00  0.00    +0.000 A 
ATOM     10  C   UNL     1     -12.945  55.716  50.808  0.00  0.00    +0.000 A 
ATOM     11  C   UNL     1     -12.916  56.126  49.485  0.00  0.00    +0.000 A 
ATOM     12  C   UNL     1     -13.618  56.463  51.935  0.00  0.00    +0.000 C 
ATOM     13  C   UNL     1     -13.622  57.370  49.030  0.00  0.00    +0.000 C 
ATOM     14  C   UNL     1     -14.659  57.486  51.385  0.00  0.00    +0.000 C 
ATOM     15  C   UNL     1     -14.040  58.267  50.198  0.00  0.00    +0.000 C 
ATOM     16  C   UNL     1     -15.040  58.508  52.471  0.00  0.00    +0.000 C 
ATOM     17  C   UNL     1     -15.944  56.754  50.950  0.00  0.00    +0.000 C 
BRANCH   9  18
ATOM     18  C   UNL     1     -12.073  55.226  47.185  0.00  0.00    +0.000 C 
ATOM     19  O   UNL     1     -12.052  56.268  46.537  0.00  0.00    +0.000 OA
BRANCH  18  20
ATOM     20  O   UNL     1     -11.976  53.981  46.646  0.00  0.00    +0.000 OA
BRANCH  20  21
ATOM     21  C   UNL     1     -11.406  53.879  45.337  0.00  0.00    +0.000 C 
ATOM     22  C   UNL     1      -9.910  53.673  45.452  0.00  0.00    +0.000 C 
ENDBRANCH  20  21
ENDBRANCH  18  20
ENDBRANCH   9  18
ENDBRANCH   4   7
BRANCH   1  23
ATOM     23  S   UNL     1      -6.754  52.795  49.059  0.00  0.00    +0.000 S 
ATOM     24  O   UNL     1      -6.285  53.916  48.277  0.00  0.00    +0.000 OA
ATOM     25  O   UNL     1      -6.237  51.464  48.819  0.00  0.00    +0.000 OA
BRANCH  23  26
ATOM     26  C   UNL     1      -6.503  53.153  50.787  0.00  0.00    +0.000 A 
ATOM     27  C   UNL     1      -5.804  54.301  51.170  0.00  0.00    +0.000 A 
ATOM     28  C   UNL     1      -7.072  52.322  51.755  0.00  0.00    +0.000 A 
ATOM     29  C   UNL     1      -5.635  54.591  52.529  0.00  0.00    +0.000 A 
ATOM     30  C   UNL     1      -6.896  52.613  53.111  0.00  0.00    +0.000 A 
ATOM     31  C   UNL     1      -6.170  53.745  53.509  0.00  0.00    +0.000 A 
ATOM     32  C   UNL     1      -5.978  54.028  54.971  0.00  0.00    +0.000 C 
ENDBRANCH  23  26
ENDBRANCH   1  23
TORSDOF 6
ENDMDL
MODEL 4
REMARK VINA RESULT:      -6.9      3.678      5.446
REMARK  Name = 
REMARK  10 active torsions:
REMARK  status: ('A' for Active; 'I' for Inactive)
REMARK    1  A    between atoms: S_1  and  N_4
REMARK    2  A    between atoms: S_1  and  C_5
REMARK    3  A    between atoms: N_10  and  C_13
REMARK    4  A    between atoms: C_14  and  C_17
REMARK    5  A    between atoms: C_16  and  C_20
REMARK    6  A    between atoms: C_20  and  O_24
REMARK    7  A    between atoms: O_24  and  C_27
REMARK    8  A    between atoms: C_25  and  C_28
REMARK    9  A    between atoms: C_25  and  C_29
REMARK   10  A    between atoms: C_27  and  C_30
REMARK                            x       y       z     vdW  Elec       q    Type
REMARK                         _______ _______ _______ _____ _____    ______ ____
ROOT
ATOM      1  N   UNL     1      -8.094  53.034  50.333  0.00  0.00    +0.000 N 
ATOM      2  C   UNL     1      -9.056  54.008  50.553  0.00  0.00    +0.000 C 
ATOM      3  O   UNL     1      -8.931  54.854  51.426  0.00  0.00    +0.000 OA
ATOM      4  N   UNL     1     -10.192  53.854  49.777  0.00  0.00    +0.000 N 
ATOM      5  H   UNL     1      -8.259  52.374  49.621  0.00  0.00    +0.000 HD
ATOM      6  H   UNL     1     -10.260  53.131  49.111  0.00  0.00    +0.000 HD
ENDROOT
BRANCH   4   7
ATOM      7  C   UNL     1     -11.231  54.750  49.971  0.00  0.00    +0.000 A 
ATOM      8  S   UNL     1     -11.928  54.734  51.521  0.00  0.00    +0.000 S 
ATOM      9  C   UNL     1     -11.777  55.704  49.131  0.00  0.00    +0.000 A 
ATOM     10  C   UNL     1     -12.791  56.172  51.197  0.00  0.00    +0.000 A 
ATOM     11  C   UNL     1     -12.628  56.596  49.888  0.00  0.00    +0.000 A 
ATOM     12  C   UNL     1     -13.624  56.877  52.241  0.00  0.00    +0.000 C 
ATOM     13  C   UNL     1     -13.335  57.810  49.359  0.00  0.00    +0.000 C 
ATOM     14  C   UNL     1     -14.641  57.856  51.579  0.00  0.00    +0.000 C 
ATOM     15  C   UNL     1     -13.926  58.675  50.474  0.00  0.00    +0.000 C 
ATOM     16  C   UNL     1     -15.193  58.849  52.618  0.00  0.00    +0.000 C 
ATOM     17  C   UNL     1     -15.832  57.069  50.995  0.00  0.00    +0.000 C 
BRANCH   9  18
ATOM     18  C   UNL     1     -11.485  55.757  47.697  0.00  0.00    +0.000 C 
ATOM     19  O   UNL     1     -12.352  55.893  46.841  0.00  0.00    +0.000 OA
BRANCH  18  20
ATOM     20  O   UNL     1     -10.155  55.644  47.436  0.00  0.00    +0.000 OA
BRANCH  20  21
ATOM     21  C   UNL     1      -9.769  54.742  46.394  0.00  0.00    +0.000 C 
ATOM     22  C   UNL     1      -8.326  55.000  46.011  0.00  0.00    +0.000 C 
ENDBRANCH  20  21
ENDBRANCH  18  20
ENDBRANCH   9  18
ENDBRANCH   4   7
BRANCH   1  23
ATOM     23  S   UNL     1      -6.671  52.912  51.202  0.00  0.00    +0.000 S 
ATOM     24  O   UNL     1      -6.143  54.222  51.505  0.00  0.00    +0.000 OA
ATOM     25  O   UNL     1      -5.873  51.950  50.472  0.00  0.00    +0.000 OA
BRANCH  23  26
ATOM     26  C   UNL     1      -7.181  52.130  52.720  0.00  0.00    +0.000 A 
ATOM     27  C   UNL     1      -8.299  51.290  52.735  0.00  0.00    +0.000 A 
ATOM     28  C   UNL     1      -6.418  52.303  53.877  0.00  0.00    +0.000 A 
ATOM     29  C   UNL     1      -8.677  50.657  53.924  0.00  0.00    +0.000 A 
ATOM     30  C   UNL     1      -6.804  51.673  55.064  0.00  0.00    +0.000 A 
ATOM     31  C   UNL     1      -7.939  50.852  55.099  0.00  0.00    +0.000 A 
ATOM     32  C   UNL     1      -8.345  50.200  56.390  0.00  0.00    +0.000 C 
ENDBRANCH  23  26
ENDBRANCH   1  23
TORSDOF 6
ENDMDL
MODEL 5
REMARK VINA RESULT:      -6.7      3.772      8.163
REMARK  Name = 
REMARK  10 active torsions:
REMARK  status: ('A' for Active; 'I' for Inactive)
REMARK    1  A    between atoms: S_1  and  N_4
REMARK    2  A    between atoms: S_1  and  C_5
REMARK    3  A    between atoms: N_10  and  C_13
REMARK    4  A    between atoms: C_14  and  C_17
REMARK    5  A    between atoms: C_16  and  C_20
REMARK    6  A    between atoms: C_20  and  O_24
REMARK    7  A    between atoms: O_24  and  C_27
REMARK    8  A    between atoms: C_25  and  C_28
REMARK    9  A    between atoms: C_25  and  C_29
REMARK   10  A    between atoms: C_27  and  C_30
REMARK                            x       y       z     vdW  Elec       q    Type
REMARK                         _______ _______ _______ _____ _____    ______ ____
ROOT
ATOM      1  N   UNL     1     -11.514  56.845  49.268  0.00  0.00    +0.000 N 
ATOM      2  C   UNL     1     -10.702  55.902  49.882  0.00  0.00    +0.000 C 
ATOM      3  O   UNL     1     -11.144  54.841  50.294  0.00  0.00    +0.000 OA
ATOM      4  N   UNL     1      -9.400  56.330  50.075  0.00  0.00    +0.000 N 
ATOM      5  H   UNL     1     -11.098  57.686  48.967  0.00  0.00    +0.000 HD
ATOM      6  H   UNL     1      -9.100  57.212  49.756  0.00  0.00    +0.000 HD
ENDROOT
BRANCH   4   7
ATOM      7  C   UNL     1      -8.531  55.474  50.733  0.00  0.00    +0.000 A 
ATOM      8  S   UNL     1      -8.628  55.500  52.429  0.00  0.00    +0.000 S 
ATOM      9  C   UNL     1      -7.622  54.551  50.247  0.00  0.00    +0.000 A 
ATOM     10  C   UNL     1      -7.656  54.101  52.552  0.00  0.00    +0.000 A 
ATOM     11  C   UNL     1      -7.180  53.686  51.318  0.00  0.00    +0.000 A 
ATOM     12  C   UNL     1      -7.370  53.418  53.868  0.00  0.00    +0.000 C 
ATOM     13  C   UNL     1      -6.261  52.506  51.185  0.00  0.00    +0.000 C 
ATOM     14  C   UNL     1      -6.124  52.488  53.757  0.00  0.00    +0.000 C 
ATOM     15  C   UNL     1      -6.216  51.653  52.455  0.00  0.00    +0.000 C 
ATOM     16  C   UNL     1      -6.073  51.505  54.941  0.00  0.00    +0.000 C 
ATOM     17  C   UNL     1      -4.831  53.327  53.781  0.00  0.00    +0.000 C 
BRANCH   9  18
ATOM     18  C   UNL     1      -7.219  54.502  48.840  0.00  0.00    +0.000 C 
ATOM     19  O   UNL     1      -6.075  54.732  48.463  0.00  0.00    +0.000 OA
BRANCH  18  20
ATOM     20  O   UNL     1      -8.250  54.171  48.018  0.00  0.00    +0.000 OA
BRANCH  20  21
ATOM     21  C   UNL     1      -8.442  54.981  46.853  0.00  0.00    +0.000 C 
ATOM     22  C   UNL     1      -9.914  55.017  46.499  0.00  0.00    +0.000 C 
ENDBRANCH  20  21
ENDBRANCH  18  20
ENDBRANCH   9  18
ENDBRANCH   4   7
BRANCH   1  23
ATOM     23  S   UNL     1     -13.152  56.641  49.007  0.00  0.00    +0.000 S 
ATOM     24  O   UNL     1     -13.503  55.240  49.032  0.00  0.00    +0.000 OA
ATOM     25  O   UNL     1     -13.445  57.451  47.844  0.00  0.00    +0.000 OA
BRANCH  23  26
ATOM     26  C   UNL     1     -13.896  57.447  50.412  0.00  0.00    +0.000 A 
ATOM     27  C   UNL     1     -13.874  56.831  51.667  0.00  0.00    +0.000 A 
ATOM     28  C   UNL     1     -14.436  58.728  50.269  0.00  0.00    +0.000 A 
ATOM     29  C   UNL     1     -14.435  57.481  52.770  0.00  0.00    +0.000 A 
ATOM     30  C   UNL     1     -14.999  59.371  51.374  0.00  0.00    +0.000 A 
ATOM     31  C   UNL     1     -15.011  58.751  52.631  0.00  0.00    +0.000 A 
ATOM     32  C   UNL     1     -15.639  59.453  53.801  0.00  0.00    +0.000 C 
ENDBRANCH  23  26
ENDBRANCH   1  23
TORSDOF 6
ENDMDL
MODEL 6
REMARK VINA RESULT:      -6.7      4.252      9.112
REMARK  Name = 
REMARK  10 active torsions:
REMARK  status: ('A' for Active; 'I' for Inactive)
REMARK    1  A    between atoms: S_1  and  N_4
REMARK    2  A    between atoms: S_1  and  C_5
REMARK    3  A    between atoms: N_10  and  C_13
REMARK    4  A    between atoms: C_14  and  C_17
REMARK    5  A    between atoms: C_16  and  C_20
REMARK    6  A    between atoms: C_20  and  O_24
REMARK    7  A    between atoms: O_24  and  C_27
REMARK    8  A    between atoms: C_25  and  C_28
REMARK    9  A    between atoms: C_25  and  C_29
REMARK   10  A    between atoms: C_27  and  C_30
REMARK                            x       y       z     vdW  Elec       q    Type
REMARK                         _______ _______ _______ _____ _____    ______ ____
ROOT
ATOM      1  N   UNL     1     -11.713  55.568  51.120  0.00  0.00    +0.000 N 
ATOM      2  C   UNL     1     -10.452  55.095  50.787  0.00  0.00    +0.000 C 
ATOM      3  O   UNL     1      -9.996  55.212  49.660  0.00  0.00    +0.000 OA
ATOM      4  N   UNL     1      -9.833  54.395  51.808  0.00  0.00    +0.000 N 
ATOM      5  H   UNL     1     -12.028  55.434  52.043  0.00  0.00    +0.000 HD
ATOM      6  H   UNL     1     -10.260  54.297  52.690  0.00  0.00    +0.000 HD
ENDROOT
BRANCH   4   7
ATOM      7  C   UNL     1      -8.593  53.836  51.546  0.00  0.00    +0.000 A 
ATOM      8  S   UNL     1      -8.619  52.231  50.989  0.00  0.00    +0.000 S 
ATOM      9  C   UNL     1      -7.320  54.376  51.608  0.00  0.00    +0.000 A 
ATOM     10  C   UNL     1      -6.966  52.301  50.567  0.00  0.00    +0.000 A 
ATOM     11  C   UNL     1      -6.381  53.499  50.946  0.00  0.00    +0.000 A 
ATOM     12  C   UNL     1      -6.255  51.172  49.862  0.00  0.00    +0.000 C 
ATOM     13  C   UNL     1      -4.920  53.767  50.725  0.00  0.00    +0.000 C 
ATOM     14  C   UNL     1      -4.708  51.299  50.018  0.00  0.00    +0.000 C 
ATOM     15  C   UNL     1      -4.281  52.766  49.759  0.00  0.00    +0.000 C 
ATOM     16  C   UNL     1      -3.984  50.411  48.991  0.00  0.00    +0.000 C 
ATOM     17  C   UNL     1      -4.278  50.843  51.427  0.00  0.00    +0.000 C 
BRANCH   9  18
ATOM     18  C   UNL     1      -7.037  55.659  52.255  0.00  0.00    +0.000 C 
ATOM     19  O   UNL     1      -7.478  56.728  51.846  0.00  0.00    +0.000 OA
BRANCH  18  20
ATOM     20  O   UNL     1      -6.242  55.522  53.350  0.00  0.00    +0.000 OA
BRANCH  20  21
ATOM     21  C   UNL     1      -6.837  54.950  54.520  0.00  0.00    +0.000 C 
ATOM     22  C   UNL     1      -6.097  53.682  54.895  0.00  0.00    +0.000 C 
ENDBRANCH  20  21
ENDBRANCH  18  20
ENDBRANCH   9  18
ENDBRANCH   4   7
BRANCH   1  23
ATOM     23  S   UNL     1     -12.730  56.353  50.050  0.00  0.00    +0.000 S 
ATOM     24  O   UNL     1     -13.611  55.412  49.397  0.00  0.00    +0.000 OA
ATOM     25  O   UNL     1     -11.859  57.206  49.270  0.00  0.00    +0.000 OA
BRANCH  23  26
ATOM     26  C   UNL     1     -13.698  57.414  51.106  0.00  0.00    +0.000 A 
ATOM     27  C   UNL     1     -14.315  58.553  50.579  0.00  0.00    +0.000 A 
ATOM     28  C   UNL     1     -13.898  57.062  52.443  0.00  0.00    +0.000 A 
ATOM     29  C   UNL     1     -15.097  59.365  51.407  0.00  0.00    +0.000 A 
ATOM     30  C   UNL     1     -14.676  57.880  53.268  0.00  0.00    +0.000 A 
ATOM     31  C   UNL     1     -15.275  59.041  52.759  0.00  0.00    +0.000 A 
ATOM     32  C   UNL     1     -16.091  59.916  53.667  0.00  0.00    +0.000 C 
ENDBRANCH  23  26
ENDBRANCH   1  23
TORSDOF 6
ENDMDL
MODEL 7
REMARK VINA RESULT:      -6.6      2.088      8.765
REMARK  Name = 
REMARK  10 active torsions:
REMARK  status: ('A' for Active; 'I' for Inactive)
REMARK    1  A    between atoms: S_1  and  N_4
REMARK    2  A    between atoms: S_1  and  C_5
REMARK    3  A    between atoms: N_10  and  C_13
REMARK    4  A    between atoms: C_14  and  C_17
REMARK    5  A    between atoms: C_16  and  C_20
REMARK    6  A    between atoms: C_20  and  O_24
REMARK    7  A    between atoms: O_24  and  C_27
REMARK    8  A    between atoms: C_25  and  C_28
REMARK    9  A    between atoms: C_25  and  C_29
REMARK   10  A    between atoms: C_27  and  C_30
REMARK                            x       y       z     vdW  Elec       q    Type
REMARK                         _______ _______ _______ _____ _____    ______ ____
ROOT
ATOM      1  N   UNL     1     -13.016  55.718  49.091  0.00  0.00    +0.000 N 
ATOM      2  C   UNL     1     -12.220  55.096  48.141  0.00  0.00    +0.000 C 
ATOM      3  O   UNL     1     -11.886  55.660  47.110  0.00  0.00    +0.000 OA
ATOM      4  N   UNL     1     -11.951  53.768  48.423  0.00  0.00    +0.000 N 
ATOM      5  H   UNL     1     -13.259  55.206  49.896  0.00  0.00    +0.000 HD
ATOM      6  H   UNL     1     -12.275  53.348  49.253  0.00  0.00    +0.000 HD
ENDROOT
BRANCH   4   7
ATOM      7  C   UNL     1     -11.210  53.050  47.498  0.00  0.00    +0.000 A 
ATOM      8  S   UNL     1     -12.115  52.234  46.314  0.00  0.00    +0.000 S 
ATOM      9  C   UNL     1      -9.842  52.919  47.334  0.00  0.00    +0.000 A 
ATOM     10  C   UNL     1     -10.709  51.904  45.402  0.00  0.00    +0.000 A 
ATOM     11  C   UNL     1      -9.557  52.321  46.048  0.00  0.00    +0.000 A 
ATOM     12  C   UNL     1     -10.753  51.237  44.048  0.00  0.00    +0.000 C 
ATOM     13  C   UNL     1      -8.195  52.089  45.460  0.00  0.00    +0.000 C 
ATOM     14  C   UNL     1      -9.359  50.651  43.668  0.00  0.00    +0.000 C 
ATOM     15  C   UNL     1      -8.256  51.693  43.983  0.00  0.00    +0.000 C 
ATOM     16  C   UNL     1      -9.294  50.340  42.161  0.00  0.00    +0.000 C 
ATOM     17  C   UNL     1      -9.108  49.337  44.435  0.00  0.00    +0.000 C 
BRANCH   9  18
ATOM     18  C   UNL     1      -8.878  53.354  48.347  0.00  0.00    +0.000 C 
ATOM     19  O   UNL     1      -8.197  52.573  49.003  0.00  0.00    +0.000 OA
BRANCH  18  20
ATOM     20  O   UNL     1      -8.827  54.708  48.464  0.00  0.00    +0.000 OA
BRANCH  20  21
ATOM     21  C   UNL     1      -8.757  55.246  49.789  0.00  0.00    +0.000 C 
ATOM     22  C   UNL     1      -9.241  56.681  49.778  0.00  0.00    +0.000 C 
ENDBRANCH  20  21
ENDBRANCH  18  20
ENDBRANCH   9  18
ENDBRANCH   4   7
BRANCH   1  23
ATOM     23  S   UNL     1     -13.584  57.284  48.955  0.00  0.00    +0.000 S 
ATOM     24  O   UNL     1     -14.675  57.352  48.009  0.00  0.00    +0.000 OA
ATOM     25  O   UNL     1     -12.399  58.094  48.769  0.00  0.00    +0.000 OA
BRANCH  23  26
ATOM     26  C   UNL     1     -14.213  57.637  50.585  0.00  0.00    +0.000 A 
ATOM     27  C   UNL     1     -14.143  58.936  51.097  0.00  0.00    +0.000 A 
ATOM     28  C   UNL     1     -14.842  56.627  51.318  0.00  0.00    +0.000 A 
ATOM     29  C   UNL     1     -14.664  59.212  52.366  0.00  0.00    +0.000 A 
ATOM     30  C   UNL     1     -15.356  56.907  52.587  0.00  0.00    +0.000 A 
ATOM     31  C   UNL     1     -15.265  58.198  53.124  0.00  0.00    +0.000 A 
ATOM     32  C   UNL     1     -15.807  58.472  54.498  0.00  0.00    +0.000 C 
ENDBRANCH  23  26
ENDBRANCH   1  23
TORSDOF 6
ENDMDL
MODEL 8
REMARK VINA RESULT:      -6.6      3.014      7.969
REMARK  Name = 
REMARK  10 active torsions:
REMARK  status: ('A' for Active; 'I' for Inactive)
REMARK    1  A    between atoms: S_1  and  N_4
REMARK    2  A    between atoms: S_1  and  C_5
REMARK    3  A    between atoms: N_10  and  C_13
REMARK    4  A    between atoms: C_14  and  C_17
REMARK    5  A    between atoms: C_16  and  C_20
REMARK    6  A    between atoms: C_20  and  O_24
REMARK    7  A    between atoms: O_24  and  C_27
REMARK    8  A    between atoms: C_25  and  C_28
REMARK    9  A    between atoms: C_25  and  C_29
REMARK   10  A    between atoms: C_27  and  C_30
REMARK                            x       y       z     vdW  Elec       q    Type
REMARK                         _______ _______ _______ _____ _____    ______ ____
ROOT
ATOM      1  N   UNL     1      -8.184  56.334  49.260  0.00  0.00    +0.000 N 
ATOM      2  C   UNL     1      -8.457  55.205  48.502  0.00  0.00    +0.000 C 
ATOM      3  O   UNL     1      -8.102  54.090  48.855  0.00  0.00    +0.000 OA
ATOM      4  N   UNL     1      -9.053  55.482  47.284  0.00  0.00    +0.000 N 
ATOM      5  H   UNL     1      -8.487  57.205  48.916  0.00  0.00    +0.000 HD
ATOM      6  H   UNL     1      -9.286  56.404  47.030  0.00  0.00    +0.000 HD
ENDROOT
BRANCH   4   7
ATOM      7  C   UNL     1      -9.310  54.418  46.435  0.00  0.00    +0.000 A 
ATOM      8  S   UNL     1      -8.055  54.025  45.358  0.00  0.00    +0.000 S 
ATOM      9  C   UNL     1     -10.401  53.572  46.342  0.00  0.00    +0.000 A 
ATOM     10  C   UNL     1      -8.824  52.563  44.924  0.00  0.00    +0.000 A 
ATOM     11  C   UNL     1     -10.070  52.432  45.517  0.00  0.00    +0.000 A 
ATOM     12  C   UNL     1      -8.190  51.550  44.001  0.00  0.00    +0.000 C 
ATOM     13  C   UNL     1     -10.953  51.249  45.240  0.00  0.00    +0.000 C 
ATOM     14  C   UNL     1      -9.259  50.575  43.421  0.00  0.00    +0.000 C 
ATOM     15  C   UNL     1     -10.201  50.104  44.558  0.00  0.00    +0.000 C 
ATOM     16  C   UNL     1      -8.586  49.326  42.822  0.00  0.00    +0.000 C 
ATOM     17  C   UNL     1     -10.057  51.268  42.298  0.00  0.00    +0.000 C 
BRANCH   9  18
ATOM     18  C   UNL     1     -11.673  53.844  47.015  0.00  0.00    +0.000 C 
ATOM     19  O   UNL     1     -12.337  52.975  47.570  0.00  0.00    +0.000 OA
BRANCH  18  20
ATOM     20  O   UNL     1     -12.018  55.159  46.956  0.00  0.00    +0.000 OA
BRANCH  20  21
ATOM     21  C   UNL     1     -12.821  55.671  48.025  0.00  0.00    +0.000 C 
ATOM     22  C   UNL     1     -11.945  56.445  48.988  0.00  0.00    +0.000 C 
ENDBRANCH  20  21
ENDBRANCH  18  20
ENDBRANCH   9  18
ENDBRANCH   4   7
BRANCH   1  23
ATOM     23  S   UNL     1      -7.374  56.306  50.722  0.00  0.00    +0.000 S 
ATOM     24  O   UNL     1      -7.372  57.617  51.331  0.00  0.00    +0.000 OA
ATOM     25  O   UNL     1      -6.128  55.625  50.442  0.00  0.00    +0.000 OA
BRANCH  23  26
ATOM     26  C   UNL     1      -8.362  55.208  51.719  0.00  0.00    +0.000 A 
ATOM     27  C   UNL     1      -9.744  55.397  51.810  0.00  0.00    +0.000 A 
ATOM     28  C   UNL     1      -7.760  54.115  52.348  0.00  0.00    +0.000 A 
ATOM     29  C   UNL     1     -10.517  54.514  52.572  0.00  0.00    +0.000 A 
ATOM     30  C   UNL     1      -8.536  53.239  53.112  0.00  0.00    +0.000 A 
ATOM     31  C   UNL     1      -9.919  53.435  53.237  0.00  0.00    +0.000 A 
ATOM     32  C   UNL     1     -10.731  52.492  54.078  0.00  0.00    +0.000 C 
ENDBRANCH  23  26
ENDBRANCH   1  23
TORSDOF 6
ENDMDL
MODEL 9
REMARK VINA RESULT:      -6.5      2.405      3.464
REMARK  Name = 
REMARK  10 active torsions:
REMARK  status: ('A' for Active; 'I' for Inactive)
REMARK    1  A    between atoms: S_1  and  N_4
REMARK    2  A    between atoms: S_1  and  C_5
REMARK    3  A    between atoms: N_10  and  C_13
REMARK    4  A    between atoms: C_14  and  C_17
REMARK    5  A    between atoms: C_16  and  C_20
REMARK    6  A    between atoms: C_20  and  O_24
REMARK    7  A    between atoms: O_24  and  C_27
REMARK    8  A    between atoms: C_25  and  C_28
REMARK    9  A    between atoms: C_25  and  C_29
REMARK   10  A    between atoms: C_27  and  C_30
REMARK                            x       y       z     vdW  Elec       q    Type
REMARK                         _______ _______ _______ _____ _____    ______ ____
ROOT
ATOM      1  N   UNL     1     -10.770  53.958  45.036  0.00  0.00    +0.000 N 
ATOM      2  C   UNL     1     -11.272  54.279  46.289  0.00  0.00    +0.000 C 
ATOM      3  O   UNL     1     -11.726  53.428  47.039  0.00  0.00    +0.000 OA
ATOM      4  N   UNL     1     -11.309  55.639  46.542  0.00  0.00    +0.000 N 
ATOM      5  H   UNL     1     -10.427  54.691  44.474  0.00  0.00    +0.000 HD
ATOM      6  H   UNL     1     -10.964  56.289  45.887  0.00  0.00    +0.000 HD
ENDROOT
BRANCH   4   7
ATOM      7  C   UNL     1     -11.850  56.056  47.748  0.00  0.00    +0.000 A 
ATOM      8  S   UNL     1     -13.495  56.483  47.700  0.00  0.00    +0.000 S 
ATOM      9  C   UNL     1     -11.296  56.138  49.013  0.00  0.00    +0.000 A 
ATOM     10  C   UNL     1     -13.577  56.534  49.405  0.00  0.00    +0.000 A 
ATOM     11  C   UNL     1     -12.339  56.332  49.995  0.00  0.00    +0.000 A 
ATOM     12  C   UNL     1     -14.867  56.773  50.153  0.00  0.00    +0.000 C 
ATOM     13  C   UNL     1     -12.158  56.386  51.484  0.00  0.00    +0.000 C 
ATOM     14  C   UNL     1     -14.589  57.226  51.619  0.00  0.00    +0.000 C 
ATOM     15  C   UNL     1     -13.488  56.329  52.239  0.00  0.00    +0.000 C 
ATOM     16  C   UNL     1     -15.855  57.080  52.482  0.00  0.00    +0.000 C 
ATOM     17  C   UNL     1     -14.166  58.709  51.645  0.00  0.00    +0.000 C 
BRANCH   9  18
ATOM     18  C   UNL     1      -9.856  56.026  49.254  0.00  0.00    +0.000 C 
ATOM     19  O   UNL     1      -9.156  56.977  49.584  0.00  0.00    +0.000 OA
BRANCH  18  20
ATOM     20  O   UNL     1      -9.400  54.757  49.076  0.00  0.00    +0.000 OA
BRANCH  20  21
ATOM     21  C   UNL     1      -9.651  53.820  50.129  0.00  0.00    +0.000 C 
ATOM     22  C   UNL     1      -9.474  52.410  49.604  0.00  0.00    +0.000 C 
ENDBRANCH  20  21
ENDBRANCH  18  20
ENDBRANCH   9  18
ENDBRANCH   4   7
BRANCH   1  23
ATOM     23  S   UNL     1     -10.707  52.404  44.423  0.00  0.00    +0.000 S 
ATOM     24  O   UNL     1     -10.222  52.410  43.062  0.00  0.00    +0.000 OA
ATOM     25  O   UNL     1     -11.998  51.830  44.740  0.00  0.00    +0.000 OA
BRANCH  23  26
ATOM     26  C   UNL     1      -9.503  51.600  45.462  0.00  0.00    +0.000 A 
ATOM     27  C   UNL     1      -8.240  52.172  45.643  0.00  0.00    +0.000 A 
ATOM     28  C   UNL     1      -9.852  50.436  46.152  0.00  0.00    +0.000 A 
ATOM     29  C   UNL     1      -7.310  51.550  46.482  0.00  0.00    +0.000 A 
ATOM     30  C   UNL     1      -8.916  49.816  46.985  0.00  0.00    +0.000 A 
ATOM     31  C   UNL     1      -7.636  50.362  47.151  0.00  0.00    +0.000 A 
ATOM     32  C   UNL     1      -6.641  49.669  48.037  0.00  0.00    +0.000 C 
ENDBRANCH  23  26
ENDBRANCH   1  23
TORSDOF 6
ENDMDL
