MODEL 1
REMARK VINA RESULT:      -8.0      0.000      0.000
REMARK  Name = 
REMARK  9 active torsions:
REMARK  status: ('A' for Active; 'I' for Inactive)
REMARK    1  A    between atoms: S_1  and  N_4
REMARK    2  A    between atoms: S_1  and  C_5
REMARK    3  A    between atoms: N_10  and  C_13
REMARK    4  A    between atoms: C_16  and  C_20
REMARK    5  A    between atoms: C_20  and  O_24
REMARK    6  A    between atoms: O_24  and  C_27
REMARK    7  A    between atoms: C_25  and  C_28
REMARK    8  A    between atoms: C_25  and  C_29
REMARK    9  A    between atoms: C_27  and  C_30
REMARK                            x       y       z     vdW  Elec       q    Type
REMARK                         _______ _______ _______ _____ _____    ______ ____
ROOT
ATOM      1  N   UNL     1     -14.424  55.197  51.178  0.00  0.00    +0.000 N 
ATOM      2  C   UNL     1     -13.118  55.316  51.639  0.00  0.00    +0.000 C 
ATOM      3  O   UNL     1     -12.747  56.319  52.235  0.00  0.00    +0.000 OA
ATOM      4  N   UNL     1     -12.299  54.275  51.255  0.00  0.00    +0.000 N 
ATOM      5  H   UNL     1     -14.681  54.362  50.723  0.00  0.00    +0.000 HD
ATOM      6  H   UNL     1     -12.660  53.504  50.761  0.00  0.00    +0.000 HD
ENDROOT
BRANCH   4   7
ATOM      7  C   UNL     1     -10.956  54.344  51.583  0.00  0.00    +0.000 A 
ATOM      8  S   UNL     1     -10.537  53.637  53.070  0.00  0.00    +0.000 S 
ATOM      9  C   UNL     1      -9.869  54.847  50.885  0.00  0.00    +0.000 A 
ATOM     10  C   UNL     1      -8.875  53.739  52.700  0.00  0.00    +0.000 A 
ATOM     11  C   UNL     1      -8.642  54.405  51.507  0.00  0.00    +0.000 A 
ATOM     12  C   UNL     1      -7.805  53.159  53.592  0.00  0.00    +0.000 C 
ATOM     13  C   UNL     1      -7.252  54.668  51.007  0.00  0.00    +0.000 C 
ATOM     14  C   UNL     1      -6.414  53.787  53.278  0.00  0.00    +0.000 C 
ATOM     15  C   UNL     1      -6.200  53.836  51.743  0.00  0.00    +0.000 C 
ATOM     16  C   UNL     1      -5.285  52.929  53.882  0.00  0.00    +0.000 C 
ATOM     17  C   UNL     1      -6.317  55.198  53.891  0.00  0.00    +0.000 C 
BRANCH   9  18
ATOM     18  C   UNL     1     -10.014  55.687  49.697  0.00  0.00    +0.000 C 
ATOM     19  O   UNL     1      -9.564  56.827  49.621  0.00  0.00    +0.000 OA
BRANCH  18  20
ATOM     20  O   UNL     1     -10.687  55.056  48.699  0.00  0.00    +0.000 OA
BRANCH  20  21
ATOM     21  C   UNL     1     -11.673  55.818  47.993  0.00  0.00    +0.000 C 
ATOM     22  C   UNL     1     -11.666  55.415  46.532  0.00  0.00    +0.000 C 
ENDBRANCH  20  21
ENDBRANCH  18  20
ENDBRANCH   9  18
ENDBRANCH   4   7
BRANCH   1  23
ATOM     23  S   UNL     1     -15.581  56.382  51.350  0.00  0.00    +0.000 S 
ATOM     24  O   UNL     1     -15.872  56.563  52.755  0.00  0.00    +0.000 OA
ATOM     25  O   UNL     1     -16.633  56.031  50.415  0.00  0.00    +0.000 OA
BRANCH  23  26
ATOM     26  C   UNL     1     -14.812  57.857  50.712  0.00  0.00    +0.000 A 
ATOM     27  C   UNL     1     -14.638  58.965  51.547  0.00  0.00    +0.000 A 
ATOM     28  C   UNL     1     -14.353  57.880  49.389  0.00  0.00    +0.000 A 
ATOM     29  C   UNL     1     -14.019  60.115  51.042  0.00  0.00    +0.000 A 
ATOM     30  C   UNL     1     -13.726  59.030  48.897  0.00  0.00    +0.000 A 
ATOM     31  C   UNL     1     -13.571  60.134  49.725  0.00  0.00    +0.000 A 
ATOM     32  F   UNL     1     -12.969  61.236  49.252  0.00  0.00    +0.000 F 
ENDBRANCH  23  26
ENDBRANCH   1  23
TORSDOF 6
ENDMDL
MODEL 2
REMARK VINA RESULT:      -7.5      4.320      7.711
REMARK  Name = 
REMARK  9 active torsions:
REMARK  status: ('A' for Active; 'I' for Inactive)
REMARK    1  A    between atoms: S_1  and  N_4
REMARK    2  A    between atoms: S_1  and  C_5
REMARK    3  A    between atoms: N_10  and  C_13
REMARK    4  A    between atoms: C_16  and  C_20
REMARK    5  A    between atoms: C_20  and  O_24
REMARK    6  A    between atoms: O_24  and  C_27
REMARK    7  A    between atoms: C_25  and  C_28
REMARK    8  A    between atoms: C_25  and  C_29
REMARK    9  A    between atoms: C_27  and  C_30
REMARK                            x       y       z     vdW  Elec       q    Type
REMARK                         _______ _______ _______ _____ _____    ______ ____
ROOT
ATOM      1  N   UNL     1      -9.637  51.737  48.617  0.00  0.00    +0.000 N 
ATOM      2  C   UNL     1     -10.720  52.566  48.883  0.00  0.00    +0.000 C 
ATOM      3  O   UNL     1     -11.824  52.339  48.405  0.00  0.00    +0.000 OA
ATOM      4  N   UNL     1     -10.390  53.689  49.613  0.00  0.00    +0.000 N 
ATOM      5  H   UNL     1      -8.774  51.949  49.041  0.00  0.00    +0.000 HD
ATOM      6  H   UNL     1      -9.476  53.818  49.955  0.00  0.00    +0.000 HD
ENDROOT
BRANCH   4   7
ATOM      7  C   UNL     1     -11.378  54.627  49.853  0.00  0.00    +0.000 A 
ATOM      8  S   UNL     1     -12.056  54.584  51.410  0.00  0.00    +0.000 S 
ATOM      9  C   UNL     1     -11.886  55.643  49.058  0.00  0.00    +0.000 A 
ATOM     10  C   UNL     1     -12.842  56.077  51.158  0.00  0.00    +0.000 A 
ATOM     11  C   UNL     1     -12.677  56.545  49.864  0.00  0.00    +0.000 A 
ATOM     12  C   UNL     1     -13.619  56.782  52.242  0.00  0.00    +0.000 C 
ATOM     13  C   UNL     1     -13.329  57.812  49.393  0.00  0.00    +0.000 C 
ATOM     14  C   UNL     1     -14.593  57.836  51.637  0.00  0.00    +0.000 C 
ATOM     15  C   UNL     1     -13.857  58.661  50.551  0.00  0.00    +0.000 C 
ATOM     16  C   UNL     1     -15.073  58.816  52.726  0.00  0.00    +0.000 C 
ATOM     17  C   UNL     1     -15.834  57.136  51.048  0.00  0.00    +0.000 C 
BRANCH   9  18
ATOM     18  C   UNL     1     -11.614  55.735  47.624  0.00  0.00    +0.000 C 
ATOM     19  O   UNL     1     -12.498  55.827  46.777  0.00  0.00    +0.000 OA
BRANCH  18  20
ATOM     20  O   UNL     1     -10.283  55.717  47.350  0.00  0.00    +0.000 OA
BRANCH  20  21
ATOM     21  C   UNL     1      -9.849  54.880  46.272  0.00  0.00    +0.000 C 
ATOM     22  C   UNL     1      -8.343  54.974  46.138  0.00  0.00    +0.000 C 
ENDBRANCH  20  21
ENDBRANCH  18  20
ENDBRANCH   9  18
ENDBRANCH   4   7
BRANCH   1  23
ATOM     23  S   UNL     1      -9.712  50.404  47.621  0.00  0.00    +0.000 S 
ATOM     24  O   UNL     1     -10.959  49.709  47.849  0.00  0.00    +0.000 OA
ATOM     25  O   UNL     1      -8.442  49.724  47.793  0.00  0.00    +0.000 OA
BRANCH  23  26
ATOM     26  C   UNL     1      -9.703  51.075  45.970  0.00  0.00    +0.000 A 
ATOM     27  C   UNL     1     -10.914  51.360  45.332  0.00  0.00    +0.000 A 
ATOM     28  C   UNL     1      -8.482  51.347  45.341  0.00  0.00    +0.000 A 
ATOM     29  C   UNL     1     -10.898  51.902  44.040  0.00  0.00    +0.000 A 
ATOM     30  C   UNL     1      -8.476  51.897  44.055  0.00  0.00    +0.000 A 
ATOM     31  C   UNL     1      -9.681  52.164  43.418  0.00  0.00    +0.000 A 
ATOM     32  F   UNL     1      -9.674  52.693  42.185  0.00  0.00    +0.000 F 
ENDBRANCH  23  26
ENDBRANCH   1  23
TORSDOF 6
ENDMDL
MODEL 3
REMARK VINA RESULT:      -7.4      3.326      7.756
REMARK  Name = 
REMARK  9 active torsions:
REMARK  status: ('A' for Active; 'I' for Inactive)
REMARK    1  A    between atoms: S_1  and  N_4
REMARK    2  A    between atoms: S_1  and  C_5
REMARK    3  A    between atoms: N_10  and  C_13
REMARK    4  A    between atoms: C_16  and  C_20
REMARK    5  A    between atoms: C_20  and  O_24
REMARK    6  A    between atoms: O_24  and  C_27
REMARK    7  A    between atoms: C_25  and  C_28
REMARK    8  A    between atoms: C_25  and  C_29
REMARK    9  A    between atoms: C_27  and  C_30
REMARK                            x       y       z     vdW  Elec       q    Type
REMARK                         _______ _______ _______ _____ _____    ______ ____
ROOT
ATOM      1  N   UNL     1      -8.131  53.060  49.570  0.00  0.00    +0.000 N 
ATOM      2  C   UNL     1      -9.048  54.091  49.733  0.00  0.00    +0.000 C 
ATOM      3  O   UNL     1      -8.687  55.212  50.068  0.00  0.00    +0.000 OA
ATOM      4  N   UNL     1     -10.361  53.691  49.596  0.00  0.00    +0.000 N 
ATOM      5  H   UNL     1      -8.468  52.181  49.279  0.00  0.00    +0.000 HD
ATOM      6  H   UNL     1     -10.583  52.767  49.339  0.00  0.00    +0.000 HD
ENDROOT
BRANCH   4   7
ATOM      7  C   UNL     1     -11.357  54.622  49.831  0.00  0.00    +0.000 A 
ATOM      8  S   UNL     1     -11.981  54.632  51.411  0.00  0.00    +0.000 S 
ATOM      9  C   UNL     1     -11.911  55.595  49.013  0.00  0.00    +0.000 A 
ATOM     10  C   UNL     1     -12.802  56.099  51.126  0.00  0.00    +0.000 A 
ATOM     11  C   UNL     1     -12.691  56.516  49.808  0.00  0.00    +0.000 A 
ATOM     12  C   UNL     1     -13.555  56.835  52.206  0.00  0.00    +0.000 C 
ATOM     13  C   UNL     1     -13.381  57.751  49.309  0.00  0.00    +0.000 C 
ATOM     14  C   UNL     1     -14.569  57.847  51.593  0.00  0.00    +0.000 C 
ATOM     15  C   UNL     1     -13.886  58.638  50.448  0.00  0.00    +0.000 C 
ATOM     16  C   UNL     1     -15.030  58.862  52.656  0.00  0.00    +0.000 C 
ATOM     17  C   UNL     1     -15.816  57.102  51.076  0.00  0.00    +0.000 C 
BRANCH   9  18
ATOM     18  C   UNL     1     -11.689  55.632  47.568  0.00  0.00    +0.000 C 
ATOM     19  O   UNL     1     -12.602  55.596  46.748  0.00  0.00    +0.000 OA
BRANCH  18  20
ATOM     20  O   UNL     1     -10.371  55.720  47.252  0.00  0.00    +0.000 OA
BRANCH  20  21
ATOM     21  C   UNL     1      -9.875  54.815  46.258  0.00  0.00    +0.000 C 
ATOM     22  C   UNL     1      -8.368  54.941  46.171  0.00  0.00    +0.000 C 
ENDBRANCH  20  21
ENDBRANCH  18  20
ENDBRANCH   9  18
ENDBRANCH   4   7
BRANCH   1  23
ATOM     23  S   UNL     1      -6.496  53.220  49.841  0.00  0.00    +0.000 S 
ATOM     24  O   UNL     1      -6.009  54.385  49.137  0.00  0.00    +0.000 OA
ATOM     25  O   UNL     1      -5.933  51.909  49.583  0.00  0.00    +0.000 OA
BRANCH  23  26
ATOM     26  C   UNL     1      -6.356  53.491  51.597  0.00  0.00    +0.000 A 
ATOM     27  C   UNL     1      -5.562  54.537  52.076  0.00  0.00    +0.000 A 
ATOM     28  C   UNL     1      -7.073  52.675  52.481  0.00  0.00    +0.000 A 
ATOM     29  C   UNL     1      -5.469  54.752  53.457  0.00  0.00    +0.000 A 
ATOM     30  C   UNL     1      -6.982  52.904  53.858  0.00  0.00    +0.000 A 
ATOM     31  C   UNL     1      -6.179  53.935  54.330  0.00  0.00    +0.000 A 
ATOM     32  F   UNL     1      -6.094  54.154  55.651  0.00  0.00    +0.000 F 
ENDBRANCH  23  26
ENDBRANCH   1  23
TORSDOF 6
ENDMDL
MODEL 4
REMARK VINA RESULT:      -7.4      2.412      3.021
REMARK  Name = 
REMARK  9 active torsions:
REMARK  status: ('A' for Active; 'I' for Inactive)
REMARK    1  A    between atoms: S_1  and  N_4
REMARK    2  A    between atoms: S_1  and  C_5
REMARK    3  A    between atoms: N_10  and  C_13
REMARK    4  A    between atoms: C_16  and  C_20
REMARK    5  A    between atoms: C_20  and  O_24
REMARK    6  A    between atoms: O_24  and  C_27
REMARK    7  A    between atoms: C_25  and  C_28
REMARK    8  A    between atoms: C_25  and  C_29
REMARK    9  A    between atoms: C_27  and  C_30
REMARK                            x       y       z     vdW  Elec       q    Type
REMARK                         _______ _______ _______ _____ _____    ______ ____
ROOT
ATOM      1  N   UNL     1     -11.816  56.724  49.190  0.00  0.00    +0.000 N 
ATOM      2  C   UNL     1     -10.796  55.851  49.549  0.00  0.00    +0.000 C 
ATOM      3  O   UNL     1     -11.043  54.718  49.944  0.00  0.00    +0.000 OA
ATOM      4  N   UNL     1      -9.543  56.425  49.524  0.00  0.00    +0.000 N 
ATOM      5  H   UNL     1     -11.567  57.617  48.858  0.00  0.00    +0.000 HD
ATOM      6  H   UNL     1      -9.416  57.349  49.210  0.00  0.00    +0.000 HD
ENDROOT
BRANCH   4   7
ATOM      7  C   UNL     1      -8.468  55.667  49.955  0.00  0.00    +0.000 A 
ATOM      8  S   UNL     1      -8.027  55.893  51.580  0.00  0.00    +0.000 S 
ATOM      9  C   UNL     1      -7.706  54.708  49.305  0.00  0.00    +0.000 A 
ATOM     10  C   UNL     1      -6.998  54.533  51.536  0.00  0.00    +0.000 A 
ATOM     11  C   UNL     1      -6.908  53.983  50.267  0.00  0.00    +0.000 A 
ATOM     12  C   UNL     1      -6.282  54.014  52.759  0.00  0.00    +0.000 C 
ATOM     13  C   UNL     1      -6.013  52.815  49.974  0.00  0.00    +0.000 C 
ATOM     14  C   UNL     1      -5.085  53.100  52.360  0.00  0.00    +0.000 C 
ATOM     15  C   UNL     1      -5.529  52.117  51.247  0.00  0.00    +0.000 C 
ATOM     16  C   UNL     1      -4.619  52.263  53.567  0.00  0.00    +0.000 C 
ATOM     17  C   UNL     1      -3.894  53.959  51.890  0.00  0.00    +0.000 C 
BRANCH   9  18
ATOM     18  C   UNL     1      -7.759  54.505  47.857  0.00  0.00    +0.000 C 
ATOM     19  O   UNL     1      -6.798  54.694  47.118  0.00  0.00    +0.000 OA
BRANCH  18  20
ATOM     20  O   UNL     1      -8.980  54.078  47.442  0.00  0.00    +0.000 OA
BRANCH  20  21
ATOM     21  C   UNL     1      -9.487  54.634  46.223  0.00  0.00    +0.000 C 
ATOM     22  C   UNL     1     -10.992  54.467  46.181  0.00  0.00    +0.000 C 
ENDBRANCH  20  21
ENDBRANCH  18  20
ENDBRANCH   9  18
ENDBRANCH   4   7
BRANCH   1  23
ATOM     23  S   UNL     1     -13.436  56.351  49.289  0.00  0.00    +0.000 S 
ATOM     24  O   UNL     1     -13.582  54.962  49.664  0.00  0.00    +0.000 OA
ATOM     25  O   UNL     1     -14.022  56.852  48.061  0.00  0.00    +0.000 OA
BRANCH  23  26
ATOM     26  C   UNL     1     -14.056  57.386  50.601  0.00  0.00    +0.000 A 
ATOM     27  C   UNL     1     -14.547  58.661  50.304  0.00  0.00    +0.000 A 
ATOM     28  C   UNL     1     -14.082  56.896  51.913  0.00  0.00    +0.000 A 
ATOM     29  C   UNL     1     -15.047  59.461  51.339  0.00  0.00    +0.000 A 
ATOM     30  C   UNL     1     -14.593  57.699  52.938  0.00  0.00    +0.000 A 
ATOM     31  C   UNL     1     -15.064  58.972  52.642  0.00  0.00    +0.000 A 
ATOM     32  F   UNL     1     -15.554  59.741  53.626  0.00  0.00    +0.000 F 
ENDBRANCH  23  26
ENDBRANCH   1  23
TORSDOF 6
ENDMDL
MODEL 5
REMARK VINA RESULT:      -7.2      2.645      3.238
REMARK  Name = 
REMARK  9 active torsions:
REMARK  status: ('A' for Active; 'I' for Inactive)
REMARK    1  A    between atoms: S_1  and  N_4
REMARK    2  A    between atoms: S_1  and  C_5
REMARK    3  A    between atoms: N_10  and  C_13
REMARK    4  A    between atoms: C_16  and  C_20
REMARK    5  A    between atoms: C_20  and  O_24
REMARK    6  A    between atoms: O_24  and  C_27
REMARK    7  A    between atoms: C_25  and  C_28
REMARK    8  A    between atoms: C_25  and  C_29
REMARK    9  A    between atoms: C_27  and  C_30
REMARK                            x       y       z     vdW  Elec       q    Type
REMARK                         _______ _______ _______ _____ _____    ______ ____
ROOT
ATOM      1  N   UNL     1     -12.198  57.106  49.331  0.00  0.00    +0.000 N 
ATOM      2  C   UNL     1     -11.752  55.947  49.955  0.00  0.00    +0.000 C 
ATOM      3  O   UNL     1     -12.542  55.116  50.385  0.00  0.00    +0.000 OA
ATOM      4  N   UNL     1     -10.385  55.905  50.133  0.00  0.00    +0.000 N 
ATOM      5  H   UNL     1     -11.523  57.735  48.983  0.00  0.00    +0.000 HD
ATOM      6  H   UNL     1      -9.807  56.618  49.775  0.00  0.00    +0.000 HD
ENDROOT
BRANCH   4   7
ATOM      7  C   UNL     1      -9.848  54.836  50.828  0.00  0.00    +0.000 A 
ATOM      8  S   UNL     1     -10.015  54.914  52.517  0.00  0.00    +0.000 S 
ATOM      9  C   UNL     1      -9.234  53.674  50.388  0.00  0.00    +0.000 A 
ATOM     10  C   UNL     1      -9.523  53.289  52.685  0.00  0.00    +0.000 A 
ATOM     11  C   UNL     1      -9.131  52.732  51.479  0.00  0.00    +0.000 A 
ATOM     12  C   UNL     1      -9.527  52.570  54.011  0.00  0.00    +0.000 C 
ATOM     13  C   UNL     1      -8.602  51.330  51.390  0.00  0.00    +0.000 C 
ATOM     14  C   UNL     1      -8.616  51.307  53.966  0.00  0.00    +0.000 C 
ATOM     15  C   UNL     1      -8.883  50.520  52.657  0.00  0.00    +0.000 C 
ATOM     16  C   UNL     1      -8.930  50.371  55.149  0.00  0.00    +0.000 C 
ATOM     17  C   UNL     1      -7.133  51.718  54.067  0.00  0.00    +0.000 C 
BRANCH   9  18
ATOM     18  C   UNL     1      -8.791  53.490  49.006  0.00  0.00    +0.000 C 
ATOM     19  O   UNL     1      -7.630  53.232  48.702  0.00  0.00    +0.000 OA
BRANCH  18  20
ATOM     20  O   UNL     1      -9.808  53.627  48.116  0.00  0.00    +0.000 OA
BRANCH  20  21
ATOM     21  C   UNL     1     -10.706  52.520  47.975  0.00  0.00    +0.000 C 
ATOM     22  C   UNL     1     -12.066  53.028  47.542  0.00  0.00    +0.000 C 
ENDBRANCH  20  21
ENDBRANCH  18  20
ENDBRANCH   9  18
ENDBRANCH   4   7
BRANCH   1  23
ATOM     23  S   UNL     1     -13.804  57.498  49.137  0.00  0.00    +0.000 S 
ATOM     24  O   UNL     1     -14.498  56.379  48.538  0.00  0.00    +0.000 OA
ATOM     25  O   UNL     1     -13.809  58.800  48.499  0.00  0.00    +0.000 OA
BRANCH  23  26
ATOM     26  C   UNL     1     -14.409  57.748  50.795  0.00  0.00    +0.000 A 
ATOM     27  C   UNL     1     -14.165  58.960  51.446  0.00  0.00    +0.000 A 
ATOM     28  C   UNL     1     -15.158  56.740  51.417  0.00  0.00    +0.000 A 
ATOM     29  C   UNL     1     -14.657  59.154  52.743  0.00  0.00    +0.000 A 
ATOM     30  C   UNL     1     -15.654  56.947  52.708  0.00  0.00    +0.000 A 
ATOM     31  C   UNL     1     -15.395  58.147  53.358  0.00  0.00    +0.000 A 
ATOM     32  F   UNL     1     -15.872  58.345  54.596  0.00  0.00    +0.000 F 
ENDBRANCH  23  26
ENDBRANCH   1  23
TORSDOF 6
ENDMDL
MODEL 6
REMARK VINA RESULT:      -7.2      3.763      5.923
REMARK  Name = 
REMARK  9 active torsions:
REMARK  status: ('A' for Active; 'I' for Inactive)
REMARK    1  A    between atoms: S_1  and  N_4
REMARK    2  A    between atoms: S_1  and  C_5
REMARK    3  A    between atoms: N_10  and  C_13
REMARK    4  A    between atoms: C_16  and  C_20
REMARK    5  A    between atoms: C_20  and  O_24
REMARK    6  A    between atoms: O_24  and  C_27
REMARK    7  A    between atoms: C_25  and  C_28
REMARK    8  A    between atoms: C_25  and  C_29
REMARK    9  A    between atoms: C_27  and  C_30
REMARK                            x       y       z     vdW  Elec       q    Type
REMARK                         _______ _______ _______ _____ _____    ______ ____
ROOT
ATOM      1  N   UNL     1     -12.862  55.878  49.257  0.00  0.00    +0.000 N 
ATOM      2  C   UNL     1     -12.145  55.295  48.219  0.00  0.00    +0.000 C 
ATOM      3  O   UNL     1     -12.151  55.782  47.095  0.00  0.00    +0.000 OA
ATOM      4  N   UNL     1     -11.557  54.095  48.558  0.00  0.00    +0.000 N 
ATOM      5  H   UNL     1     -12.809  55.461  50.148  0.00  0.00    +0.000 HD
ATOM      6  H   UNL     1     -11.605  53.751  49.479  0.00  0.00    +0.000 HD
ENDROOT
BRANCH   4   7
ATOM      7  C   UNL     1     -10.898  53.386  47.568  0.00  0.00    +0.000 A 
ATOM      8  S   UNL     1     -11.889  52.402  46.601  0.00  0.00    +0.000 S 
ATOM      9  C   UNL     1      -9.566  53.372  47.186  0.00  0.00    +0.000 A 
ATOM     10  C   UNL     1     -10.623  52.146  45.486  0.00  0.00    +0.000 A 
ATOM     11  C   UNL     1      -9.431  52.713  45.907  0.00  0.00    +0.000 A 
ATOM     12  C   UNL     1     -10.814  51.384  44.198  0.00  0.00    +0.000 C 
ATOM     13  C   UNL     1      -8.164  52.566  45.117  0.00  0.00    +0.000 C 
ATOM     14  C   UNL     1      -9.447  50.904  43.625  0.00  0.00    +0.000 C 
ATOM     15  C   UNL     1      -8.418  52.061  43.695  0.00  0.00    +0.000 C 
ATOM     16  C   UNL     1      -9.594  50.497  42.146  0.00  0.00    +0.000 C 
ATOM     17  C   UNL     1      -8.945  49.674  44.408  0.00  0.00    +0.000 C 
BRANCH   9  18
ATOM     18  C   UNL     1      -8.505  53.964  48.001  0.00  0.00    +0.000 C 
ATOM     19  O   UNL     1      -7.483  53.360  48.314  0.00  0.00    +0.000 OA
BRANCH  18  20
ATOM     20  O   UNL     1      -8.780  55.247  48.352  0.00  0.00    +0.000 OA
BRANCH  20  21
ATOM     21  C   UNL     1      -8.260  55.708  49.604  0.00  0.00    +0.000 C 
ATOM     22  C   UNL     1      -9.383  56.309  50.424  0.00  0.00    +0.000 C 
ENDBRANCH  20  21
ENDBRANCH  18  20
ENDBRANCH   9  18
ENDBRANCH   4   7
BRANCH   1  23
ATOM     23  S   UNL     1     -13.804  57.239  49.086  0.00  0.00    +0.000 S 
ATOM     24  O   UNL     1     -14.936  56.931  48.241  0.00  0.00    +0.000 OA
ATOM     25  O   UNL     1     -12.884  58.303  48.733  0.00  0.00    +0.000 OA
BRANCH  23  26
ATOM     26  C   UNL     1     -14.380  57.598  50.734  0.00  0.00    +0.000 A 
ATOM     27  C   UNL     1     -14.303  58.905  51.226  0.00  0.00    +0.000 A 
ATOM     28  C   UNL     1     -14.939  56.574  51.509  0.00  0.00    +0.000 A 
ATOM     29  C   UNL     1     -14.772  59.181  52.516  0.00  0.00    +0.000 A 
ATOM     30  C   UNL     1     -15.413  56.862  52.793  0.00  0.00    +0.000 A 
ATOM     31  C   UNL     1     -15.320  58.158  53.284  0.00  0.00    +0.000 A 
ATOM     32  F   UNL     1     -15.776  58.433  54.515  0.00  0.00    +0.000 F 
ENDBRANCH  23  26
ENDBRANCH   1  23
TORSDOF 6
ENDMDL
MODEL 7
REMARK VINA RESULT:      -7.1      2.589      4.012
REMARK  Name = 
REMARK  9 active torsions:
REMARK  status: ('A' for Active; 'I' for Inactive)
REMARK    1  A    between atoms: S_1  and  N_4
REMARK    2  A    between atoms: S_1  and  C_5
REMARK    3  A    between atoms: N_10  and  C_13
REMARK    4  A    between atoms: C_16  and  C_20
REMARK    5  A    between atoms: C_20  and  O_24
REMARK    6  A    between atoms: O_24  and  C_27
REMARK    7  A    between atoms: C_25  and  C_28
REMARK    8  A    between atoms: C_25  and  C_29
REMARK    9  A    between atoms: C_27  and  C_30
REMARK                            x       y       z     vdW  Elec       q    Type
REMARK                         _______ _______ _______ _____ _____    ______ ____
ROOT
ATOM      1  N   UNL     1     -14.143  55.464  51.420  0.00  0.00    +0.000 N 
ATOM      2  C   UNL     1     -12.853  55.051  51.105  0.00  0.00    +0.000 C 
ATOM      3  O   UNL     1     -11.877  55.692  51.474  0.00  0.00    +0.000 OA
ATOM      4  N   UNL     1     -12.812  53.957  50.267  0.00  0.00    +0.000 N 
ATOM      5  H   UNL     1     -14.895  54.904  51.120  0.00  0.00    +0.000 HD
ATOM      6  H   UNL     1     -13.639  53.497  49.995  0.00  0.00    +0.000 HD
ENDROOT
BRANCH   4   7
ATOM      7  C   UNL     1     -11.577  53.523  49.818  0.00  0.00    +0.000 A 
ATOM      8  S   UNL     1     -11.030  54.254  48.385  0.00  0.00    +0.000 S 
ATOM      9  C   UNL     1     -10.671  52.624  50.359  0.00  0.00    +0.000 A 
ATOM     10  C   UNL     1      -9.469  53.601  48.594  0.00  0.00    +0.000 A 
ATOM     11  C   UNL     1      -9.399  52.746  49.683  0.00  0.00    +0.000 A 
ATOM     12  C   UNL     1      -8.316  53.935  47.680  0.00  0.00    +0.000 C 
ATOM     13  C   UNL     1      -8.140  52.006  50.028  0.00  0.00    +0.000 C 
ATOM     14  C   UNL     1      -7.180  52.876  47.801  0.00  0.00    +0.000 C 
ATOM     15  C   UNL     1      -6.917  52.564  49.297  0.00  0.00    +0.000 C 
ATOM     16  C   UNL     1      -5.870  53.417  47.197  0.00  0.00    +0.000 C 
ATOM     17  C   UNL     1      -7.564  51.595  47.032  0.00  0.00    +0.000 C 
BRANCH   9  18
ATOM     18  C   UNL     1     -11.014  51.722  51.457  0.00  0.00    +0.000 C 
ATOM     19  O   UNL     1     -11.044  50.500  51.338  0.00  0.00    +0.000 OA
BRANCH  18  20
ATOM     20  O   UNL     1     -11.280  52.391  52.609  0.00  0.00    +0.000 OA
BRANCH  20  21
ATOM     21  C   UNL     1     -10.205  52.532  53.546  0.00  0.00    +0.000 C 
ATOM     22  C   UNL     1      -9.710  53.964  53.530  0.00  0.00    +0.000 C 
ENDBRANCH  20  21
ENDBRANCH  18  20
ENDBRANCH   9  18
ENDBRANCH   4   7
BRANCH   1  23
ATOM     23  S   UNL     1     -14.492  56.849  52.275  0.00  0.00    +0.000 S 
ATOM     24  O   UNL     1     -13.413  57.123  53.198  0.00  0.00    +0.000 OA
ATOM     25  O   UNL     1     -15.850  56.676  52.753  0.00  0.00    +0.000 OA
BRANCH  23  26
ATOM     26  C   UNL     1     -14.553  58.135  51.041  0.00  0.00    +0.000 A 
ATOM     27  C   UNL     1     -13.951  57.930  49.797  0.00  0.00    +0.000 A 
ATOM     28  C   UNL     1     -15.239  59.325  51.317  0.00  0.00    +0.000 A 
ATOM     29  C   UNL     1     -14.017  58.940  48.828  0.00  0.00    +0.000 A 
ATOM     30  C   UNL     1     -15.308  60.323  50.339  0.00  0.00    +0.000 A 
ATOM     31  C   UNL     1     -14.694  60.122  49.110  0.00  0.00    +0.000 A 
ATOM     32  F   UNL     1     -14.762  61.080  48.173  0.00  0.00    +0.000 F 
ENDBRANCH  23  26
ENDBRANCH   1  23
TORSDOF 6
ENDMDL
MODEL 8
REMARK VINA RESULT:      -7.1      3.614      7.967
REMARK  Name = 
REMARK  9 active torsions:
REMARK  status: ('A' for Active; 'I' for Inactive)
REMARK    1  A    between atoms: S_1  and  N_4
REMARK    2  A    between atoms: S_1  and  C_5
REMARK    3  A    between atoms: N_10  and  C_13
REMARK    4  A    between atoms: C_16  and  C_20
REMARK    5  A    between atoms: C_20  and  O_24
REMARK    6  A    between atoms: O_24  and  C_27
REMARK    7  A    between atoms: C_25  and  C_28
REMARK    8  A    between atoms: C_25  and  C_29
REMARK    9  A    between atoms: C_27  and  C_30
REMARK                            x       y       z     vdW  Elec       q    Type
REMARK                         _______ _______ _______ _____ _____    ______ ____
ROOT
ATOM      1  N   UNL     1      -8.189  52.857  50.095  0.00  0.00    +0.000 N 
ATOM      2  C   UNL     1      -9.097  53.887  50.313  0.00  0.00    +0.000 C 
ATOM      3  O   UNL     1      -8.863  54.776  51.122  0.00  0.00    +0.000 OA
ATOM      4  N   UNL     1     -10.286  53.729  49.633  0.00  0.00    +0.000 N 
ATOM      5  H   UNL     1      -8.413  52.177  49.419  0.00  0.00    +0.000 HD
ATOM      6  H   UNL     1     -10.414  52.979  49.008  0.00  0.00    +0.000 HD
ENDROOT
BRANCH   4   7
ATOM      7  C   UNL     1     -11.294  54.651  49.854  0.00  0.00    +0.000 A 
ATOM      8  S   UNL     1     -11.988  54.607  51.404  0.00  0.00    +0.000 S 
ATOM      9  C   UNL     1     -11.813  55.651  49.046  0.00  0.00    +0.000 A 
ATOM     10  C   UNL     1     -12.799  56.083  51.132  0.00  0.00    +0.000 A 
ATOM     11  C   UNL     1     -12.629  56.543  49.836  0.00  0.00    +0.000 A 
ATOM     12  C   UNL     1     -13.601  56.782  52.202  0.00  0.00    +0.000 C 
ATOM     13  C   UNL     1     -13.300  57.794  49.348  0.00  0.00    +0.000 C 
ATOM     14  C   UNL     1     -14.588  57.813  51.578  0.00  0.00    +0.000 C 
ATOM     15  C   UNL     1     -13.856  58.642  50.492  0.00  0.00    +0.000 C 
ATOM     16  C   UNL     1     -15.099  58.791  52.653  0.00  0.00    +0.000 C 
ATOM     17  C   UNL     1     -15.810  57.084  50.981  0.00  0.00    +0.000 C 
BRANCH   9  18
ATOM     18  C   UNL     1     -11.526  55.736  47.614  0.00  0.00    +0.000 C 
ATOM     19  O   UNL     1     -12.399  55.872  46.762  0.00  0.00    +0.000 OA
BRANCH  18  20
ATOM     20  O   UNL     1     -10.196  55.659  47.350  0.00  0.00    +0.000 OA
BRANCH  20  21
ATOM     21  C   UNL     1      -9.785  54.742  46.329  0.00  0.00    +0.000 C 
ATOM     22  C   UNL     1      -8.296  54.892  46.089  0.00  0.00    +0.000 C 
ENDBRANCH  20  21
ENDBRANCH  18  20
ENDBRANCH   9  18
ENDBRANCH   4   7
BRANCH   1  23
ATOM     23  S   UNL     1      -6.745  52.704  50.910  0.00  0.00    +0.000 S 
ATOM     24  O   UNL     1      -6.145  54.010  51.065  0.00  0.00    +0.000 OA
ATOM     25  O   UNL     1      -6.032  51.637  50.234  0.00  0.00    +0.000 OA
BRANCH  23  26
ATOM     26  C   UNL     1      -7.199  52.069  52.513  0.00  0.00    +0.000 A 
ATOM     27  C   UNL     1      -6.457  52.436  53.639  0.00  0.00    +0.000 A 
ATOM     28  C   UNL     1      -8.319  51.237  52.634  0.00  0.00    +0.000 A 
ATOM     29  C   UNL     1      -6.829  51.945  54.897  0.00  0.00    +0.000 A 
ATOM     30  C   UNL     1      -8.689  50.759  53.896  0.00  0.00    +0.000 A 
ATOM     31  C   UNL     1      -7.939  51.113  55.010  0.00  0.00    +0.000 A 
ATOM     32  F   UNL     1      -8.296  50.656  56.220  0.00  0.00    +0.000 F 
ENDBRANCH  23  26
ENDBRANCH   1  23
TORSDOF 6
ENDMDL
MODEL 9
REMARK VINA RESULT:      -7.0      2.570      3.578
REMARK  Name = 
REMARK  9 active torsions:
REMARK  status: ('A' for Active; 'I' for Inactive)
REMARK    1  A    between atoms: S_1  and  N_4
REMARK    2  A    between atoms: S_1  and  C_5
REMARK    3  A    between atoms: N_10  and  C_13
REMARK    4  A    between atoms: C_16  and  C_20
REMARK    5  A    between atoms: C_20  and  O_24
REMARK    6  A    between atoms: O_24  and  C_27
REMARK    7  A    between atoms: C_25  and  C_28
REMARK    8  A    between atoms: C_25  and  C_29
REMARK    9  A    between atoms: C_27  and  C_30
REMARK                            x       y       z     vdW  Elec       q    Type
REMARK                         _______ _______ _______ _____ _____    ______ ____
ROOT
ATOM      1  N   UNL     1     -12.149  57.133  49.349  0.00  0.00    +0.000 N 
ATOM      2  C   UNL     1     -11.685  55.982  49.974  0.00  0.00    +0.000 C 
ATOM      3  O   UNL     1     -12.461  55.131  50.390  0.00  0.00    +0.000 OA
ATOM      4  N   UNL     1     -10.320  55.971  50.169  0.00  0.00    +0.000 N 
ATOM      5  H   UNL     1     -11.485  57.778  49.012  0.00  0.00    +0.000 HD
ATOM      6  H   UNL     1      -9.754  56.697  49.822  0.00  0.00    +0.000 HD
ENDROOT
BRANCH   4   7
ATOM      7  C   UNL     1      -9.767  54.911  50.867  0.00  0.00    +0.000 A 
ATOM      8  S   UNL     1     -10.061  54.915  52.541  0.00  0.00    +0.000 S 
ATOM      9  C   UNL     1      -9.050  53.806  50.436  0.00  0.00    +0.000 A 
ATOM     10  C   UNL     1      -9.480  53.318  52.692  0.00  0.00    +0.000 A 
ATOM     11  C   UNL     1      -8.966  52.832  51.500  0.00  0.00    +0.000 A 
ATOM     12  C   UNL     1      -9.535  52.551  53.989  0.00  0.00    +0.000 C 
ATOM     13  C   UNL     1      -8.344  51.470  51.406  0.00  0.00    +0.000 C 
ATOM     14  C   UNL     1      -8.543  51.349  53.971  0.00  0.00    +0.000 C 
ATOM     15  C   UNL     1      -8.664  50.597  52.621  0.00  0.00    +0.000 C 
ATOM     16  C   UNL     1      -8.882  50.352  55.095  0.00  0.00    +0.000 C 
ATOM     17  C   UNL     1      -7.101  51.846  54.196  0.00  0.00    +0.000 C 
BRANCH   9  18
ATOM     18  C   UNL     1      -8.497  53.702  49.086  0.00  0.00    +0.000 C 
ATOM     19  O   UNL     1      -9.193  53.676  48.076  0.00  0.00    +0.000 OA
BRANCH  18  20
ATOM     20  O   UNL     1      -7.139  53.651  49.088  0.00  0.00    +0.000 OA
BRANCH  20  21
ATOM     21  C   UNL     1      -6.442  54.838  49.482  0.00  0.00    +0.000 C 
ATOM     22  C   UNL     1      -5.400  54.486  50.526  0.00  0.00    +0.000 C 
ENDBRANCH  20  21
ENDBRANCH  18  20
ENDBRANCH   9  18
ENDBRANCH   4   7
BRANCH   1  23
ATOM     23  S   UNL     1     -13.761  57.488  49.135  0.00  0.00    +0.000 S 
ATOM     24  O   UNL     1     -14.425  56.350  48.540  0.00  0.00    +0.000 OA
ATOM     25  O   UNL     1     -13.788  58.785  48.485  0.00  0.00    +0.000 OA
BRANCH  23  26
ATOM     26  C   UNL     1     -14.388  57.740  50.785  0.00  0.00    +0.000 A 
ATOM     27  C   UNL     1     -14.179  58.965  51.426  0.00  0.00    +0.000 A 
ATOM     28  C   UNL     1     -15.119  56.721  51.409  0.00  0.00    +0.000 A 
ATOM     29  C   UNL     1     -14.688  59.159  52.716  0.00  0.00    +0.000 A 
ATOM     30  C   UNL     1     -15.632  56.929  52.694  0.00  0.00    +0.000 A 
ATOM     31  C   UNL     1     -15.408  58.141  53.334  0.00  0.00    +0.000 A 
ATOM     32  F   UNL     1     -15.902  58.339  54.566  0.00  0.00    +0.000 F 
ENDBRANCH  23  26
ENDBRANCH   1  23
TORSDOF 6
ENDMDL
