MODEL 1
REMARK VINA RESULT:      -7.8      0.000      0.000
REMARK  Name = 
REMARK  9 active torsions:
REMARK  status: ('A' for Active; 'I' for Inactive)
REMARK    1  A    between atoms: S_1  and  N_4
REMARK    2  A    between atoms: S_1  and  C_5
REMARK    3  A    between atoms: N_10  and  C_13
REMARK    4  A    between atoms: C_16  and  C_19
REMARK    5  A    between atoms: C_19  and  O_23
REMARK    6  A    between atoms: O_23  and  C_26
REMARK    7  A    between atoms: C_24  and  C_27
REMARK    8  A    between atoms: C_24  and  C_28
REMARK    9  A    between atoms: C_26  and  C_29
REMARK                            x       y       z     vdW  Elec       q    Type
REMARK                         _______ _______ _______ _____ _____    ______ ____
ROOT
ATOM      1  C   UNL     1     -10.938  54.502  51.461  0.00  0.00    +0.000 A 
ATOM      2  S   UNL     1     -10.573  53.739  52.935  0.00  0.00    +0.000 S 
ATOM      3  C   UNL     1      -9.842  55.096  50.857  0.00  0.00    +0.000 A 
ATOM      4  C   UNL     1      -8.900  53.919  52.662  0.00  0.00    +0.000 A 
ATOM      5  C   UNL     1      -8.633  54.648  51.513  0.00  0.00    +0.000 A 
ATOM      6  C   UNL     1      -7.862  53.338  53.586  0.00  0.00    +0.000 C 
ATOM      7  C   UNL     1      -7.229  54.972  51.092  0.00  0.00    +0.000 C 
ATOM      8  C   UNL     1      -6.472  54.009  53.362  0.00  0.00    +0.000 C 
ATOM      9  C   UNL     1      -6.192  54.125  51.840  0.00  0.00    +0.000 C 
ATOM     10  C   UNL     1      -5.360  53.150  53.993  0.00  0.00    +0.000 C 
ATOM     11  C   UNL     1      -6.436  55.396  54.036  0.00  0.00    +0.000 C 
ENDROOT
BRANCH   1  15
ATOM     12  N   UNL     1     -14.434  55.241  51.084  0.00  0.00    +0.000 N 
ATOM     13  C   UNL     1     -13.112  55.425  51.470  0.00  0.00    +0.000 C 
ATOM     14  O   UNL     1     -12.756  56.435  52.055  0.00  0.00    +0.000 OA
ATOM     15  N   UNL     1     -12.264  54.412  51.074  0.00  0.00    +0.000 N 
ATOM     16  H   UNL     1     -14.704  54.388  50.673  0.00  0.00    +0.000 HD
ATOM     17  H   UNL     1     -12.589  53.654  50.538  0.00  0.00    +0.000 HD
BRANCH  12  18
ATOM     18  S   UNL     1     -15.581  56.449  51.306  0.00  0.00    +0.000 S 
ATOM     19  O   UNL     1     -15.671  56.719  52.731  0.00  0.00    +0.000 OA
ATOM     20  O   UNL     1     -16.758  55.988  50.591  0.00  0.00    +0.000 OA
BRANCH  18  21
ATOM     21  C   UNL     1     -14.907  57.877  50.424  0.00  0.00    +0.000 A 
ATOM     22  N   UNL     1     -15.098  59.074  51.031  0.00  0.00    +0.000 NA
ATOM     23  N   UNL     1     -14.285  57.642  49.252  0.00  0.00    +0.000 NA
ATOM     24  C   UNL     1     -14.577  60.120  50.364  0.00  0.00    +0.000 A 
ATOM     25  C   UNL     1     -13.831  58.739  48.625  0.00  0.00    +0.000 A 
ATOM     26  C   UNL     1     -13.939  60.013  49.146  0.00  0.00    +0.000 A 
ENDBRANCH  18  21
ENDBRANCH  12  18
ENDBRANCH   1  15
BRANCH   3  27
ATOM     27  C   UNL     1      -9.902  56.069  49.751  0.00  0.00    +0.000 C 
ATOM     28  O   UNL     1      -9.189  57.059  49.690  0.00  0.00    +0.000 OA
BRANCH  27  29
ATOM     29  O   UNL     1     -10.943  55.826  48.902  0.00  0.00    +0.000 OA
BRANCH  29  30
ATOM     30  C   UNL     1     -10.638  55.325  47.596  0.00  0.00    +0.000 C 
ATOM     31  C   UNL     1     -11.748  55.646  46.615  0.00  0.00    +0.000 C 
ENDBRANCH  29  30
ENDBRANCH  27  29
ENDBRANCH   3  27
TORSDOF 6
ENDMDL
MODEL 2
REMARK VINA RESULT:      -7.7      3.111      7.661
REMARK  Name = 
REMARK  9 active torsions:
REMARK  status: ('A' for Active; 'I' for Inactive)
REMARK    1  A    between atoms: S_1  and  N_4
REMARK    2  A    between atoms: S_1  and  C_5
REMARK    3  A    between atoms: N_10  and  C_13
REMARK    4  A    between atoms: C_16  and  C_19
REMARK    5  A    between atoms: C_19  and  O_23
REMARK    6  A    between atoms: O_23  and  C_26
REMARK    7  A    between atoms: C_24  and  C_27
REMARK    8  A    between atoms: C_24  and  C_28
REMARK    9  A    between atoms: C_26  and  C_29
REMARK                            x       y       z     vdW  Elec       q    Type
REMARK                         _______ _______ _______ _____ _____    ______ ____
ROOT
ATOM      1  C   UNL     1     -11.035  54.810  50.101  0.00  0.00    +0.000 A 
ATOM      2  S   UNL     1     -11.726  54.790  51.653  0.00  0.00    +0.000 S 
ATOM      3  C   UNL     1     -11.651  55.694  49.230  0.00  0.00    +0.000 A 
ATOM      4  C   UNL     1     -12.667  56.167  51.298  0.00  0.00    +0.000 A 
ATOM      5  C   UNL     1     -12.532  56.566  49.977  0.00  0.00    +0.000 A 
ATOM      6  C   UNL     1     -13.533  56.844  52.328  0.00  0.00    +0.000 C 
ATOM      7  C   UNL     1     -13.299  57.730  49.421  0.00  0.00    +0.000 C 
ATOM      8  C   UNL     1     -14.594  57.766  51.651  0.00  0.00    +0.000 C 
ATOM      9  C   UNL     1     -13.918  58.594  50.527  0.00  0.00    +0.000 C 
ATOM     10  C   UNL     1     -15.182  58.745  52.685  0.00  0.00    +0.000 C 
ATOM     11  C   UNL     1     -15.755  56.919  51.091  0.00  0.00    +0.000 C 
ENDROOT
BRANCH   1  15
ATOM     12  N   UNL     1      -7.672  53.551  49.994  0.00  0.00    +0.000 N 
ATOM     13  C   UNL     1      -8.705  54.449  50.231  0.00  0.00    +0.000 C 
ATOM     14  O   UNL     1      -8.491  55.549  50.714  0.00  0.00    +0.000 OA
ATOM     15  N   UNL     1      -9.958  53.956  49.935  0.00  0.00    +0.000 N 
ATOM     16  H   UNL     1      -7.866  52.698  49.541  0.00  0.00    +0.000 HD
ATOM     17  H   UNL     1     -10.082  53.034  49.616  0.00  0.00    +0.000 HD
BRANCH  12  18
ATOM     18  S   UNL     1      -6.095  53.893  50.466  0.00  0.00    +0.000 S 
ATOM     19  O   UNL     1      -5.768  55.224  49.983  0.00  0.00    +0.000 OA
ATOM     20  O   UNL     1      -5.312  52.756  50.016  0.00  0.00    +0.000 OA
BRANCH  18  21
ATOM     21  C   UNL     1      -6.151  53.861  52.273  0.00  0.00    +0.000 A 
ATOM     22  N   UNL     1      -5.511  54.885  52.889  0.00  0.00    +0.000 NA
ATOM     23  N   UNL     1      -6.806  52.836  52.854  0.00  0.00    +0.000 NA
ATOM     24  C   UNL     1      -5.576  54.849  54.233  0.00  0.00    +0.000 A 
ATOM     25  C   UNL     1      -6.790  52.845  54.196  0.00  0.00    +0.000 A 
ATOM     26  C   UNL     1      -6.196  53.842  54.943  0.00  0.00    +0.000 A 
ENDBRANCH  18  21
ENDBRANCH  12  18
ENDBRANCH   1  15
BRANCH   3  27
ATOM     27  C   UNL     1     -11.475  55.710  47.767  0.00  0.00    +0.000 C 
ATOM     28  O   UNL     1     -12.403  55.610  46.978  0.00  0.00    +0.000 OA
BRANCH  27  29
ATOM     29  O   UNL     1     -10.159  55.686  47.403  0.00  0.00    +0.000 OA
BRANCH  29  30
ATOM     30  C   UNL     1      -9.757  54.737  46.409  0.00  0.00    +0.000 C 
ATOM     31  C   UNL     1      -8.294  54.906  46.052  0.00  0.00    +0.000 C 
ENDBRANCH  29  30
ENDBRANCH  27  29
ENDBRANCH   3  27
TORSDOF 6
ENDMDL
MODEL 3
REMARK VINA RESULT:      -7.1      3.969      7.537
REMARK  Name = 
REMARK  9 active torsions:
REMARK  status: ('A' for Active; 'I' for Inactive)
REMARK    1  A    between atoms: S_1  and  N_4
REMARK    2  A    between atoms: S_1  and  C_5
REMARK    3  A    between atoms: N_10  and  C_13
REMARK    4  A    between atoms: C_16  and  C_19
REMARK    5  A    between atoms: C_19  and  O_23
REMARK    6  A    between atoms: O_23  and  C_26
REMARK    7  A    between atoms: C_24  and  C_27
REMARK    8  A    between atoms: C_24  and  C_28
REMARK    9  A    between atoms: C_26  and  C_29
REMARK                            x       y       z     vdW  Elec       q    Type
REMARK                         _______ _______ _______ _____ _____    ______ ____
ROOT
ATOM      1  C   UNL     1      -8.687  54.982  47.187  0.00  0.00    +0.000 A 
ATOM      2  S   UNL     1      -7.472  54.238  46.261  0.00  0.00    +0.000 S 
ATOM      3  C   UNL     1      -9.971  54.687  46.757  0.00  0.00    +0.000 A 
ATOM      4  C   UNL     1      -8.620  53.270  45.455  0.00  0.00    +0.000 A 
ATOM      5  C   UNL     1      -9.920  53.591  45.814  0.00  0.00    +0.000 A 
ATOM      6  C   UNL     1      -8.228  52.198  44.472  0.00  0.00    +0.000 C 
ATOM      7  C   UNL     1     -11.103  52.901  45.200  0.00  0.00    +0.000 C 
ATOM      8  C   UNL     1      -9.437  51.788  43.576  0.00  0.00    +0.000 C 
ATOM      9  C   UNL     1     -10.702  51.620  44.458  0.00  0.00    +0.000 C 
ATOM     10  C   UNL     1      -9.150  50.443  42.881  0.00  0.00    +0.000 C 
ATOM     11  C   UNL     1      -9.667  52.846  42.477  0.00  0.00    +0.000 C 
ENDROOT
BRANCH   1  15
ATOM     12  N   UNL     1      -7.644  56.002  50.470  0.00  0.00    +0.000 N 
ATOM     13  C   UNL     1      -8.065  55.147  49.458  0.00  0.00    +0.000 C 
ATOM     14  O   UNL     1      -8.214  53.953  49.659  0.00  0.00    +0.000 OA
ATOM     15  N   UNL     1      -8.225  55.760  48.234  0.00  0.00    +0.000 N 
ATOM     16  H   UNL     1      -7.597  56.970  50.297  0.00  0.00    +0.000 HD
ATOM     17  H   UNL     1      -8.019  56.714  48.110  0.00  0.00    +0.000 HD
BRANCH  12  18
ATOM     18  S   UNL     1      -7.212  55.412  51.984  0.00  0.00    +0.000 S 
ATOM     19  O   UNL     1      -7.026  56.552  52.866  0.00  0.00    +0.000 OA
ATOM     20  O   UNL     1      -6.101  54.511  51.735  0.00  0.00    +0.000 OA
BRANCH  18  21
ATOM     21  C   UNL     1      -8.636  54.425  52.503  0.00  0.00    +0.000 A 
ATOM     22  N   UNL     1      -8.339  53.194  52.987  0.00  0.00    +0.000 NA
ATOM     23  N   UNL     1      -9.857  54.978  52.364  0.00  0.00    +0.000 NA
ATOM     24  C   UNL     1      -9.411  52.482  53.380  0.00  0.00    +0.000 A 
ATOM     25  C   UNL     1     -10.878  54.191  52.736  0.00  0.00    +0.000 A 
ATOM     26  C   UNL     1     -10.711  52.927  53.267  0.00  0.00    +0.000 A 
ENDBRANCH  18  21
ENDBRANCH  12  18
ENDBRANCH   1  15
BRANCH   3  27
ATOM     27  C   UNL     1     -11.191  55.409  47.161  0.00  0.00    +0.000 C 
ATOM     28  O   UNL     1     -11.922  55.985  46.369  0.00  0.00    +0.000 OA
BRANCH  27  29
ATOM     29  O   UNL     1     -11.317  55.497  48.518  0.00  0.00    +0.000 OA
BRANCH  29  30
ATOM     30  C   UNL     1     -12.391  54.781  49.137  0.00  0.00    +0.000 C 
ATOM     31  C   UNL     1     -12.087  53.299  49.215  0.00  0.00    +0.000 C 
ENDBRANCH  29  30
ENDBRANCH  27  29
ENDBRANCH   3  27
TORSDOF 6
ENDMDL
MODEL 4
REMARK VINA RESULT:      -7.1      2.394      3.142
REMARK  Name = 
REMARK  9 active torsions:
REMARK  status: ('A' for Active; 'I' for Inactive)
REMARK    1  A    between atoms: S_1  and  N_4
REMARK    2  A    between atoms: S_1  and  C_5
REMARK    3  A    between atoms: N_10  and  C_13
REMARK    4  A    between atoms: C_16  and  C_19
REMARK    5  A    between atoms: C_19  and  O_23
REMARK    6  A    between atoms: O_23  and  C_26
REMARK    7  A    between atoms: C_24  and  C_27
REMARK    8  A    between atoms: C_24  and  C_28
REMARK    9  A    between atoms: C_26  and  C_29
REMARK                            x       y       z     vdW  Elec       q    Type
REMARK                         _______ _______ _______ _____ _____    ______ ____
ROOT
ATOM      1  C   UNL     1      -9.997  54.924  50.633  0.00  0.00    +0.000 A 
ATOM      2  S   UNL     1      -9.791  55.017  52.317  0.00  0.00    +0.000 S 
ATOM      3  C   UNL     1      -9.640  53.697  50.096  0.00  0.00    +0.000 A 
ATOM      4  C   UNL     1      -9.505  53.339  52.416  0.00  0.00    +0.000 A 
ATOM      5  C   UNL     1      -9.462  52.740  51.167  0.00  0.00    +0.000 A 
ATOM      6  C   UNL     1      -9.325  52.625  53.731  0.00  0.00    +0.000 C 
ATOM      7  C   UNL     1      -9.180  51.276  51.001  0.00  0.00    +0.000 C 
ATOM      8  C   UNL     1      -8.653  51.233  53.526  0.00  0.00    +0.000 C 
ATOM      9  C   UNL     1      -9.315  50.510  52.324  0.00  0.00    +0.000 C 
ATOM     10  C   UNL     1      -8.847  50.361  54.781  0.00  0.00    +0.000 C 
ATOM     11  C   UNL     1      -7.136  51.403  53.300  0.00  0.00    +0.000 C 
ENDROOT
BRANCH   1  15
ATOM     12  N   UNL     1     -12.287  57.309  49.226  0.00  0.00    +0.000 N 
ATOM     13  C   UNL     1     -11.864  56.149  49.864  0.00  0.00    +0.000 C 
ATOM     14  O   UNL     1     -12.662  55.319  50.266  0.00  0.00    +0.000 OA
ATOM     15  N   UNL     1     -10.499  56.072  50.045  0.00  0.00    +0.000 N 
ATOM     16  H   UNL     1     -11.618  57.927  48.853  0.00  0.00    +0.000 HD
ATOM     17  H   UNL     1      -9.905  56.806  49.767  0.00  0.00    +0.000 HD
BRANCH  12  18
ATOM     18  S   UNL     1     -13.921  57.675  49.081  0.00  0.00    +0.000 S 
ATOM     19  O   UNL     1     -14.574  56.544  48.443  0.00  0.00    +0.000 OA
ATOM     20  O   UNL     1     -13.960  58.978  48.440  0.00  0.00    +0.000 OA
BRANCH  18  21
ATOM     21  C   UNL     1     -14.492  57.868  50.786  0.00  0.00    +0.000 A 
ATOM     22  N   UNL     1     -15.201  56.823  51.279  0.00  0.00    +0.000 NA
ATOM     23  N   UNL     1     -14.178  59.017  51.417  0.00  0.00    +0.000 NA
ATOM     24  C   UNL     1     -15.604  56.982  52.554  0.00  0.00    +0.000 A 
ATOM     25  C   UNL     1     -14.652  59.120  52.669  0.00  0.00    +0.000 A 
ATOM     26  C   UNL     1     -15.366  58.119  53.297  0.00  0.00    +0.000 A 
ENDBRANCH  18  21
ENDBRANCH  12  18
ENDBRANCH   1  15
BRANCH   3  27
ATOM     27  C   UNL     1      -9.426  53.425  48.663  0.00  0.00    +0.000 C 
ATOM     28  O   UNL     1      -8.329  53.173  48.186  0.00  0.00    +0.000 OA
BRANCH  27  29
ATOM     29  O   UNL     1     -10.549  53.644  47.920  0.00  0.00    +0.000 OA
BRANCH  29  30
ATOM     30  C   UNL     1     -10.403  54.332  46.673  0.00  0.00    +0.000 C 
ATOM     31  C   UNL     1     -11.645  55.135  46.343  0.00  0.00    +0.000 C 
ENDBRANCH  29  30
ENDBRANCH  27  29
ENDBRANCH   3  27
TORSDOF 6
ENDMDL
MODEL 5
REMARK VINA RESULT:      -6.9      2.115      2.420
REMARK  Name = 
REMARK  9 active torsions:
REMARK  status: ('A' for Active; 'I' for Inactive)
REMARK    1  A    between atoms: S_1  and  N_4
REMARK    2  A    between atoms: S_1  and  C_5
REMARK    3  A    between atoms: N_10  and  C_13
REMARK    4  A    between atoms: C_16  and  C_19
REMARK    5  A    between atoms: C_19  and  O_23
REMARK    6  A    between atoms: O_23  and  C_26
REMARK    7  A    between atoms: C_24  and  C_27
REMARK    8  A    between atoms: C_24  and  C_28
REMARK    9  A    between atoms: C_26  and  C_29
REMARK                            x       y       z     vdW  Elec       q    Type
REMARK                         _______ _______ _______ _____ _____    ______ ____
ROOT
ATOM      1  C   UNL     1     -11.298  53.405  50.502  0.00  0.00    +0.000 A 
ATOM      2  S   UNL     1     -10.659  52.359  51.677  0.00  0.00    +0.000 S 
ATOM      3  C   UNL     1     -10.422  53.674  49.462  0.00  0.00    +0.000 A 
ATOM      4  C   UNL     1      -9.317  52.000  50.690  0.00  0.00    +0.000 A 
ATOM      5  C   UNL     1      -9.307  52.754  49.526  0.00  0.00    +0.000 A 
ATOM      6  C   UNL     1      -8.281  50.975  51.072  0.00  0.00    +0.000 C 
ATOM      7  C   UNL     1      -8.198  52.642  48.521  0.00  0.00    +0.000 C 
ATOM      8  C   UNL     1      -6.974  51.162  50.242  0.00  0.00    +0.000 C 
ATOM      9  C   UNL     1      -7.335  51.395  48.751  0.00  0.00    +0.000 C 
ATOM     10  C   UNL     1      -6.102  49.895  50.335  0.00  0.00    +0.000 C 
ATOM     11  C   UNL     1      -6.152  52.341  50.802  0.00  0.00    +0.000 C 
ENDROOT
BRANCH   1  15
ATOM     12  N   UNL     1     -14.088  55.383  51.603  0.00  0.00    +0.000 N 
ATOM     13  C   UNL     1     -12.762  55.051  51.353  0.00  0.00    +0.000 C 
ATOM     14  O   UNL     1     -11.855  55.825  51.610  0.00  0.00    +0.000 OA
ATOM     15  N   UNL     1     -12.595  53.826  50.742  0.00  0.00    +0.000 N 
ATOM     16  H   UNL     1     -14.792  54.713  51.448  0.00  0.00    +0.000 HD
ATOM     17  H   UNL     1     -13.367  53.272  50.488  0.00  0.00    +0.000 HD
BRANCH  12  18
ATOM     18  S   UNL     1     -14.511  56.909  52.168  0.00  0.00    +0.000 S 
ATOM     19  O   UNL     1     -13.559  57.278  53.201  0.00  0.00    +0.000 OA
ATOM     20  O   UNL     1     -15.922  56.811  52.497  0.00  0.00    +0.000 OA
BRANCH  18  21
ATOM     21  C   UNL     1     -14.342  57.984  50.724  0.00  0.00    +0.000 A 
ATOM     22  N   UNL     1     -14.463  59.311  50.975  0.00  0.00    +0.000 NA
ATOM     23  N   UNL     1     -14.119  57.392  49.534  0.00  0.00    +0.000 NA
ATOM     24  C   UNL     1     -14.320  60.094  49.889  0.00  0.00    +0.000 A 
ATOM     25  C   UNL     1     -14.032  58.235  48.493  0.00  0.00    +0.000 A 
ATOM     26  C   UNL     1     -14.114  59.608  48.615  0.00  0.00    +0.000 A 
ENDBRANCH  18  21
ENDBRANCH  12  18
ENDBRANCH   1  15
BRANCH   3  27
ATOM     27  C   UNL     1     -10.577  54.760  48.477  0.00  0.00    +0.000 C 
ATOM     28  O   UNL     1      -9.860  55.749  48.451  0.00  0.00    +0.000 OA
BRANCH  27  29
ATOM     29  O   UNL     1     -11.699  54.611  47.713  0.00  0.00    +0.000 OA
BRANCH  29  30
ATOM     30  C   UNL     1     -11.688  53.602  46.698  0.00  0.00    +0.000 C 
ATOM     31  C   UNL     1     -10.575  53.845  45.698  0.00  0.00    +0.000 C 
ENDBRANCH  29  30
ENDBRANCH  27  29
ENDBRANCH   3  27
TORSDOF 6
ENDMDL
MODEL 6
REMARK VINA RESULT:      -6.8      3.982      8.145
REMARK  Name = 
REMARK  9 active torsions:
REMARK  status: ('A' for Active; 'I' for Inactive)
REMARK    1  A    between atoms: S_1  and  N_4
REMARK    2  A    between atoms: S_1  and  C_5
REMARK    3  A    between atoms: N_10  and  C_13
REMARK    4  A    between atoms: C_16  and  C_19
REMARK    5  A    between atoms: C_19  and  O_23
REMARK    6  A    between atoms: O_23  and  C_26
REMARK    7  A    between atoms: C_24  and  C_27
REMARK    8  A    between atoms: C_24  and  C_28
REMARK    9  A    between atoms: C_26  and  C_29
REMARK                            x       y       z     vdW  Elec       q    Type
REMARK                         _______ _______ _______ _____ _____    ______ ____
ROOT
ATOM      1  C   UNL     1      -8.736  54.954  47.273  0.00  0.00    +0.000 A 
ATOM      2  S   UNL     1      -7.527  54.147  46.393  0.00  0.00    +0.000 S 
ATOM      3  C   UNL     1     -10.017  54.721  46.799  0.00  0.00    +0.000 A 
ATOM      4  C   UNL     1      -8.693  53.233  45.549  0.00  0.00    +0.000 A 
ATOM      5  C   UNL     1      -9.987  53.621  45.860  0.00  0.00    +0.000 A 
ATOM      6  C   UNL     1      -8.320  52.140  44.583  0.00  0.00    +0.000 C 
ATOM      7  C   UNL     1     -11.181  52.987  45.207  0.00  0.00    +0.000 C 
ATOM      8  C   UNL     1      -9.515  51.787  43.645  0.00  0.00    +0.000 C 
ATOM      9  C   UNL     1     -10.818  51.685  44.482  0.00  0.00    +0.000 C 
ATOM     10  C   UNL     1      -9.272  50.427  42.964  0.00  0.00    +0.000 C 
ATOM     11  C   UNL     1      -9.654  52.851  42.537  0.00  0.00    +0.000 C 
ENDROOT
BRANCH   1  15
ATOM     12  N   UNL     1      -7.834  55.961  50.603  0.00  0.00    +0.000 N 
ATOM     13  C   UNL     1      -8.267  55.123  49.581  0.00  0.00    +0.000 C 
ATOM     14  O   UNL     1      -8.555  53.957  49.796  0.00  0.00    +0.000 OA
ATOM     15  N   UNL     1      -8.273  55.712  48.335  0.00  0.00    +0.000 N 
ATOM     16  H   UNL     1      -7.675  56.913  50.412  0.00  0.00    +0.000 HD
ATOM     17  H   UNL     1      -7.960  56.636  48.205  0.00  0.00    +0.000 HD
BRANCH  12  18
ATOM     18  S   UNL     1      -7.579  55.377  52.158  0.00  0.00    +0.000 S 
ATOM     19  O   UNL     1      -8.813  54.754  52.606  0.00  0.00    +0.000 OA
ATOM     20  O   UNL     1      -7.035  56.502  52.898  0.00  0.00    +0.000 OA
BRANCH  18  21
ATOM     21  C   UNL     1      -6.270  54.143  51.964  0.00  0.00    +0.000 A 
ATOM     22  N   UNL     1      -6.521  52.940  52.537  0.00  0.00    +0.000 NA
ATOM     23  N   UNL     1      -5.167  54.513  51.285  0.00  0.00    +0.000 NA
ATOM     24  C   UNL     1      -5.541  52.034  52.369  0.00  0.00    +0.000 A 
ATOM     25  C   UNL     1      -4.216  53.570  51.198  0.00  0.00    +0.000 A 
ATOM     26  C   UNL     1      -4.356  52.298  51.715  0.00  0.00    +0.000 A 
ENDBRANCH  18  21
ENDBRANCH  12  18
ENDBRANCH   1  15
BRANCH   3  27
ATOM     27  C   UNL     1     -11.213  55.505  47.158  0.00  0.00    +0.000 C 
ATOM     28  O   UNL     1     -11.909  56.081  46.335  0.00  0.00    +0.000 OA
BRANCH  27  29
ATOM     29  O   UNL     1     -11.356  55.644  48.509  0.00  0.00    +0.000 OA
BRANCH  29  30
ATOM     30  C   UNL     1     -12.208  54.717  49.190  0.00  0.00    +0.000 C 
ATOM     31  C   UNL     1     -13.324  55.436  49.920  0.00  0.00    +0.000 C 
ENDBRANCH  29  30
ENDBRANCH  27  29
ENDBRANCH   3  27
TORSDOF 6
ENDMDL
MODEL 7
REMARK VINA RESULT:      -6.5      1.677      2.171
REMARK  Name = 
REMARK  9 active torsions:
REMARK  status: ('A' for Active; 'I' for Inactive)
REMARK    1  A    between atoms: S_1  and  N_4
REMARK    2  A    between atoms: S_1  and  C_5
REMARK    3  A    between atoms: N_10  and  C_13
REMARK    4  A    between atoms: C_16  and  C_19
REMARK    5  A    between atoms: C_19  and  O_23
REMARK    6  A    between atoms: O_23  and  C_26
REMARK    7  A    between atoms: C_24  and  C_27
REMARK    8  A    between atoms: C_24  and  C_28
REMARK    9  A    between atoms: C_26  and  C_29
REMARK                            x       y       z     vdW  Elec       q    Type
REMARK                         _______ _______ _______ _____ _____    ______ ____
ROOT
ATOM      1  C   UNL     1     -11.041  53.724  51.485  0.00  0.00    +0.000 A 
ATOM      2  S   UNL     1     -10.441  54.099  53.029  0.00  0.00    +0.000 S 
ATOM      3  C   UNL     1     -10.051  53.451  50.555  0.00  0.00    +0.000 A 
ATOM      4  C   UNL     1      -8.868  53.618  52.580  0.00  0.00    +0.000 A 
ATOM      5  C   UNL     1      -8.787  53.280  51.238  0.00  0.00    +0.000 A 
ATOM      6  C   UNL     1      -7.723  53.578  53.559  0.00  0.00    +0.000 C 
ATOM      7  C   UNL     1      -7.491  52.866  50.604  0.00  0.00    +0.000 C 
ATOM      8  C   UNL     1      -6.352  53.542  52.818  0.00  0.00    +0.000 C 
ATOM      9  C   UNL     1      -6.422  52.523  51.649  0.00  0.00    +0.000 C 
ATOM     10  C   UNL     1      -5.239  53.093  53.783  0.00  0.00    +0.000 C 
ATOM     11  C   UNL     1      -5.988  54.950  52.301  0.00  0.00    +0.000 C 
ENDROOT
BRANCH   1  15
ATOM     12  N   UNL     1     -14.405  54.845  50.905  0.00  0.00    +0.000 N 
ATOM     13  C   UNL     1     -13.017  54.896  50.938  0.00  0.00    +0.000 C 
ATOM     14  O   UNL     1     -12.409  55.879  50.547  0.00  0.00    +0.000 OA
ATOM     15  N   UNL     1     -12.421  53.734  51.381  0.00  0.00    +0.000 N 
ATOM     16  H   UNL     1     -14.870  54.067  51.289  0.00  0.00    +0.000 HD
ATOM     17  H   UNL     1     -12.957  52.942  51.614  0.00  0.00    +0.000 HD
BRANCH  12  18
ATOM     18  S   UNL     1     -15.306  56.089  50.221  0.00  0.00    +0.000 S 
ATOM     19  O   UNL     1     -16.664  55.605  50.041  0.00  0.00    +0.000 OA
ATOM     20  O   UNL     1     -14.539  56.517  49.064  0.00  0.00    +0.000 OA
BRANCH  18  21
ATOM     21  C   UNL     1     -15.253  57.411  51.453  0.00  0.00    +0.000 A 
ATOM     22  N   UNL     1     -15.545  57.031  52.721  0.00  0.00    +0.000 NA
ATOM     23  N   UNL     1     -14.941  58.649  51.020  0.00  0.00    +0.000 NA
ATOM     24  C   UNL     1     -15.487  58.028  53.624  0.00  0.00    +0.000 A 
ATOM     25  C   UNL     1     -14.946  59.597  51.971  0.00  0.00    +0.000 A 
ATOM     26  C   UNL     1     -15.202  59.338  53.302  0.00  0.00    +0.000 A 
ENDBRANCH  18  21
ENDBRANCH  12  18
ENDBRANCH   1  15
BRANCH   3  27
ATOM     27  C   UNL     1     -10.246  53.394  49.095  0.00  0.00    +0.000 C 
ATOM     28  O   UNL     1     -10.318  52.347  48.469  0.00  0.00    +0.000 OA
BRANCH  27  29
ATOM     29  O   UNL     1     -10.174  54.627  48.513  0.00  0.00    +0.000 OA
BRANCH  29  30
ATOM     30  C   UNL     1     -10.477  54.726  47.117  0.00  0.00    +0.000 C 
ATOM     31  C   UNL     1     -11.704  55.585  46.885  0.00  0.00    +0.000 C 
ENDBRANCH  29  30
ENDBRANCH  27  29
ENDBRANCH   3  27
TORSDOF 6
ENDMDL
MODEL 8
REMARK VINA RESULT:      -6.5      4.552      7.540
REMARK  Name = 
REMARK  9 active torsions:
REMARK  status: ('A' for Active; 'I' for Inactive)
REMARK    1  A    between atoms: S_1  and  N_4
REMARK    2  A    between atoms: S_1  and  C_5
REMARK    3  A    between atoms: N_10  and  C_13
REMARK    4  A    between atoms: C_16  and  C_19
REMARK    5  A    between atoms: C_19  and  O_23
REMARK    6  A    between atoms: O_23  and  C_26
REMARK    7  A    between atoms: C_24  and  C_27
REMARK    8  A    between atoms: C_24  and  C_28
REMARK    9  A    between atoms: C_26  and  C_29
REMARK                            x       y       z     vdW  Elec       q    Type
REMARK                         _______ _______ _______ _____ _____    ______ ____
ROOT
ATOM      1  C   UNL     1      -9.821  53.186  48.413  0.00  0.00    +0.000 A 
ATOM      2  S   UNL     1     -10.663  51.946  47.613  0.00  0.00    +0.000 S 
ATOM      3  C   UNL     1      -8.814  53.755  47.649  0.00  0.00    +0.000 A 
ATOM      4  C   UNL     1      -9.913  52.334  46.132  0.00  0.00    +0.000 A 
ATOM      5  C   UNL     1      -8.954  53.326  46.275  0.00  0.00    +0.000 A 
ATOM      6  C   UNL     1     -10.277  51.656  44.837  0.00  0.00    +0.000 C 
ATOM      7  C   UNL     1      -8.131  53.802  45.114  0.00  0.00    +0.000 C 
ATOM      8  C   UNL     1      -9.168  51.866  43.761  0.00  0.00    +0.000 C 
ATOM      9  C   UNL     1      -8.714  53.350  43.769  0.00  0.00    +0.000 C 
ATOM     10  C   UNL     1      -9.719  51.538  42.361  0.00  0.00    +0.000 C 
ATOM     11  C   UNL     1      -7.977  50.924  44.032  0.00  0.00    +0.000 C 
ENDROOT
BRANCH   1  15
ATOM     12  N   UNL     1     -10.292  52.973  51.968  0.00  0.00    +0.000 N 
ATOM     13  C   UNL     1      -9.765  52.675  50.717  0.00  0.00    +0.000 C 
ATOM     14  O   UNL     1      -8.896  51.829  50.580  0.00  0.00    +0.000 OA
ATOM     15  N   UNL     1     -10.264  53.455  49.696  0.00  0.00    +0.000 N 
ATOM     16  H   UNL     1     -11.039  53.610  52.039  0.00  0.00    +0.000 HD
ATOM     17  H   UNL     1     -10.911  54.175  49.872  0.00  0.00    +0.000 HD
BRANCH  12  18
ATOM     18  S   UNL     1      -9.677  52.264  53.363  0.00  0.00    +0.000 S 
ATOM     19  O   UNL     1      -9.223  50.928  53.017  0.00  0.00    +0.000 OA
ATOM     20  O   UNL     1     -10.720  52.429  54.360  0.00  0.00    +0.000 OA
BRANCH  18  21
ATOM     21  C   UNL     1      -8.282  53.317  53.824  0.00  0.00    +0.000 A 
ATOM     22  N   UNL     1      -8.487  54.648  53.667  0.00  0.00    +0.000 NA
ATOM     23  N   UNL     1      -7.167  52.707  54.271  0.00  0.00    +0.000 NA
ATOM     24  C   UNL     1      -7.440  55.414  54.029  0.00  0.00    +0.000 A 
ATOM     25  C   UNL     1      -6.153  53.534  54.570  0.00  0.00    +0.000 A 
ATOM     26  C   UNL     1      -6.239  54.908  54.479  0.00  0.00    +0.000 A 
ENDBRANCH  18  21
ENDBRANCH  12  18
ENDBRANCH   1  15
BRANCH   3  27
ATOM     27  C   UNL     1      -7.740  54.623  48.167  0.00  0.00    +0.000 C 
ATOM     28  O   UNL     1      -6.552  54.401  47.983  0.00  0.00    +0.000 OA
BRANCH  27  29
ATOM     29  O   UNL     1      -8.214  55.596  48.999  0.00  0.00    +0.000 OA
BRANCH  29  30
ATOM     30  C   UNL     1      -7.601  55.734  50.285  0.00  0.00    +0.000 C 
ATOM     31  C   UNL     1      -7.685  57.164  50.779  0.00  0.00    +0.000 C 
ENDBRANCH  29  30
ENDBRANCH  27  29
ENDBRANCH   3  27
TORSDOF 6
ENDMDL
MODEL 9
REMARK VINA RESULT:      -6.3      3.872      7.625
REMARK  Name = 
REMARK  9 active torsions:
REMARK  status: ('A' for Active; 'I' for Inactive)
REMARK    1  A    between atoms: S_1  and  N_4
REMARK    2  A    between atoms: S_1  and  C_5
REMARK    3  A    between atoms: N_10  and  C_13
REMARK    4  A    between atoms: C_16  and  C_19
REMARK    5  A    between atoms: C_19  and  O_23
REMARK    6  A    between atoms: O_23  and  C_26
REMARK    7  A    between atoms: C_24  and  C_27
REMARK    8  A    between atoms: C_24  and  C_28
REMARK    9  A    between atoms: C_26  and  C_29
REMARK                            x       y       z     vdW  Elec       q    Type
REMARK                         _______ _______ _______ _____ _____    ______ ____
ROOT
ATOM      1  C   UNL     1     -10.178  52.410  49.054  0.00  0.00    +0.000 A 
ATOM      2  S   UNL     1      -9.515  51.189  48.077  0.00  0.00    +0.000 S 
ATOM      3  C   UNL     1     -10.567  53.537  48.346  0.00  0.00    +0.000 A 
ATOM      4  C   UNL     1     -10.000  52.000  46.659  0.00  0.00    +0.000 A 
ATOM      5  C   UNL     1     -10.563  53.238  46.930  0.00  0.00    +0.000 A 
ATOM      6  C   UNL     1      -9.820  51.408  45.285  0.00  0.00    +0.000 C 
ATOM      7  C   UNL     1     -11.025  54.153  45.835  0.00  0.00    +0.000 C 
ATOM      8  C   UNL     1      -9.927  52.505  44.182  0.00  0.00    +0.000 C 
ATOM      9  C   UNL     1     -11.136  53.429  44.487  0.00  0.00    +0.000 C 
ATOM     10  C   UNL     1     -10.153  51.853  42.805  0.00  0.00    +0.000 C 
ATOM     11  C   UNL     1      -8.617  53.316  44.110  0.00  0.00    +0.000 C 
ENDROOT
BRANCH   1  15
ATOM     12  N   UNL     1      -9.201  51.648  52.426  0.00  0.00    +0.000 N 
ATOM     13  C   UNL     1      -9.055  52.004  51.090  0.00  0.00    +0.000 C 
ATOM     14  O   UNL     1      -7.959  52.257  50.617  0.00  0.00    +0.000 OA
ATOM     15  N   UNL     1     -10.245  52.104  50.402  0.00  0.00    +0.000 N 
ATOM     16  H   UNL     1     -10.088  51.385  52.762  0.00  0.00    +0.000 HD
ATOM     17  H   UNL     1     -11.109  51.962  50.851  0.00  0.00    +0.000 HD
BRANCH  12  18
ATOM     18  S   UNL     1      -7.889  51.658  53.477  0.00  0.00    +0.000 S 
ATOM     19  O   UNL     1      -6.837  50.853  52.880  0.00  0.00    +0.000 OA
ATOM     20  O   UNL     1      -8.437  51.275  54.767  0.00  0.00    +0.000 OA
BRANCH  18  21
ATOM     21  C   UNL     1      -7.397  53.396  53.565  0.00  0.00    +0.000 A 
ATOM     22  N   UNL     1      -8.386  54.259  53.903  0.00  0.00    +0.000 NA
ATOM     23  N   UNL     1      -6.112  53.690  53.286  0.00  0.00    +0.000 NA
ATOM     24  C   UNL     1      -7.995  55.545  53.976  0.00  0.00    +0.000 A 
ATOM     25  C   UNL     1      -5.809  54.997  53.337  0.00  0.00    +0.000 A 
ATOM     26  C   UNL     1      -6.716  55.975  53.691  0.00  0.00    +0.000 A 
ENDBRANCH  18  21
ENDBRANCH  12  18
ENDBRANCH   1  15
BRANCH   3  27
ATOM     27  C   UNL     1     -10.887  54.848  48.940  0.00  0.00    +0.000 C 
ATOM     28  O   UNL     1     -10.228  55.856  48.733  0.00  0.00    +0.000 OA
BRANCH  27  29
ATOM     29  O   UNL     1     -11.891  54.769  49.862  0.00  0.00    +0.000 OA
BRANCH  29  30
ATOM     30  C   UNL     1     -11.936  55.765  50.889  0.00  0.00    +0.000 C 
ATOM     31  C   UNL     1     -11.408  55.221  52.201  0.00  0.00    +0.000 C 
ENDBRANCH  29  30
ENDBRANCH  27  29
ENDBRANCH   3  27
TORSDOF 6
ENDMDL
