MODEL 1
REMARK VINA RESULT:      -7.9      0.000      0.000
REMARK  Name = 
REMARK  9 active torsions:
REMARK  status: ('A' for Active; 'I' for Inactive)
REMARK    1  A    between atoms: S_1  and  N_4
REMARK    2  A    between atoms: S_1  and  C_5
REMARK    3  A    between atoms: N_10  and  C_13
REMARK    4  A    between atoms: C_16  and  C_19
REMARK    5  A    between atoms: C_19  and  O_23
REMARK    6  A    between atoms: O_23  and  C_26
REMARK    7  A    between atoms: C_24  and  C_27
REMARK    8  A    between atoms: C_24  and  C_28
REMARK    9  A    between atoms: C_26  and  C_29
REMARK                            x       y       z     vdW  Elec       q    Type
REMARK                         _______ _______ _______ _____ _____    ______ ____
ROOT
ATOM      1  C   UNL     1     -11.036  54.396  51.605  0.00  0.00    +0.000 A 
ATOM      2  S   UNL     1     -10.568  53.868  53.162  0.00  0.00    +0.000 S 
ATOM      3  C   UNL     1      -9.977  54.868  50.854  0.00  0.00    +0.000 A 
ATOM      4  C   UNL     1      -8.910  54.044  52.781  0.00  0.00    +0.000 A 
ATOM      5  C   UNL     1      -8.725  54.577  51.514  0.00  0.00    +0.000 A 
ATOM      6  C   UNL     1      -7.786  53.669  53.732  0.00  0.00    +0.000 C 
ATOM      7  C   UNL     1      -7.363  54.884  50.970  0.00  0.00    +0.000 C 
ATOM      8  C   UNL     1      -6.440  54.354  53.313  0.00  0.00    +0.000 C 
ATOM      9  C   UNL     1      -6.253  54.212  51.782  0.00  0.00    +0.000 C 
ATOM     10  C   UNL     1      -5.222  53.687  53.982  0.00  0.00    +0.000 C 
ATOM     11  C   UNL     1      -6.446  55.838  53.737  0.00  0.00    +0.000 C 
ENDROOT
BRANCH   1  15
ATOM     12  N   UNL     1     -14.548  55.230  51.248  0.00  0.00    +0.000 N 
ATOM     13  C   UNL     1     -13.188  55.378  51.547  0.00  0.00    +0.000 C 
ATOM     14  O   UNL     1     -12.769  56.444  51.978  0.00  0.00    +0.000 OA
ATOM     15  N   UNL     1     -12.391  54.283  51.291  0.00  0.00    +0.000 N 
ATOM     16  H   UNL     1     -14.878  54.352  50.946  0.00  0.00    +0.000 HD
ATOM     17  H   UNL     1     -12.762  53.457  50.904  0.00  0.00    +0.000 HD
BRANCH  12  18
ATOM     18  S   UNL     1     -15.634  56.503  51.388  0.00  0.00    +0.000 S 
ATOM     19  O   UNL     1     -15.703  56.870  52.794  0.00  0.00    +0.000 OA
ATOM     20  O   UNL     1     -16.841  56.081  50.704  0.00  0.00    +0.000 OA
BRANCH  18  21
ATOM     21  C   UNL     1     -14.930  57.877  50.464  0.00  0.00    +0.000 A 
ATOM     22  N   UNL     1     -14.401  57.529  49.258  0.00  0.00    +0.000 NA
ATOM     23  C   UNL     1     -14.963  59.172  50.972  0.00  0.00    +0.000 A 
ATOM     24  C   UNL     1     -13.898  58.548  48.525  0.00  0.00    +0.000 A 
ATOM     25  C   UNL     1     -14.415  60.188  50.190  0.00  0.00    +0.000 A 
ATOM     26  C   UNL     1     -13.877  59.874  48.943  0.00  0.00    +0.000 A 
ENDBRANCH  18  21
ENDBRANCH  12  18
ENDBRANCH   1  15
BRANCH   3  27
ATOM     27  C   UNL     1     -10.115  55.644  49.613  0.00  0.00    +0.000 C 
ATOM     28  O   UNL     1      -9.915  56.850  49.540  0.00  0.00    +0.000 OA
BRANCH  27  29
ATOM     29  O   UNL     1     -10.655  54.900  48.607  0.00  0.00    +0.000 OA
BRANCH  29  30
ATOM     30  C   UNL     1     -11.820  55.391  47.949  0.00  0.00    +0.000 C 
ATOM     31  C   UNL     1     -11.583  55.435  46.454  0.00  0.00    +0.000 C 
ENDBRANCH  29  30
ENDBRANCH  27  29
ENDBRANCH   3  27
TORSDOF 6
ENDMDL
MODEL 2
REMARK VINA RESULT:      -7.5      2.820      7.692
REMARK  Name = 
REMARK  9 active torsions:
REMARK  status: ('A' for Active; 'I' for Inactive)
REMARK    1  A    between atoms: S_1  and  N_4
REMARK    2  A    between atoms: S_1  and  C_5
REMARK    3  A    between atoms: N_10  and  C_13
REMARK    4  A    between atoms: C_16  and  C_19
REMARK    5  A    between atoms: C_19  and  O_23
REMARK    6  A    between atoms: O_23  and  C_26
REMARK    7  A    between atoms: C_24  and  C_27
REMARK    8  A    between atoms: C_24  and  C_28
REMARK    9  A    between atoms: C_26  and  C_29
REMARK                            x       y       z     vdW  Elec       q    Type
REMARK                         _______ _______ _______ _____ _____    ______ ____
ROOT
ATOM      1  C   UNL     1     -11.071  54.863  50.172  0.00  0.00    +0.000 A 
ATOM      2  S   UNL     1     -11.719  54.881  51.754  0.00  0.00    +0.000 S 
ATOM      3  C   UNL     1     -11.690  55.762  49.325  0.00  0.00    +0.000 A 
ATOM      4  C   UNL     1     -12.683  56.249  51.400  0.00  0.00    +0.000 A 
ATOM      5  C   UNL     1     -12.570  56.630  50.071  0.00  0.00    +0.000 A 
ATOM      6  C   UNL     1     -13.562  56.945  52.425  0.00  0.00    +0.000 C 
ATOM      7  C   UNL     1     -13.362  57.766  49.498  0.00  0.00    +0.000 C 
ATOM      8  C   UNL     1     -14.644  57.838  51.728  0.00  0.00    +0.000 C 
ATOM      9  C   UNL     1     -13.978  58.647  50.588  0.00  0.00    +0.000 C 
ATOM     10  C   UNL     1     -15.265  58.858  52.704  0.00  0.00    +0.000 C 
ATOM     11  C   UNL     1     -15.791  56.957  51.188  0.00  0.00    +0.000 C 
ENDROOT
BRANCH   1  15
ATOM     12  N   UNL     1      -7.717  53.490  50.021  0.00  0.00    +0.000 N 
ATOM     13  C   UNL     1      -8.754  54.391  50.288  0.00  0.00    +0.000 C 
ATOM     14  O   UNL     1      -8.511  55.463  50.827  0.00  0.00    +0.000 OA
ATOM     15  N   UNL     1     -10.021  53.973  49.941  0.00  0.00    +0.000 N 
ATOM     16  H   UNL     1      -7.922  52.653  49.545  0.00  0.00    +0.000 HD
ATOM     17  H   UNL     1     -10.179  53.085  49.546  0.00  0.00    +0.000 HD
BRANCH  12  18
ATOM     18  S   UNL     1      -6.133  53.793  50.490  0.00  0.00    +0.000 S 
ATOM     19  O   UNL     1      -5.783  55.125  50.022  0.00  0.00    +0.000 OA
ATOM     20  O   UNL     1      -5.354  52.655  50.039  0.00  0.00    +0.000 OA
BRANCH  18  21
ATOM     21  C   UNL     1      -6.124  53.789  52.289  0.00  0.00    +0.000 A 
ATOM     22  N   UNL     1      -5.770  54.979  52.851  0.00  0.00    +0.000 NA
ATOM     23  C   UNL     1      -6.474  52.648  53.004  0.00  0.00    +0.000 A 
ATOM     24  C   UNL     1      -5.790  55.016  54.202  0.00  0.00    +0.000 A 
ATOM     25  C   UNL     1      -6.463  52.728  54.395  0.00  0.00    +0.000 A 
ATOM     26  C   UNL     1      -6.120  53.932  55.008  0.00  0.00    +0.000 A 
ENDBRANCH  18  21
ENDBRANCH  12  18
ENDBRANCH   1  15
BRANCH   3  27
ATOM     27  C   UNL     1     -11.546  55.762  47.861  0.00  0.00    +0.000 C 
ATOM     28  O   UNL     1     -12.483  55.612  47.087  0.00  0.00    +0.000 OA
BRANCH  27  29
ATOM     29  O   UNL     1     -10.239  55.772  47.480  0.00  0.00    +0.000 OA
BRANCH  29  30
ATOM     30  C   UNL     1      -9.812  54.838  46.491  0.00  0.00    +0.000 C 
ATOM     31  C   UNL     1      -8.306  54.897  46.348  0.00  0.00    +0.000 C 
ENDBRANCH  29  30
ENDBRANCH  27  29
ENDBRANCH   3  27
TORSDOF 6
ENDMDL
MODEL 3
REMARK VINA RESULT:      -7.1      2.358      3.094
REMARK  Name = 
REMARK  9 active torsions:
REMARK  status: ('A' for Active; 'I' for Inactive)
REMARK    1  A    between atoms: S_1  and  N_4
REMARK    2  A    between atoms: S_1  and  C_5
REMARK    3  A    between atoms: N_10  and  C_13
REMARK    4  A    between atoms: C_16  and  C_19
REMARK    5  A    between atoms: C_19  and  O_23
REMARK    6  A    between atoms: O_23  and  C_26
REMARK    7  A    between atoms: C_24  and  C_27
REMARK    8  A    between atoms: C_24  and  C_28
REMARK    9  A    between atoms: C_26  and  C_29
REMARK                            x       y       z     vdW  Elec       q    Type
REMARK                         _______ _______ _______ _____ _____    ______ ____
ROOT
ATOM      1  C   UNL     1      -8.366  55.772  49.993  0.00  0.00    +0.000 A 
ATOM      2  S   UNL     1      -7.849  56.079  51.594  0.00  0.00    +0.000 S 
ATOM      3  C   UNL     1      -7.684  54.730  49.396  0.00  0.00    +0.000 A 
ATOM      4  C   UNL     1      -6.865  54.680  51.600  0.00  0.00    +0.000 A 
ATOM      5  C   UNL     1      -6.871  54.039  50.369  0.00  0.00    +0.000 A 
ATOM      6  C   UNL     1      -6.076  54.213  52.811  0.00  0.00    +0.000 C 
ATOM      7  C   UNL     1      -6.040  52.822  50.102  0.00  0.00    +0.000 C 
ATOM      8  C   UNL     1      -4.944  53.212  52.397  0.00  0.00    +0.000 C 
ATOM      9  C   UNL     1      -5.518  52.183  51.391  0.00  0.00    +0.000 C 
ATOM     10  C   UNL     1      -4.409  52.416  53.604  0.00  0.00    +0.000 C 
ATOM     11  C   UNL     1      -3.753  53.981  51.785  0.00  0.00    +0.000 C 
ENDROOT
BRANCH   1  15
ATOM     12  N   UNL     1     -11.682  56.929  49.086  0.00  0.00    +0.000 N 
ATOM     13  C   UNL     1     -10.677  56.105  49.609  0.00  0.00    +0.000 C 
ATOM     14  O   UNL     1     -10.971  55.045  50.144  0.00  0.00    +0.000 OA
ATOM     15  N   UNL     1      -9.389  56.586  49.504  0.00  0.00    +0.000 N 
ATOM     16  H   UNL     1     -11.427  57.756  48.617  0.00  0.00    +0.000 HD
ATOM     17  H   UNL     1      -9.200  57.464  49.102  0.00  0.00    +0.000 HD
BRANCH  12  18
ATOM     18  S   UNL     1     -13.311  56.549  49.238  0.00  0.00    +0.000 S 
ATOM     19  O   UNL     1     -13.408  55.120  49.492  0.00  0.00    +0.000 OA
ATOM     20  O   UNL     1     -13.966  57.108  48.071  0.00  0.00    +0.000 OA
BRANCH  18  21
ATOM     21  C   UNL     1     -13.910  57.437  50.684  0.00  0.00    +0.000 A 
ATOM     22  N   UNL     1     -14.476  58.645  50.406  0.00  0.00    +0.000 NA
ATOM     23  C   UNL     1     -13.798  56.888  51.957  0.00  0.00    +0.000 A 
ATOM     24  C   UNL     1     -14.967  59.318  51.470  0.00  0.00    +0.000 A 
ATOM     25  C   UNL     1     -14.303  57.627  53.026  0.00  0.00    +0.000 A 
ATOM     26  C   UNL     1     -14.902  58.861  52.781  0.00  0.00    +0.000 A 
ENDBRANCH  18  21
ENDBRANCH  12  18
ENDBRANCH   1  15
BRANCH   3  27
ATOM     27  C   UNL     1      -7.708  54.436  47.956  0.00  0.00    +0.000 C 
ATOM     28  O   UNL     1      -6.756  54.624  47.208  0.00  0.00    +0.000 OA
BRANCH  27  29
ATOM     29  O   UNL     1      -8.956  54.098  47.527  0.00  0.00    +0.000 OA
BRANCH  29  30
ATOM     30  C   UNL     1      -9.483  54.759  46.380  0.00  0.00    +0.000 C 
ATOM     31  C   UNL     1     -10.973  54.505  46.282  0.00  0.00    +0.000 C 
ENDBRANCH  29  30
ENDBRANCH  27  29
ENDBRANCH   3  27
TORSDOF 6
ENDMDL
MODEL 4
REMARK VINA RESULT:      -7.0      3.831      7.308
REMARK  Name = 
REMARK  9 active torsions:
REMARK  status: ('A' for Active; 'I' for Inactive)
REMARK    1  A    between atoms: S_1  and  N_4
REMARK    2  A    between atoms: S_1  and  C_5
REMARK    3  A    between atoms: N_10  and  C_13
REMARK    4  A    between atoms: C_16  and  C_19
REMARK    5  A    between atoms: C_19  and  O_23
REMARK    6  A    between atoms: O_23  and  C_26
REMARK    7  A    between atoms: C_24  and  C_27
REMARK    8  A    between atoms: C_24  and  C_28
REMARK    9  A    between atoms: C_26  and  C_29
REMARK                            x       y       z     vdW  Elec       q    Type
REMARK                         _______ _______ _______ _____ _____    ______ ____
ROOT
ATOM      1  C   UNL     1     -11.263  54.842  50.115  0.00  0.00    +0.000 A 
ATOM      2  S   UNL     1     -11.910  54.839  51.697  0.00  0.00    +0.000 S 
ATOM      3  C   UNL     1     -11.835  55.801  49.300  0.00  0.00    +0.000 A 
ATOM      4  C   UNL     1     -12.801  56.267  51.393  0.00  0.00    +0.000 A 
ATOM      5  C   UNL     1     -12.668  56.687  50.078  0.00  0.00    +0.000 A 
ATOM      6  C   UNL     1     -13.642  56.971  52.444  0.00  0.00    +0.000 C 
ATOM      7  C   UNL     1     -13.400  57.882  49.547  0.00  0.00    +0.000 C 
ATOM      8  C   UNL     1     -14.677  57.943  51.780  0.00  0.00    +0.000 C 
ATOM      9  C   UNL     1     -13.969  58.756  50.667  0.00  0.00    +0.000 C 
ATOM     10  C   UNL     1     -15.244  58.959  52.792  0.00  0.00    +0.000 C 
ATOM     11  C   UNL     1     -15.868  57.143  51.212  0.00  0.00    +0.000 C 
ENDROOT
BRANCH   1  15
ATOM     12  N   UNL     1      -9.625  51.805  48.998  0.00  0.00    +0.000 N 
ATOM     13  C   UNL     1     -10.643  52.738  49.227  0.00  0.00    +0.000 C 
ATOM     14  O   UNL     1     -11.784  52.503  48.853  0.00  0.00    +0.000 OA
ATOM     15  N   UNL     1     -10.262  53.907  49.850  0.00  0.00    +0.000 N 
ATOM     16  H   UNL     1      -8.722  51.988  49.346  0.00  0.00    +0.000 HD
ATOM     17  H   UNL     1      -9.324  54.074  50.099  0.00  0.00    +0.000 HD
BRANCH  12  18
ATOM     18  S   UNL     1      -9.896  50.384  48.145  0.00  0.00    +0.000 S 
ATOM     19  O   UNL     1     -11.107  49.777  48.674  0.00  0.00    +0.000 OA
ATOM     20  O   UNL     1      -8.650  49.641  48.192  0.00  0.00    +0.000 OA
BRANCH  18  21
ATOM     21  C   UNL     1     -10.187  50.863  46.435  0.00  0.00    +0.000 A 
ATOM     22  N   UNL     1      -9.069  51.268  45.768  0.00  0.00    +0.000 NA
ATOM     23  C   UNL     1     -11.460  50.792  45.878  0.00  0.00    +0.000 A 
ATOM     24  C   UNL     1      -9.252  51.599  44.470  0.00  0.00    +0.000 A 
ATOM     25  C   UNL     1     -11.603  51.160  44.542  0.00  0.00    +0.000 A 
ATOM     26  C   UNL     1     -10.482  51.567  43.822  0.00  0.00    +0.000 A 
ENDBRANCH  18  21
ENDBRANCH  12  18
ENDBRANCH   1  15
BRANCH   3  27
ATOM     27  C   UNL     1     -11.692  55.844  47.838  0.00  0.00    +0.000 C 
ATOM     28  O   UNL     1     -12.638  55.806  47.061  0.00  0.00    +0.000 OA
BRANCH  27  29
ATOM     29  O   UNL     1     -10.388  55.756  47.453  0.00  0.00    +0.000 OA
BRANCH  29  30
ATOM     30  C   UNL     1     -10.050  54.861  46.396  0.00  0.00    +0.000 C 
ATOM     31  C   UNL     1      -8.558  54.904  46.146  0.00  0.00    +0.000 C 
ENDBRANCH  29  30
ENDBRANCH  27  29
ENDBRANCH   3  27
TORSDOF 6
ENDMDL
MODEL 5
REMARK VINA RESULT:      -6.9      1.599      1.935
REMARK  Name = 
REMARK  9 active torsions:
REMARK  status: ('A' for Active; 'I' for Inactive)
REMARK    1  A    between atoms: S_1  and  N_4
REMARK    2  A    between atoms: S_1  and  C_5
REMARK    3  A    between atoms: N_10  and  C_13
REMARK    4  A    between atoms: C_16  and  C_19
REMARK    5  A    between atoms: C_19  and  O_23
REMARK    6  A    between atoms: O_23  and  C_26
REMARK    7  A    between atoms: C_24  and  C_27
REMARK    8  A    between atoms: C_24  and  C_28
REMARK    9  A    between atoms: C_26  and  C_29
REMARK                            x       y       z     vdW  Elec       q    Type
REMARK                         _______ _______ _______ _____ _____    ______ ____
ROOT
ATOM      1  C   UNL     1     -10.929  53.778  50.584  0.00  0.00    +0.000 A 
ATOM      2  S   UNL     1     -10.036  53.211  51.928  0.00  0.00    +0.000 S 
ATOM      3  C   UNL     1     -10.154  53.952  49.455  0.00  0.00    +0.000 A 
ATOM      4  C   UNL     1      -8.643  52.968  50.965  0.00  0.00    +0.000 A 
ATOM      5  C   UNL     1      -8.838  53.393  49.659  0.00  0.00    +0.000 A 
ATOM      6  C   UNL     1      -7.351  52.369  51.494  0.00  0.00    +0.000 C 
ATOM      7  C   UNL     1      -7.746  53.342  48.634  0.00  0.00    +0.000 C 
ATOM      8  C   UNL     1      -6.148  52.693  50.544  0.00  0.00    +0.000 C 
ATOM      9  C   UNL     1      -6.580  52.453  49.076  0.00  0.00    +0.000 C 
ATOM     10  C   UNL     1      -4.937  51.778  50.815  0.00  0.00    +0.000 C 
ATOM     11  C   UNL     1      -5.683  54.150  50.755  0.00  0.00    +0.000 C 
ENDROOT
BRANCH   1  15
ATOM     12  N   UNL     1     -14.049  55.376  51.516  0.00  0.00    +0.000 N 
ATOM     13  C   UNL     1     -12.677  55.206  51.296  0.00  0.00    +0.000 C 
ATOM     14  O   UNL     1     -11.902  56.124  51.526  0.00  0.00    +0.000 OA
ATOM     15  N   UNL     1     -12.295  53.983  50.788  0.00  0.00    +0.000 N 
ATOM     16  H   UNL     1     -14.655  54.613  51.372  0.00  0.00    +0.000 HD
ATOM     17  H   UNL     1     -12.956  53.284  50.579  0.00  0.00    +0.000 HD
BRANCH  12  18
ATOM     18  S   UNL     1     -14.694  56.844  52.018  0.00  0.00    +0.000 S 
ATOM     19  O   UNL     1     -13.922  57.294  53.165  0.00  0.00    +0.000 OA
ATOM     20  O   UNL     1     -16.121  56.628  52.164  0.00  0.00    +0.000 OA
BRANCH  18  21
ATOM     21  C   UNL     1     -14.447  58.000  50.661  0.00  0.00    +0.000 A 
ATOM     22  N   UNL     1     -14.278  57.409  49.445  0.00  0.00    +0.000 NA
ATOM     23  C   UNL     1     -14.455  59.373  50.882  0.00  0.00    +0.000 A 
ATOM     24  C   UNL     1     -14.127  58.255  48.402  0.00  0.00    +0.000 A 
ATOM     25  C   UNL     1     -14.277  60.206  49.778  0.00  0.00    +0.000 A 
ATOM     26  C   UNL     1     -14.114  59.641  48.515  0.00  0.00    +0.000 A 
ENDBRANCH  18  21
ENDBRANCH  12  18
ENDBRANCH   1  15
BRANCH   3  27
ATOM     27  C   UNL     1     -10.579  54.691  48.257  0.00  0.00    +0.000 C 
ATOM     28  O   UNL     1     -10.634  55.913  48.197  0.00  0.00    +0.000 OA
BRANCH  27  29
ATOM     29  O   UNL     1     -11.067  53.860  47.295  0.00  0.00    +0.000 OA
BRANCH  29  30
ATOM     30  C   UNL     1     -11.617  54.436  46.113  0.00  0.00    +0.000 C 
ATOM     31  C   UNL     1     -11.376  53.517  44.934  0.00  0.00    +0.000 C 
ENDBRANCH  29  30
ENDBRANCH  27  29
ENDBRANCH   3  27
TORSDOF 6
ENDMDL
MODEL 6
REMARK VINA RESULT:      -6.9      2.129      2.711
REMARK  Name = 
REMARK  9 active torsions:
REMARK  status: ('A' for Active; 'I' for Inactive)
REMARK    1  A    between atoms: S_1  and  N_4
REMARK    2  A    between atoms: S_1  and  C_5
REMARK    3  A    between atoms: N_10  and  C_13
REMARK    4  A    between atoms: C_16  and  C_19
REMARK    5  A    between atoms: C_19  and  O_23
REMARK    6  A    between atoms: O_23  and  C_26
REMARK    7  A    between atoms: C_24  and  C_27
REMARK    8  A    between atoms: C_24  and  C_28
REMARK    9  A    between atoms: C_26  and  C_29
REMARK                            x       y       z     vdW  Elec       q    Type
REMARK                         _______ _______ _______ _____ _____    ______ ____
ROOT
ATOM      1  C   UNL     1     -10.264  53.528  50.974  0.00  0.00    +0.000 A 
ATOM      2  S   UNL     1     -10.567  53.031  52.582  0.00  0.00    +0.000 S 
ATOM      3  C   UNL     1      -8.918  53.588  50.672  0.00  0.00    +0.000 A 
ATOM      4  C   UNL     1      -8.915  52.666  52.836  0.00  0.00    +0.000 A 
ATOM      5  C   UNL     1      -8.138  52.998  51.735  0.00  0.00    +0.000 A 
ATOM      6  C   UNL     1      -8.377  52.061  54.121  0.00  0.00    +0.000 C 
ATOM      7  C   UNL     1      -6.649  52.830  51.732  0.00  0.00    +0.000 C 
ATOM      8  C   UNL     1      -6.828  52.268  54.237  0.00  0.00    +0.000 C 
ATOM      9  C   UNL     1      -6.167  51.935  52.877  0.00  0.00    +0.000 C 
ATOM     10  C   UNL     1      -6.199  51.332  55.288  0.00  0.00    +0.000 C 
ATOM     11  C   UNL     1      -6.517  53.718  54.665  0.00  0.00    +0.000 C 
ENDROOT
BRANCH   1  15
ATOM     12  N   UNL     1     -12.967  55.343  49.374  0.00  0.00    +0.000 N 
ATOM     13  C   UNL     1     -11.826  55.103  50.150  0.00  0.00    +0.000 C 
ATOM     14  O   UNL     1     -11.269  56.031  50.721  0.00  0.00    +0.000 OA
ATOM     15  N   UNL     1     -11.384  53.798  50.186  0.00  0.00    +0.000 N 
ATOM     16  H   UNL     1     -13.431  54.580  48.959  0.00  0.00    +0.000 HD
ATOM     17  H   UNL     1     -11.838  53.088  49.678  0.00  0.00    +0.000 HD
BRANCH  12  18
ATOM     18  S   UNL     1     -13.566  56.892  49.128  0.00  0.00    +0.000 S 
ATOM     19  O   UNL     1     -14.649  56.796  48.161  0.00  0.00    +0.000 OA
ATOM     20  O   UNL     1     -12.417  57.725  48.826  0.00  0.00    +0.000 OA
BRANCH  18  21
ATOM     21  C   UNL     1     -14.241  57.435  50.704  0.00  0.00    +0.000 A 
ATOM     22  N   UNL     1     -14.060  58.760  50.966  0.00  0.00    +0.000 NA
ATOM     23  C   UNL     1     -14.902  56.544  51.544  0.00  0.00    +0.000 A 
ATOM     24  C   UNL     1     -14.590  59.203  52.128  0.00  0.00    +0.000 A 
ATOM     25  C   UNL     1     -15.416  57.043  52.740  0.00  0.00    +0.000 A 
ATOM     26  C   UNL     1     -15.262  58.395  53.038  0.00  0.00    +0.000 A 
ENDBRANCH  18  21
ENDBRANCH  12  18
ENDBRANCH   1  15
BRANCH   3  27
ATOM     27  C   UNL     1      -8.358  54.251  49.485  0.00  0.00    +0.000 C 
ATOM     28  O   UNL     1      -7.616  55.223  49.536  0.00  0.00    +0.000 OA
BRANCH  27  29
ATOM     29  O   UNL     1      -8.900  53.767  48.332  0.00  0.00    +0.000 OA
BRANCH  29  30
ATOM     30  C   UNL     1      -8.810  54.562  47.152  0.00  0.00    +0.000 C 
ATOM     31  C   UNL     1     -10.124  55.275  46.914  0.00  0.00    +0.000 C 
ENDBRANCH  29  30
ENDBRANCH  27  29
ENDBRANCH   3  27
TORSDOF 6
ENDMDL
MODEL 7
REMARK VINA RESULT:      -6.8      2.310      3.634
REMARK  Name = 
REMARK  9 active torsions:
REMARK  status: ('A' for Active; 'I' for Inactive)
REMARK    1  A    between atoms: S_1  and  N_4
REMARK    2  A    between atoms: S_1  and  C_5
REMARK    3  A    between atoms: N_10  and  C_13
REMARK    4  A    between atoms: C_16  and  C_19
REMARK    5  A    between atoms: C_19  and  O_23
REMARK    6  A    between atoms: O_23  and  C_26
REMARK    7  A    between atoms: C_24  and  C_27
REMARK    8  A    between atoms: C_24  and  C_28
REMARK    9  A    between atoms: C_26  and  C_29
REMARK                            x       y       z     vdW  Elec       q    Type
REMARK                         _______ _______ _______ _____ _____    ______ ____
ROOT
ATOM      1  C   UNL     1     -11.076  53.675  50.625  0.00  0.00    +0.000 A 
ATOM      2  S   UNL     1     -10.654  53.463  48.982  0.00  0.00    +0.000 S 
ATOM      3  C   UNL     1      -9.995  53.566  51.478  0.00  0.00    +0.000 A 
ATOM      4  C   UNL     1      -8.985  53.450  49.357  0.00  0.00    +0.000 A 
ATOM      5  C   UNL     1      -8.763  53.523  50.725  0.00  0.00    +0.000 A 
ATOM      6  C   UNL     1      -7.889  53.357  48.309  0.00  0.00    +0.000 C 
ATOM      7  C   UNL     1      -7.386  53.468  51.311  0.00  0.00    +0.000 C 
ATOM      8  C   UNL     1      -6.532  52.909  48.949  0.00  0.00    +0.000 C 
ATOM      9  C   UNL     1      -6.300  53.703  50.259  0.00  0.00    +0.000 C 
ATOM     10  C   UNL     1      -5.334  53.200  48.024  0.00  0.00    +0.000 C 
ATOM     11  C   UNL     1      -6.549  51.389  49.218  0.00  0.00    +0.000 C 
ENDROOT
BRANCH   1  15
ATOM     12  N   UNL     1     -14.092  55.408  51.651  0.00  0.00    +0.000 N 
ATOM     13  C   UNL     1     -12.740  55.186  51.365  0.00  0.00    +0.000 C 
ATOM     14  O   UNL     1     -11.927  56.089  51.509  0.00  0.00    +0.000 OA
ATOM     15  N   UNL     1     -12.421  53.931  50.893  0.00  0.00    +0.000 N 
ATOM     16  H   UNL     1     -14.726  54.659  51.575  0.00  0.00    +0.000 HD
ATOM     17  H   UNL     1     -13.113  53.244  50.752  0.00  0.00    +0.000 HD
BRANCH  12  18
ATOM     18  S   UNL     1     -14.666  56.916  52.120  0.00  0.00    +0.000 S 
ATOM     19  O   UNL     1     -13.828  57.385  53.212  0.00  0.00    +0.000 OA
ATOM     20  O   UNL     1     -16.091  56.755  52.337  0.00  0.00    +0.000 OA
BRANCH  18  21
ATOM     21  C   UNL     1     -14.444  58.008  50.707  0.00  0.00    +0.000 A 
ATOM     22  N   UNL     1     -14.316  57.362  49.514  0.00  0.00    +0.000 NA
ATOM     23  C   UNL     1     -14.430  59.390  50.866  0.00  0.00    +0.000 A 
ATOM     24  C   UNL     1     -14.184  58.159  48.430  0.00  0.00    +0.000 A 
ATOM     25  C   UNL     1     -14.274  60.171  49.723  0.00  0.00    +0.000 A 
ATOM     26  C   UNL     1     -14.153  59.548  48.482  0.00  0.00    +0.000 A 
ENDBRANCH  18  21
ENDBRANCH  12  18
ENDBRANCH   1  15
BRANCH   3  27
ATOM     27  C   UNL     1     -10.096  53.413  52.937  0.00  0.00    +0.000 C 
ATOM     28  O   UNL     1      -9.851  54.310  53.733  0.00  0.00    +0.000 OA
BRANCH  27  29
ATOM     29  O   UNL     1     -10.323  52.118  53.296  0.00  0.00    +0.000 OA
BRANCH  29  30
ATOM     30  C   UNL     1      -9.260  51.384  53.900  0.00  0.00    +0.000 C 
ATOM     31  C   UNL     1      -8.728  50.357  52.923  0.00  0.00    +0.000 C 
ENDBRANCH  29  30
ENDBRANCH  27  29
ENDBRANCH   3  27
TORSDOF 6
ENDMDL
MODEL 8
REMARK VINA RESULT:      -6.6      2.393      4.538
REMARK  Name = 
REMARK  9 active torsions:
REMARK  status: ('A' for Active; 'I' for Inactive)
REMARK    1  A    between atoms: S_1  and  N_4
REMARK    2  A    between atoms: S_1  and  C_5
REMARK    3  A    between atoms: N_10  and  C_13
REMARK    4  A    between atoms: C_16  and  C_19
REMARK    5  A    between atoms: C_19  and  O_23
REMARK    6  A    between atoms: O_23  and  C_26
REMARK    7  A    between atoms: C_24  and  C_27
REMARK    8  A    between atoms: C_24  and  C_28
REMARK    9  A    between atoms: C_26  and  C_29
REMARK                            x       y       z     vdW  Elec       q    Type
REMARK                         _______ _______ _______ _____ _____    ______ ____
ROOT
ATOM      1  C   UNL     1     -11.493  54.050  49.370  0.00  0.00    +0.000 A 
ATOM      2  S   UNL     1     -11.815  52.822  48.225  0.00  0.00    +0.000 S 
ATOM      3  C   UNL     1     -10.332  54.748  49.101  0.00  0.00    +0.000 A 
ATOM      4  C   UNL     1     -10.534  53.349  47.222  0.00  0.00    +0.000 A 
ATOM      5  C   UNL     1      -9.824  54.393  47.797  0.00  0.00    +0.000 A 
ATOM      6  C   UNL     1     -10.216  52.731  45.871  0.00  0.00    +0.000 C 
ATOM      7  C   UNL     1      -8.616  54.990  47.141  0.00  0.00    +0.000 C 
ATOM      8  C   UNL     1      -8.761  53.089  45.414  0.00  0.00    +0.000 C 
ATOM      9  C   UNL     1      -8.504  54.595  45.667  0.00  0.00    +0.000 C 
ATOM     10  C   UNL     1      -8.553  52.840  43.907  0.00  0.00    +0.000 C 
ATOM     11  C   UNL     1      -7.738  52.216  46.172  0.00  0.00    +0.000 C 
ENDROOT
BRANCH   1  15
ATOM     12  N   UNL     1     -14.247  55.352  51.340  0.00  0.00    +0.000 N 
ATOM     13  C   UNL     1     -13.345  55.211  50.278  0.00  0.00    +0.000 C 
ATOM     14  O   UNL     1     -13.426  55.946  49.303  0.00  0.00    +0.000 OA
ATOM     15  N   UNL     1     -12.421  54.195  50.403  0.00  0.00    +0.000 N 
ATOM     16  H   UNL     1     -14.139  54.784  52.137  0.00  0.00    +0.000 HD
ATOM     17  H   UNL     1     -12.416  53.599  51.186  0.00  0.00    +0.000 HD
BRANCH  12  18
ATOM     18  S   UNL     1     -15.509  56.460  51.293  0.00  0.00    +0.000 S 
ATOM     19  O   UNL     1     -15.959  56.671  52.660  0.00  0.00    +0.000 OA
ATOM     20  O   UNL     1     -16.447  55.961  50.306  0.00  0.00    +0.000 OA
BRANCH  18  21
ATOM     21  C   UNL     1     -14.815  57.997  50.667  0.00  0.00    +0.000 A 
ATOM     22  N   UNL     1     -14.239  58.782  51.621  0.00  0.00    +0.000 NA
ATOM     23  C   UNL     1     -14.869  58.307  49.312  0.00  0.00    +0.000 A 
ATOM     24  C   UNL     1     -13.677  59.927  51.174  0.00  0.00    +0.000 A 
ATOM     25  C   UNL     1     -14.292  59.507  48.900  0.00  0.00    +0.000 A 
ATOM     26  C   UNL     1     -13.681  60.331  49.843  0.00  0.00    +0.000 A 
ENDBRANCH  18  21
ENDBRANCH  12  18
ENDBRANCH   1  15
BRANCH   3  27
ATOM     27  C   UNL     1      -9.659  55.645  50.053  0.00  0.00    +0.000 C 
ATOM     28  O   UNL     1      -9.071  56.667  49.723  0.00  0.00    +0.000 OA
BRANCH  27  29
ATOM     29  O   UNL     1      -9.619  55.115  51.307  0.00  0.00    +0.000 OA
BRANCH  29  30
ATOM     30  C   UNL     1      -8.404  55.210  52.047  0.00  0.00    +0.000 C 
ATOM     31  C   UNL     1      -8.659  54.857  53.497  0.00  0.00    +0.000 C 
ENDBRANCH  29  30
ENDBRANCH  27  29
ENDBRANCH   3  27
TORSDOF 6
ENDMDL
MODEL 9
REMARK VINA RESULT:      -6.6      3.637      5.881
REMARK  Name = 
REMARK  9 active torsions:
REMARK  status: ('A' for Active; 'I' for Inactive)
REMARK    1  A    between atoms: S_1  and  N_4
REMARK    2  A    between atoms: S_1  and  C_5
REMARK    3  A    between atoms: N_10  and  C_13
REMARK    4  A    between atoms: C_16  and  C_19
REMARK    5  A    between atoms: C_19  and  O_23
REMARK    6  A    between atoms: O_23  and  C_26
REMARK    7  A    between atoms: C_24  and  C_27
REMARK    8  A    between atoms: C_24  and  C_28
REMARK    9  A    between atoms: C_26  and  C_29
REMARK                            x       y       z     vdW  Elec       q    Type
REMARK                         _______ _______ _______ _____ _____    ______ ____
ROOT
ATOM      1  C   UNL     1     -10.753  53.481  47.892  0.00  0.00    +0.000 A 
ATOM      2  S   UNL     1     -11.612  52.192  47.169  0.00  0.00    +0.000 S 
ATOM      3  C   UNL     1      -9.507  53.681  47.332  0.00  0.00    +0.000 A 
ATOM      4  C   UNL     1     -10.431  52.024  45.943  0.00  0.00    +0.000 A 
ATOM      5  C   UNL     1      -9.360  52.885  46.136  0.00  0.00    +0.000 A 
ATOM      6  C   UNL     1     -10.548  51.037  44.794  0.00  0.00    +0.000 C 
ATOM      7  C   UNL     1      -8.167  52.888  45.230  0.00  0.00    +0.000 C 
ATOM      8  C   UNL     1      -9.155  50.786  44.121  0.00  0.00    +0.000 C 
ATOM      9  C   UNL     1      -8.436  52.143  43.919  0.00  0.00    +0.000 C 
ATOM     10  C   UNL     1      -9.296  50.138  42.729  0.00  0.00    +0.000 C 
ATOM     11  C   UNL     1      -8.309  49.833  44.992  0.00  0.00    +0.000 C 
ENDROOT
BRANCH   1  15
ATOM     12  N   UNL     1     -12.685  55.994  49.656  0.00  0.00    +0.000 N 
ATOM     13  C   UNL     1     -12.065  55.321  48.597  0.00  0.00    +0.000 C 
ATOM     14  O   UNL     1     -12.156  55.758  47.457  0.00  0.00    +0.000 OA
ATOM     15  N   UNL     1     -11.403  54.158  48.926  0.00  0.00    +0.000 N 
ATOM     16  H   UNL     1     -12.564  55.656  50.573  0.00  0.00    +0.000 HD
ATOM     17  H   UNL     1     -11.389  53.819  49.850  0.00  0.00    +0.000 HD
BRANCH  12  18
ATOM     18  S   UNL     1     -13.632  57.359  49.410  0.00  0.00    +0.000 S 
ATOM     19  O   UNL     1     -14.655  57.015  48.435  0.00  0.00    +0.000 OA
ATOM     20  O   UNL     1     -12.711  58.442  49.120  0.00  0.00    +0.000 OA
BRANCH  18  21
ATOM     21  C   UNL     1     -14.427  57.719  50.983  0.00  0.00    +0.000 A 
ATOM     22  N   UNL     1     -15.109  56.669  51.520  0.00  0.00    +0.000 NA
ATOM     23  C   UNL     1     -14.312  58.974  51.573  0.00  0.00    +0.000 A 
ATOM     24  C   UNL     1     -15.687  56.899  52.720  0.00  0.00    +0.000 A 
ATOM     25  C   UNL     1     -14.939  59.171  52.802  0.00  0.00    +0.000 A 
ATOM     26  C   UNL     1     -15.635  58.117  53.390  0.00  0.00    +0.000 A 
ENDBRANCH  18  21
ENDBRANCH  12  18
ENDBRANCH   1  15
BRANCH   3  27
ATOM     27  C   UNL     1      -8.448  54.509  47.929  0.00  0.00    +0.000 C 
ATOM     28  O   UNL     1      -8.395  55.727  47.819  0.00  0.00    +0.000 OA
BRANCH  27  29
ATOM     29  O   UNL     1      -7.450  53.749  48.462  0.00  0.00    +0.000 OA
BRANCH  29  30
ATOM     30  C   UNL     1      -6.297  54.407  48.979  0.00  0.00    +0.000 C 
ATOM     31  C   UNL     1      -5.053  53.858  48.315  0.00  0.00    +0.000 C 
ENDBRANCH  29  30
ENDBRANCH  27  29
ENDBRANCH   3  27
TORSDOF 6
ENDMDL
