MODEL 1
REMARK VINA RESULT:      -7.8      0.000      0.000
REMARK  Name = 
REMARK  9 active torsions:
REMARK  status: ('A' for Active; 'I' for Inactive)
REMARK    1  A    between atoms: S_1  and  N_4
REMARK    2  A    between atoms: S_1  and  C_5
REMARK    3  A    between atoms: N_10  and  C_13
REMARK    4  A    between atoms: C_16  and  C_19
REMARK    5  A    between atoms: C_19  and  O_23
REMARK    6  A    between atoms: O_23  and  C_26
REMARK    7  A    between atoms: C_24  and  C_27
REMARK    8  A    between atoms: C_24  and  C_28
REMARK    9  A    between atoms: C_26  and  C_29
REMARK                            x       y       z     vdW  Elec       q    Type
REMARK                         _______ _______ _______ _____ _____    ______ ____
ROOT
ATOM      1  C   UNL     1     -10.896  54.488  51.478  0.00  0.00    +0.000 A 
ATOM      2  S   UNL     1     -10.533  53.745  52.961  0.00  0.00    +0.000 S 
ATOM      3  C   UNL     1      -9.799  55.068  50.865  0.00  0.00    +0.000 A 
ATOM      4  C   UNL     1      -8.860  53.913  52.684  0.00  0.00    +0.000 A 
ATOM      5  C   UNL     1      -8.590  54.627  51.528  0.00  0.00    +0.000 A 
ATOM      6  C   UNL     1      -7.824  53.339  53.616  0.00  0.00    +0.000 C 
ATOM      7  C   UNL     1      -7.184  54.939  51.100  0.00  0.00    +0.000 C 
ATOM      8  C   UNL     1      -6.430  53.998  53.382  0.00  0.00    +0.000 C 
ATOM      9  C   UNL     1      -6.151  54.095  51.858  0.00  0.00    +0.000 C 
ATOM     10  C   UNL     1      -5.323  53.140  54.022  0.00  0.00    +0.000 C 
ATOM     11  C   UNL     1      -6.386  55.393  54.039  0.00  0.00    +0.000 C 
ENDROOT
BRANCH   1  15
ATOM     12  N   UNL     1     -14.388  55.230  51.103  0.00  0.00    +0.000 N 
ATOM     13  C   UNL     1     -13.068  55.420  51.476  0.00  0.00    +0.000 C 
ATOM     14  O   UNL     1     -12.703  56.437  52.043  0.00  0.00    +0.000 OA
ATOM     15  N   UNL     1     -12.222  54.398  51.091  0.00  0.00    +0.000 N 
ATOM     16  H   UNL     1     -14.659  54.370  50.706  0.00  0.00    +0.000 HD
ATOM     17  H   UNL     1     -12.548  53.636  50.561  0.00  0.00    +0.000 HD
BRANCH  12  18
ATOM     18  S   UNL     1     -15.539  56.443  51.314  0.00  0.00    +0.000 S 
ATOM     19  O   UNL     1     -15.681  56.673  52.738  0.00  0.00    +0.000 OA
ATOM     20  O   UNL     1     -16.687  56.000  50.541  0.00  0.00    +0.000 OA
BRANCH  18  21
ATOM     21  C   UNL     1     -14.820  57.884  50.495  0.00  0.00    +0.000 A 
ATOM     22  N   UNL     1     -14.356  57.660  49.242  0.00  0.00    +0.000 NA
ATOM     23  N   UNL     1     -14.780  59.033  51.197  0.00  0.00    +0.000 NA
ATOM     24  C   UNL     1     -13.820  58.743  48.653  0.00  0.00    +0.000 A 
ATOM     25  C   UNL     1     -14.194  60.056  50.559  0.00  0.00    +0.000 A 
ATOM     26  C   UNL     1     -13.704  59.970  49.270  0.00  0.00    +0.000 A 
ENDBRANCH  18  21
ENDBRANCH  12  18
ENDBRANCH   1  15
BRANCH   3  27
ATOM     27  C   UNL     1      -9.857  56.023  49.744  0.00  0.00    +0.000 C 
ATOM     28  O   UNL     1      -9.144  57.018  49.670  0.00  0.00    +0.000 OA
BRANCH  27  29
ATOM     29  O   UNL     1     -10.895  55.765  48.895  0.00  0.00    +0.000 OA
BRANCH  29  30
ATOM     30  C   UNL     1     -10.584  55.364  47.556  0.00  0.00    +0.000 C 
ATOM     31  C   UNL     1     -11.739  55.652  46.620  0.00  0.00    +0.000 C 
ENDBRANCH  29  30
ENDBRANCH  27  29
ENDBRANCH   3  27
TORSDOF 6
ENDMDL
MODEL 2
REMARK VINA RESULT:      -7.7      3.029      7.608
REMARK  Name = 
REMARK  9 active torsions:
REMARK  status: ('A' for Active; 'I' for Inactive)
REMARK    1  A    between atoms: S_1  and  N_4
REMARK    2  A    between atoms: S_1  and  C_5
REMARK    3  A    between atoms: N_10  and  C_13
REMARK    4  A    between atoms: C_16  and  C_19
REMARK    5  A    between atoms: C_19  and  O_23
REMARK    6  A    between atoms: O_23  and  C_26
REMARK    7  A    between atoms: C_24  and  C_27
REMARK    8  A    between atoms: C_24  and  C_28
REMARK    9  A    between atoms: C_26  and  C_29
REMARK                            x       y       z     vdW  Elec       q    Type
REMARK                         _______ _______ _______ _____ _____    ______ ____
ROOT
ATOM      1  C   UNL     1     -11.079  54.886  50.188  0.00  0.00    +0.000 A 
ATOM      2  S   UNL     1     -11.763  54.873  51.743  0.00  0.00    +0.000 S 
ATOM      3  C   UNL     1     -11.706  55.756  49.313  0.00  0.00    +0.000 A 
ATOM      4  C   UNL     1     -12.716  56.239  51.380  0.00  0.00    +0.000 A 
ATOM      5  C   UNL     1     -12.594  56.626  50.056  0.00  0.00    +0.000 A 
ATOM      6  C   UNL     1     -13.582  56.918  52.410  0.00  0.00    +0.000 C 
ATOM      7  C   UNL     1     -13.373  57.780  49.493  0.00  0.00    +0.000 C 
ATOM      8  C   UNL     1     -14.654  57.826  51.733  0.00  0.00    +0.000 C 
ATOM      9  C   UNL     1     -13.992  58.650  50.595  0.00  0.00    +0.000 C 
ATOM     10  C   UNL     1     -15.241  58.811  52.762  0.00  0.00    +0.000 C 
ATOM     11  C   UNL     1     -15.811  56.966  51.188  0.00  0.00    +0.000 C 
ENDROOT
BRANCH   1  15
ATOM     12  N   UNL     1      -7.705  53.672  50.037  0.00  0.00    +0.000 N 
ATOM     13  C   UNL     1      -8.741  54.557  50.282  0.00  0.00    +0.000 C 
ATOM     14  O   UNL     1      -8.537  55.669  50.742  0.00  0.00    +0.000 OA
ATOM     15  N   UNL     1      -9.996  54.041  50.022  0.00  0.00    +0.000 N 
ATOM     16  H   UNL     1      -7.899  52.809  49.604  0.00  0.00    +0.000 HD
ATOM     17  H   UNL     1     -10.115  53.109  49.730  0.00  0.00    +0.000 HD
BRANCH  12  18
ATOM     18  S   UNL     1      -6.117  54.044  50.465  0.00  0.00    +0.000 S 
ATOM     19  O   UNL     1      -5.837  55.387  49.997  0.00  0.00    +0.000 OA
ATOM     20  O   UNL     1      -5.330  52.930  49.963  0.00  0.00    +0.000 OA
BRANCH  18  21
ATOM     21  C   UNL     1      -6.118  53.976  52.271  0.00  0.00    +0.000 A 
ATOM     22  N   UNL     1      -6.343  52.748  52.798  0.00  0.00    +0.000 NA
ATOM     23  N   UNL     1      -5.927  55.135  52.930  0.00  0.00    +0.000 NA
ATOM     24  C   UNL     1      -6.345  52.721  54.143  0.00  0.00    +0.000 A 
ATOM     25  C   UNL     1      -5.985  55.034  54.265  0.00  0.00    +0.000 A 
ATOM     26  C   UNL     1      -6.179  53.839  54.931  0.00  0.00    +0.000 A 
ENDBRANCH  18  21
ENDBRANCH  12  18
ENDBRANCH   1  15
BRANCH   3  27
ATOM     27  C   UNL     1     -11.534  55.762  47.850  0.00  0.00    +0.000 C 
ATOM     28  O   UNL     1     -12.462  55.624  47.062  0.00  0.00    +0.000 OA
BRANCH  27  29
ATOM     29  O   UNL     1     -10.219  55.771  47.482  0.00  0.00    +0.000 OA
BRANCH  29  30
ATOM     30  C   UNL     1      -9.782  54.804  46.521  0.00  0.00    +0.000 C 
ATOM     31  C   UNL     1      -8.283  54.875  46.320  0.00  0.00    +0.000 C 
ENDBRANCH  29  30
ENDBRANCH  27  29
ENDBRANCH   3  27
TORSDOF 6
ENDMDL
MODEL 3
REMARK VINA RESULT:      -7.4      3.462      8.189
REMARK  Name = 
REMARK  9 active torsions:
REMARK  status: ('A' for Active; 'I' for Inactive)
REMARK    1  A    between atoms: S_1  and  N_4
REMARK    2  A    between atoms: S_1  and  C_5
REMARK    3  A    between atoms: N_10  and  C_13
REMARK    4  A    between atoms: C_16  and  C_19
REMARK    5  A    between atoms: C_19  and  O_23
REMARK    6  A    between atoms: O_23  and  C_26
REMARK    7  A    between atoms: C_24  and  C_27
REMARK    8  A    between atoms: C_24  and  C_28
REMARK    9  A    between atoms: C_26  and  C_29
REMARK                            x       y       z     vdW  Elec       q    Type
REMARK                         _______ _______ _______ _____ _____    ______ ____
ROOT
ATOM      1  C   UNL     1     -10.906  54.949  50.321  0.00  0.00    +0.000 A 
ATOM      2  S   UNL     1     -11.542  54.990  51.895  0.00  0.00    +0.000 S 
ATOM      3  C   UNL     1     -11.614  55.722  49.416  0.00  0.00    +0.000 A 
ATOM      4  C   UNL     1     -12.593  56.267  51.483  0.00  0.00    +0.000 A 
ATOM      5  C   UNL     1     -12.534  56.579  50.134  0.00  0.00    +0.000 A 
ATOM      6  C   UNL     1     -13.471  56.953  52.498  0.00  0.00    +0.000 C 
ATOM      7  C   UNL     1     -13.403  57.644  49.529  0.00  0.00    +0.000 C 
ATOM      8  C   UNL     1     -14.618  57.748  51.803  0.00  0.00    +0.000 C 
ATOM      9  C   UNL     1     -14.045  58.540  50.597  0.00  0.00    +0.000 C 
ATOM     10  C   UNL     1     -15.238  58.755  52.790  0.00  0.00    +0.000 C 
ATOM     11  C   UNL     1     -15.733  56.784  51.349  0.00  0.00    +0.000 C 
ENDROOT
BRANCH   1  15
ATOM     12  N   UNL     1      -7.465  53.947  50.116  0.00  0.00    +0.000 N 
ATOM     13  C   UNL     1      -8.549  54.779  50.341  0.00  0.00    +0.000 C 
ATOM     14  O   UNL     1      -8.404  55.932  50.713  0.00  0.00    +0.000 OA
ATOM     15  N   UNL     1      -9.775  54.166  50.170  0.00  0.00    +0.000 N 
ATOM     16  H   UNL     1      -7.617  53.044  49.754  0.00  0.00    +0.000 HD
ATOM     17  H   UNL     1      -9.842  53.209  49.950  0.00  0.00    +0.000 HD
BRANCH  12  18
ATOM     18  S   UNL     1      -5.892  54.451  50.451  0.00  0.00    +0.000 S 
ATOM     19  O   UNL     1      -5.807  54.713  51.874  0.00  0.00    +0.000 OA
ATOM     20  O   UNL     1      -5.641  55.526  49.507  0.00  0.00    +0.000 OA
BRANCH  18  21
ATOM     21  C   UNL     1      -4.866  53.036  49.993  0.00  0.00    +0.000 A 
ATOM     22  N   UNL     1      -4.152  52.492  51.007  0.00  0.00    +0.000 NA
ATOM     23  N   UNL     1      -4.876  52.664  48.698  0.00  0.00    +0.000 NA
ATOM     24  C   UNL     1      -3.391  51.444  50.643  0.00  0.00    +0.000 A 
ATOM     25  C   UNL     1      -4.062  51.640  48.406  0.00  0.00    +0.000 A 
ATOM     26  C   UNL     1      -3.300  50.979  49.350  0.00  0.00    +0.000 A 
ENDBRANCH  18  21
ENDBRANCH  12  18
ENDBRANCH   1  15
BRANCH   3  27
ATOM     27  C   UNL     1     -11.484  55.648  47.950  0.00  0.00    +0.000 C 
ATOM     28  O   UNL     1     -12.411  55.346  47.207  0.00  0.00    +0.000 OA
BRANCH  27  29
ATOM     29  O   UNL     1     -10.191  55.790  47.535  0.00  0.00    +0.000 OA
BRANCH  29  30
ATOM     30  C   UNL     1      -9.671  54.825  46.613  0.00  0.00    +0.000 C 
ATOM     31  C   UNL     1      -8.159  54.873  46.571  0.00  0.00    +0.000 C 
ENDBRANCH  29  30
ENDBRANCH  27  29
ENDBRANCH   3  27
TORSDOF 6
ENDMDL
MODEL 4
REMARK VINA RESULT:      -7.0      3.965      7.447
REMARK  Name = 
REMARK  9 active torsions:
REMARK  status: ('A' for Active; 'I' for Inactive)
REMARK    1  A    between atoms: S_1  and  N_4
REMARK    2  A    between atoms: S_1  and  C_5
REMARK    3  A    between atoms: N_10  and  C_13
REMARK    4  A    between atoms: C_16  and  C_19
REMARK    5  A    between atoms: C_19  and  O_23
REMARK    6  A    between atoms: O_23  and  C_26
REMARK    7  A    between atoms: C_24  and  C_27
REMARK    8  A    between atoms: C_24  and  C_28
REMARK    9  A    between atoms: C_26  and  C_29
REMARK                            x       y       z     vdW  Elec       q    Type
REMARK                         _______ _______ _______ _____ _____    ______ ____
ROOT
ATOM      1  C   UNL     1     -11.107  54.939  50.153  0.00  0.00    +0.000 A 
ATOM      2  S   UNL     1     -11.753  54.924  51.724  0.00  0.00    +0.000 S 
ATOM      3  C   UNL     1     -11.762  55.802  49.291  0.00  0.00    +0.000 A 
ATOM      4  C   UNL     1     -12.728  56.279  51.380  0.00  0.00    +0.000 A 
ATOM      5  C   UNL     1     -12.640  56.665  50.053  0.00  0.00    +0.000 A 
ATOM      6  C   UNL     1     -13.576  56.953  52.429  0.00  0.00    +0.000 C 
ATOM      7  C   UNL     1     -13.443  57.811  49.506  0.00  0.00    +0.000 C 
ATOM      8  C   UNL     1     -14.671  57.850  51.776  0.00  0.00    +0.000 C 
ATOM      9  C   UNL     1     -14.044  58.677  50.620  0.00  0.00    +0.000 C 
ATOM     10  C   UNL     1     -15.243  58.831  52.816  0.00  0.00    +0.000 C 
ATOM     11  C   UNL     1     -15.833  56.978  51.259  0.00  0.00    +0.000 C 
ENDROOT
BRANCH   1  15
ATOM     12  N   UNL     1      -9.137  52.047  49.353  0.00  0.00    +0.000 N 
ATOM     13  C   UNL     1     -10.265  52.842  49.459  0.00  0.00    +0.000 C 
ATOM     14  O   UNL     1     -11.358  52.457  49.077  0.00  0.00    +0.000 OA
ATOM     15  N   UNL     1     -10.019  54.104  49.964  0.00  0.00    +0.000 N 
ATOM     16  H   UNL     1      -8.285  52.364  49.731  0.00  0.00    +0.000 HD
ATOM     17  H   UNL     1      -9.106  54.399  50.181  0.00  0.00    +0.000 HD
BRANCH  12  18
ATOM     18  S   UNL     1      -9.194  50.545  48.590  0.00  0.00    +0.000 S 
ATOM     19  O   UNL     1     -10.423  49.891  48.995  0.00  0.00    +0.000 OA
ATOM     20  O   UNL     1      -7.916  49.926  48.898  0.00  0.00    +0.000 OA
BRANCH  18  21
ATOM     21  C   UNL     1      -9.226  50.944  46.828  0.00  0.00    +0.000 A 
ATOM     22  N   UNL     1      -8.013  51.169  46.268  0.00  0.00    +0.000 NA
ATOM     23  N   UNL     1     -10.434  51.012  46.235  0.00  0.00    +0.000 NA
ATOM     24  C   UNL     1      -8.060  51.470  44.958  0.00  0.00    +0.000 A 
ATOM     25  C   UNL     1     -10.401  51.359  44.941  0.00  0.00    +0.000 A 
ATOM     26  C   UNL     1      -9.231  51.588  44.243  0.00  0.00    +0.000 A 
ENDBRANCH  18  21
ENDBRANCH  12  18
ENDBRANCH   1  15
BRANCH   3  27
ATOM     27  C   UNL     1     -11.624  55.805  47.824  0.00  0.00    +0.000 C 
ATOM     28  O   UNL     1     -12.574  55.691  47.058  0.00  0.00    +0.000 OA
BRANCH  27  29
ATOM     29  O   UNL     1     -10.318  55.784  47.426  0.00  0.00    +0.000 OA
BRANCH  29  30
ATOM     30  C   UNL     1      -9.935  54.835  46.424  0.00  0.00    +0.000 C 
ATOM     31  C   UNL     1      -8.446  54.895  46.158  0.00  0.00    +0.000 C 
ENDBRANCH  29  30
ENDBRANCH  27  29
ENDBRANCH   3  27
TORSDOF 6
ENDMDL
MODEL 5
REMARK VINA RESULT:      -7.0      2.390      3.144
REMARK  Name = 
REMARK  9 active torsions:
REMARK  status: ('A' for Active; 'I' for Inactive)
REMARK    1  A    between atoms: S_1  and  N_4
REMARK    2  A    between atoms: S_1  and  C_5
REMARK    3  A    between atoms: N_10  and  C_13
REMARK    4  A    between atoms: C_16  and  C_19
REMARK    5  A    between atoms: C_19  and  O_23
REMARK    6  A    between atoms: O_23  and  C_26
REMARK    7  A    between atoms: C_24  and  C_27
REMARK    8  A    between atoms: C_24  and  C_28
REMARK    9  A    between atoms: C_26  and  C_29
REMARK                            x       y       z     vdW  Elec       q    Type
REMARK                         _______ _______ _______ _____ _____    ______ ____
ROOT
ATOM      1  C   UNL     1     -10.061  54.916  50.642  0.00  0.00    +0.000 A 
ATOM      2  S   UNL     1      -9.743  55.049  52.305  0.00  0.00    +0.000 S 
ATOM      3  C   UNL     1      -9.784  53.662  50.123  0.00  0.00    +0.000 A 
ATOM      4  C   UNL     1      -9.515  53.366  52.439  0.00  0.00    +0.000 A 
ATOM      5  C   UNL     1      -9.571  52.730  51.210  0.00  0.00    +0.000 A 
ATOM      6  C   UNL     1      -9.279  52.683  53.762  0.00  0.00    +0.000 C 
ATOM      7  C   UNL     1      -9.355  51.250  51.072  0.00  0.00    +0.000 C 
ATOM      8  C   UNL     1      -8.674  51.260  53.562  0.00  0.00    +0.000 C 
ATOM      9  C   UNL     1      -9.436  50.528  52.424  0.00  0.00    +0.000 C 
ATOM     10  C   UNL     1      -8.825  50.433  54.853  0.00  0.00    +0.000 C 
ATOM     11  C   UNL     1      -7.170  51.364  53.239  0.00  0.00    +0.000 C 
ENDROOT
BRANCH   1  15
ATOM     12  N   UNL     1     -12.339  57.298  49.220  0.00  0.00    +0.000 N 
ATOM     13  C   UNL     1     -11.924  56.148  49.870  0.00  0.00    +0.000 C 
ATOM     14  O   UNL     1     -12.723  55.326  50.289  0.00  0.00    +0.000 OA
ATOM     15  N   UNL     1     -10.557  56.064  50.050  0.00  0.00    +0.000 N 
ATOM     16  H   UNL     1     -11.665  57.906  48.838  0.00  0.00    +0.000 HD
ATOM     17  H   UNL     1      -9.959  56.793  49.768  0.00  0.00    +0.000 HD
BRANCH  12  18
ATOM     18  S   UNL     1     -13.975  57.675  49.070  0.00  0.00    +0.000 S 
ATOM     19  O   UNL     1     -14.628  56.558  48.415  0.00  0.00    +0.000 OA
ATOM     20  O   UNL     1     -13.994  58.986  48.442  0.00  0.00    +0.000 OA
BRANCH  18  21
ATOM     21  C   UNL     1     -14.547  57.850  50.774  0.00  0.00    +0.000 A 
ATOM     22  N   UNL     1     -14.149  58.984  51.400  0.00  0.00    +0.000 NA
ATOM     23  N   UNL     1     -15.286  56.844  51.281  0.00  0.00    +0.000 NA
ATOM     24  C   UNL     1     -14.581  59.091  52.669  0.00  0.00    +0.000 A 
ATOM     25  C   UNL     1     -15.643  57.004  52.563  0.00  0.00    +0.000 A 
ATOM     26  C   UNL     1     -15.326  58.124  53.307  0.00  0.00    +0.000 A 
ENDBRANCH  18  21
ENDBRANCH  12  18
ENDBRANCH   1  15
BRANCH   3  27
ATOM     27  C   UNL     1      -9.675  53.341  48.688  0.00  0.00    +0.000 C 
ATOM     28  O   UNL     1      -8.604  53.220  48.105  0.00  0.00    +0.000 OA
BRANCH  27  29
ATOM     29  O   UNL     1     -10.887  53.357  48.060  0.00  0.00    +0.000 OA
BRANCH  29  30
ATOM     30  C   UNL     1     -10.918  53.687  46.666  0.00  0.00    +0.000 C 
ATOM     31  C   UNL     1     -11.168  55.166  46.463  0.00  0.00    +0.000 C 
ENDBRANCH  29  30
ENDBRANCH  27  29
ENDBRANCH   3  27
TORSDOF 6
ENDMDL
MODEL 6
REMARK VINA RESULT:      -7.0      2.318      2.954
REMARK  Name = 
REMARK  9 active torsions:
REMARK  status: ('A' for Active; 'I' for Inactive)
REMARK    1  A    between atoms: S_1  and  N_4
REMARK    2  A    between atoms: S_1  and  C_5
REMARK    3  A    between atoms: N_10  and  C_13
REMARK    4  A    between atoms: C_16  and  C_19
REMARK    5  A    between atoms: C_19  and  O_23
REMARK    6  A    between atoms: O_23  and  C_26
REMARK    7  A    between atoms: C_24  and  C_27
REMARK    8  A    between atoms: C_24  and  C_28
REMARK    9  A    between atoms: C_26  and  C_29
REMARK                            x       y       z     vdW  Elec       q    Type
REMARK                         _______ _______ _______ _____ _____    ______ ____
ROOT
ATOM      1  C   UNL     1      -8.407  55.759  49.907  0.00  0.00    +0.000 A 
ATOM      2  S   UNL     1      -7.852  56.111  51.473  0.00  0.00    +0.000 S 
ATOM      3  C   UNL     1      -7.725  54.720  49.297  0.00  0.00    +0.000 A 
ATOM      4  C   UNL     1      -6.894  54.701  51.495  0.00  0.00    +0.000 A 
ATOM      5  C   UNL     1      -6.914  54.035  50.281  0.00  0.00    +0.000 A 
ATOM      6  C   UNL     1      -6.125  54.264  52.716  0.00  0.00    +0.000 C 
ATOM      7  C   UNL     1      -6.110  52.788  50.048  0.00  0.00    +0.000 C 
ATOM      8  C   UNL     1      -5.017  53.233  52.343  0.00  0.00    +0.000 C 
ATOM      9  C   UNL     1      -5.597  52.180  51.360  0.00  0.00    +0.000 C 
ATOM     10  C   UNL     1      -4.531  52.498  53.606  0.00  0.00    +0.000 C 
ATOM     11  C   UNL     1      -3.805  53.957  51.722  0.00  0.00    +0.000 C 
ENDROOT
BRANCH   1  15
ATOM     12  N   UNL     1     -11.726  56.834  49.060  0.00  0.00    +0.000 N 
ATOM     13  C   UNL     1     -10.732  56.014  49.569  0.00  0.00    +0.000 C 
ATOM     14  O   UNL     1     -10.993  54.947  50.101  0.00  0.00    +0.000 OA
ATOM     15  N   UNL     1      -9.461  56.544  49.473  0.00  0.00    +0.000 N 
ATOM     16  H   UNL     1     -11.475  57.655  48.579  0.00  0.00    +0.000 HD
ATOM     17  H   UNL     1      -9.309  57.446  49.109  0.00  0.00    +0.000 HD
BRANCH  12  18
ATOM     18  S   UNL     1     -13.357  56.451  49.251  0.00  0.00    +0.000 S 
ATOM     19  O   UNL     1     -13.446  55.037  49.556  0.00  0.00    +0.000 OA
ATOM     20  O   UNL     1     -13.998  56.969  48.054  0.00  0.00    +0.000 OA
BRANCH  18  21
ATOM     21  C   UNL     1     -13.885  57.451  50.660  0.00  0.00    +0.000 A 
ATOM     22  N   UNL     1     -13.649  56.900  51.875  0.00  0.00    +0.000 NA
ATOM     23  N   UNL     1     -14.484  58.627  50.389  0.00  0.00    +0.000 NA
ATOM     24  C   UNL     1     -14.055  57.659  52.909  0.00  0.00    +0.000 A 
ATOM     25  C   UNL     1     -14.897  59.305  51.469  0.00  0.00    +0.000 A 
ATOM     26  C   UNL     1     -14.695  58.870  52.765  0.00  0.00    +0.000 A 
ENDBRANCH  18  21
ENDBRANCH  12  18
ENDBRANCH   1  15
BRANCH   3  27
ATOM     27  C   UNL     1      -7.778  54.396  47.860  0.00  0.00    +0.000 C 
ATOM     28  O   UNL     1      -6.827  54.544  47.101  0.00  0.00    +0.000 OA
BRANCH  27  29
ATOM     29  O   UNL     1      -9.039  54.074  47.447  0.00  0.00    +0.000 OA
BRANCH  29  30
ATOM     30  C   UNL     1      -9.562  54.746  46.296  0.00  0.00    +0.000 C 
ATOM     31  C   UNL     1     -11.061  54.559  46.191  0.00  0.00    +0.000 C 
ENDBRANCH  29  30
ENDBRANCH  27  29
ENDBRANCH   3  27
TORSDOF 6
ENDMDL
MODEL 7
REMARK VINA RESULT:      -7.0      3.907      7.462
REMARK  Name = 
REMARK  9 active torsions:
REMARK  status: ('A' for Active; 'I' for Inactive)
REMARK    1  A    between atoms: S_1  and  N_4
REMARK    2  A    between atoms: S_1  and  C_5
REMARK    3  A    between atoms: N_10  and  C_13
REMARK    4  A    between atoms: C_16  and  C_19
REMARK    5  A    between atoms: C_19  and  O_23
REMARK    6  A    between atoms: O_23  and  C_26
REMARK    7  A    between atoms: C_24  and  C_27
REMARK    8  A    between atoms: C_24  and  C_28
REMARK    9  A    between atoms: C_26  and  C_29
REMARK                            x       y       z     vdW  Elec       q    Type
REMARK                         _______ _______ _______ _____ _____    ______ ____
ROOT
ATOM      1  C   UNL     1      -8.692  55.051  47.420  0.00  0.00    +0.000 A 
ATOM      2  S   UNL     1      -7.487  54.292  46.495  0.00  0.00    +0.000 S 
ATOM      3  C   UNL     1      -9.979  54.764  46.999  0.00  0.00    +0.000 A 
ATOM      4  C   UNL     1      -8.646  53.328  45.701  0.00  0.00    +0.000 A 
ATOM      5  C   UNL     1      -9.941  53.663  46.059  0.00  0.00    +0.000 A 
ATOM      6  C   UNL     1      -8.266  52.244  44.724  0.00  0.00    +0.000 C 
ATOM      7  C   UNL     1     -11.134  52.977  45.455  0.00  0.00    +0.000 C 
ATOM      8  C   UNL     1      -9.480  51.836  43.835  0.00  0.00    +0.000 C 
ATOM      9  C   UNL     1     -10.746  51.686  44.722  0.00  0.00    +0.000 C 
ATOM     10  C   UNL     1      -9.206  50.483  43.153  0.00  0.00    +0.000 C 
ATOM     11  C   UNL     1      -9.705  52.887  42.729  0.00  0.00    +0.000 C 
ENDROOT
BRANCH   1  15
ATOM     12  N   UNL     1      -7.601  56.070  50.685  0.00  0.00    +0.000 N 
ATOM     13  C   UNL     1      -8.016  55.213  49.679  0.00  0.00    +0.000 C 
ATOM     14  O   UNL     1      -8.124  54.012  49.865  0.00  0.00    +0.000 OA
ATOM     15  N   UNL     1      -8.222  55.832  48.461  0.00  0.00    +0.000 N 
ATOM     16  H   UNL     1      -7.589  57.040  50.518  0.00  0.00    +0.000 HD
ATOM     17  H   UNL     1      -8.041  56.792  48.338  0.00  0.00    +0.000 HD
BRANCH  12  18
ATOM     18  S   UNL     1      -7.119  55.482  52.190  0.00  0.00    +0.000 S 
ATOM     19  O   UNL     1      -6.988  56.615  53.084  0.00  0.00    +0.000 OA
ATOM     20  O   UNL     1      -5.960  54.653  51.906  0.00  0.00    +0.000 OA
BRANCH  18  21
ATOM     21  C   UNL     1      -8.478  54.408  52.702  0.00  0.00    +0.000 A 
ATOM     22  N   UNL     1      -9.713  54.954  52.595  0.00  0.00    +0.000 NA
ATOM     23  N   UNL     1      -8.153  53.186  53.167  0.00  0.00    +0.000 NA
ATOM     24  C   UNL     1     -10.709  54.140  52.986  0.00  0.00    +0.000 A 
ATOM     25  C   UNL     1      -9.196  52.450  53.578  0.00  0.00    +0.000 A 
ATOM     26  C   UNL     1     -10.508  52.876  53.497  0.00  0.00    +0.000 A 
ENDBRANCH  18  21
ENDBRANCH  12  18
ENDBRANCH   1  15
BRANCH   3  27
ATOM     27  C   UNL     1     -11.191  55.497  47.406  0.00  0.00    +0.000 C 
ATOM     28  O   UNL     1     -11.947  56.042  46.609  0.00  0.00    +0.000 OA
BRANCH  27  29
ATOM     29  O   UNL     1     -11.282  55.638  48.761  0.00  0.00    +0.000 OA
BRANCH  29  30
ATOM     30  C   UNL     1     -12.323  54.928  49.442  0.00  0.00    +0.000 C 
ATOM     31  C   UNL     1     -12.040  53.442  49.470  0.00  0.00    +0.000 C 
ENDBRANCH  29  30
ENDBRANCH  27  29
ENDBRANCH   3  27
TORSDOF 6
ENDMDL
MODEL 8
REMARK VINA RESULT:      -6.8      2.025      2.504
REMARK  Name = 
REMARK  9 active torsions:
REMARK  status: ('A' for Active; 'I' for Inactive)
REMARK    1  A    between atoms: S_1  and  N_4
REMARK    2  A    between atoms: S_1  and  C_5
REMARK    3  A    between atoms: N_10  and  C_13
REMARK    4  A    between atoms: C_16  and  C_19
REMARK    5  A    between atoms: C_19  and  O_23
REMARK    6  A    between atoms: O_23  and  C_26
REMARK    7  A    between atoms: C_24  and  C_27
REMARK    8  A    between atoms: C_24  and  C_28
REMARK    9  A    between atoms: C_26  and  C_29
REMARK                            x       y       z     vdW  Elec       q    Type
REMARK                         _______ _______ _______ _____ _____    ______ ____
ROOT
ATOM      1  C   UNL     1     -10.169  53.806  50.946  0.00  0.00    +0.000 A 
ATOM      2  S   UNL     1     -10.482  53.293  52.534  0.00  0.00    +0.000 S 
ATOM      3  C   UNL     1      -8.820  53.903  50.649  0.00  0.00    +0.000 A 
ATOM      4  C   UNL     1      -8.841  52.900  52.775  0.00  0.00    +0.000 A 
ATOM      5  C   UNL     1      -8.052  53.261  51.695  0.00  0.00    +0.000 A 
ATOM      6  C   UNL     1      -8.343  52.237  54.034  0.00  0.00    +0.000 C 
ATOM      7  C   UNL     1      -6.564  53.053  51.696  0.00  0.00    +0.000 C 
ATOM      8  C   UNL     1      -6.799  52.395  54.180  0.00  0.00    +0.000 C 
ATOM      9  C   UNL     1      -6.116  52.105  52.816  0.00  0.00    +0.000 C 
ATOM     10  C   UNL     1      -6.259  51.389  55.214  0.00  0.00    +0.000 C 
ATOM     11  C   UNL     1      -6.455  53.814  54.677  0.00  0.00    +0.000 C 
ENDROOT
BRANCH   1  15
ATOM     12  N   UNL     1     -12.961  55.467  49.419  0.00  0.00    +0.000 N 
ATOM     13  C   UNL     1     -11.800  55.325  50.161  0.00  0.00    +0.000 C 
ATOM     14  O   UNL     1     -11.261  56.281  50.695  0.00  0.00    +0.000 OA
ATOM     15  N   UNL     1     -11.296  54.040  50.177  0.00  0.00    +0.000 N 
ATOM     16  H   UNL     1     -13.404  54.666  49.057  0.00  0.00    +0.000 HD
ATOM     17  H   UNL     1     -11.721  53.317  49.662  0.00  0.00    +0.000 HD
BRANCH  12  18
ATOM     18  S   UNL     1     -13.628  56.987  49.122  0.00  0.00    +0.000 S 
ATOM     19  O   UNL     1     -14.693  56.819  48.153  0.00  0.00    +0.000 OA
ATOM     20  O   UNL     1     -12.490  57.831  48.798  0.00  0.00    +0.000 OA
BRANCH  18  21
ATOM     21  C   UNL     1     -14.285  57.503  50.723  0.00  0.00    +0.000 A 
ATOM     22  N   UNL     1     -14.969  56.547  51.398  0.00  0.00    +0.000 NA
ATOM     23  N   UNL     1     -14.070  58.780  51.094  0.00  0.00    +0.000 NA
ATOM     24  C   UNL     1     -15.454  56.953  52.585  0.00  0.00    +0.000 A 
ATOM     25  C   UNL     1     -14.620  59.121  52.267  0.00  0.00    +0.000 A 
ATOM     26  C   UNL     1     -15.317  58.236  53.068  0.00  0.00    +0.000 A 
ENDBRANCH  18  21
ENDBRANCH  12  18
ENDBRANCH   1  15
BRANCH   3  27
ATOM     27  C   UNL     1      -8.255  54.595  49.477  0.00  0.00    +0.000 C 
ATOM     28  O   UNL     1      -7.445  55.511  49.562  0.00  0.00    +0.000 OA
BRANCH  27  29
ATOM     29  O   UNL     1      -8.854  54.214  48.311  0.00  0.00    +0.000 OA
BRANCH  29  30
ATOM     30  C   UNL     1      -9.156  55.230  47.347  0.00  0.00    +0.000 C 
ATOM     31  C   UNL     1      -8.419  54.984  46.048  0.00  0.00    +0.000 C 
ENDBRANCH  29  30
ENDBRANCH  27  29
ENDBRANCH   3  27
TORSDOF 6
ENDMDL
MODEL 9
REMARK VINA RESULT:      -6.7      3.867      7.991
REMARK  Name = 
REMARK  9 active torsions:
REMARK  status: ('A' for Active; 'I' for Inactive)
REMARK    1  A    between atoms: S_1  and  N_4
REMARK    2  A    between atoms: S_1  and  C_5
REMARK    3  A    between atoms: N_10  and  C_13
REMARK    4  A    between atoms: C_16  and  C_19
REMARK    5  A    between atoms: C_19  and  O_23
REMARK    6  A    between atoms: O_23  and  C_26
REMARK    7  A    between atoms: C_24  and  C_27
REMARK    8  A    between atoms: C_24  and  C_28
REMARK    9  A    between atoms: C_26  and  C_29
REMARK                            x       y       z     vdW  Elec       q    Type
REMARK                         _______ _______ _______ _____ _____    ______ ____
ROOT
ATOM      1  C   UNL     1      -8.845  55.033  47.415  0.00  0.00    +0.000 A 
ATOM      2  S   UNL     1      -7.630  54.209  46.561  0.00  0.00    +0.000 S 
ATOM      3  C   UNL     1     -10.122  54.784  46.942  0.00  0.00    +0.000 A 
ATOM      4  C   UNL     1      -8.789  53.270  45.736  0.00  0.00    +0.000 A 
ATOM      5  C   UNL     1     -10.085  53.661  46.029  0.00  0.00    +0.000 A 
ATOM      6  C   UNL     1      -8.408  52.151  44.801  0.00  0.00    +0.000 C 
ATOM      7  C   UNL     1     -11.275  53.007  45.387  0.00  0.00    +0.000 C 
ATOM      8  C   UNL     1      -9.596  51.768  43.867  0.00  0.00    +0.000 C 
ATOM      9  C   UNL     1     -10.905  51.686  44.700  0.00  0.00    +0.000 C 
ATOM     10  C   UNL     1      -9.345  50.390  43.226  0.00  0.00    +0.000 C 
ATOM     11  C   UNL     1      -9.732  52.801  42.730  0.00  0.00    +0.000 C 
ENDROOT
BRANCH   1  15
ATOM     12  N   UNL     1      -7.936  56.111  50.716  0.00  0.00    +0.000 N 
ATOM     13  C   UNL     1      -8.344  55.246  49.714  0.00  0.00    +0.000 C 
ATOM     14  O   UNL     1      -8.578  54.070  49.941  0.00  0.00    +0.000 OA
ATOM     15  N   UNL     1      -8.391  55.819  48.459  0.00  0.00    +0.000 N 
ATOM     16  H   UNL     1      -7.820  57.066  50.510  0.00  0.00    +0.000 HD
ATOM     17  H   UNL     1      -8.113  56.752  48.312  0.00  0.00    +0.000 HD
BRANCH  12  18
ATOM     18  S   UNL     1      -7.635  55.558  52.280  0.00  0.00    +0.000 S 
ATOM     19  O   UNL     1      -8.868  54.995  52.794  0.00  0.00    +0.000 OA
ATOM     20  O   UNL     1      -7.025  56.688  52.958  0.00  0.00    +0.000 OA
BRANCH  18  21
ATOM     21  C   UNL     1      -6.380  54.276  52.063  0.00  0.00    +0.000 A 
ATOM     22  N   UNL     1      -6.659  53.093  52.662  0.00  0.00    +0.000 NA
ATOM     23  N   UNL     1      -5.280  54.606  51.360  0.00  0.00    +0.000 NA
ATOM     24  C   UNL     1      -5.710  52.155  52.493  0.00  0.00    +0.000 A 
ATOM     25  C   UNL     1      -4.362  53.634  51.271  0.00  0.00    +0.000 A 
ATOM     26  C   UNL     1      -4.532  52.373  51.812  0.00  0.00    +0.000 A 
ENDBRANCH  18  21
ENDBRANCH  12  18
ENDBRANCH   1  15
BRANCH   3  27
ATOM     27  C   UNL     1     -11.322  55.572  47.278  0.00  0.00    +0.000 C 
ATOM     28  O   UNL     1     -12.013  56.137  46.439  0.00  0.00    +0.000 OA
BRANCH  27  29
ATOM     29  O   UNL     1     -11.476  55.733  48.625  0.00  0.00    +0.000 OA
BRANCH  29  30
ATOM     30  C   UNL     1     -12.777  56.074  49.117  0.00  0.00    +0.000 C 
ATOM     31  C   UNL     1     -12.848  57.537  49.498  0.00  0.00    +0.000 C 
ENDBRANCH  29  30
ENDBRANCH  27  29
ENDBRANCH   3  27
TORSDOF 6
ENDMDL
