MODEL 1
REMARK VINA RESULT:      -7.9      0.000      0.000
REMARK  Name = 
REMARK  9 active torsions:
REMARK  status: ('A' for Active; 'I' for Inactive)
REMARK    1  A    between atoms: S_1  and  N_4
REMARK    2  A    between atoms: S_1  and  C_5
REMARK    3  A    between atoms: N_10  and  C_13
REMARK    4  A    between atoms: C_16  and  C_19
REMARK    5  A    between atoms: C_19  and  O_23
REMARK    6  A    between atoms: O_23  and  C_26
REMARK    7  A    between atoms: C_24  and  C_27
REMARK    8  A    between atoms: C_24  and  C_28
REMARK    9  A    between atoms: C_26  and  C_29
REMARK                            x       y       z     vdW  Elec       q    Type
REMARK                         _______ _______ _______ _____ _____    ______ ____
ROOT
ATOM      1  C   UNL     1     -11.019  54.279  51.665  0.00  0.00    +0.000 A 
ATOM      2  S   UNL     1     -10.520  53.671  53.181  0.00  0.00    +0.000 S 
ATOM      3  C   UNL     1      -9.963  54.778  50.924  0.00  0.00    +0.000 A 
ATOM      4  C   UNL     1      -8.860  53.862  52.786  0.00  0.00    +0.000 A 
ATOM      5  C   UNL     1      -8.697  54.438  51.538  0.00  0.00    +0.000 A 
ATOM      6  C   UNL     1      -7.716  53.463  53.705  0.00  0.00    +0.000 C 
ATOM      7  C   UNL     1      -7.338  54.750  50.979  0.00  0.00    +0.000 C 
ATOM      8  C   UNL     1      -6.379  54.166  53.283  0.00  0.00    +0.000 C 
ATOM      9  C   UNL     1      -6.214  54.064  51.748  0.00  0.00    +0.000 C 
ATOM     10  C   UNL     1      -5.144  53.485  53.908  0.00  0.00    +0.000 C 
ATOM     11  C   UNL     1      -6.380  55.638  53.743  0.00  0.00    +0.000 C 
ENDROOT
BRANCH   1  15
ATOM     12  N   UNL     1     -14.508  55.169  51.178  0.00  0.00    +0.000 N 
ATOM     13  C   UNL     1     -13.179  55.274  51.600  0.00  0.00    +0.000 C 
ATOM     14  O   UNL     1     -12.753  56.325  52.082  0.00  0.00    +0.000 OA
ATOM     15  N   UNL     1     -12.374  54.175  51.352  0.00  0.00    +0.000 N 
ATOM     16  H   UNL     1     -14.807  54.321  50.776  0.00  0.00    +0.000 HD
ATOM     17  H   UNL     1     -12.745  53.347  50.967  0.00  0.00    +0.000 HD
BRANCH  12  18
ATOM     18  S   UNL     1     -15.621  56.419  51.323  0.00  0.00    +0.000 S 
ATOM     19  O   UNL     1     -15.751  56.797  52.717  0.00  0.00    +0.000 OA
ATOM     20  O   UNL     1     -16.791  55.992  50.580  0.00  0.00    +0.000 OA
BRANCH  18  21
ATOM     21  C   UNL     1     -14.903  57.790  50.428  0.00  0.00    +0.000 A 
ATOM     22  C   UNL     1     -14.325  57.617  49.167  0.00  0.00    +0.000 A 
ATOM     23  C   UNL     1     -15.045  59.079  50.964  0.00  0.00    +0.000 A 
ATOM     24  C   UNL     1     -13.854  58.737  48.459  0.00  0.00    +0.000 A 
ATOM     25  C   UNL     1     -14.573  60.187  50.254  0.00  0.00    +0.000 A 
ATOM     26  C   UNL     1     -13.973  60.017  49.008  0.00  0.00    +0.000 A 
ENDBRANCH  18  21
ENDBRANCH  12  18
ENDBRANCH   1  15
BRANCH   3  27
ATOM     27  C   UNL     1     -10.149  55.549  49.698  0.00  0.00    +0.000 C 
ATOM     28  O   UNL     1      -9.908  56.747  49.610  0.00  0.00    +0.000 OA
BRANCH  27  29
ATOM     29  O   UNL     1     -10.614  54.775  48.683  0.00  0.00    +0.000 OA
BRANCH  29  30
ATOM     30  C   UNL     1     -11.826  55.192  48.054  0.00  0.00    +0.000 C 
ATOM     31  C   UNL     1     -11.547  55.598  46.623  0.00  0.00    +0.000 C 
ENDBRANCH  29  30
ENDBRANCH  27  29
ENDBRANCH   3  27
TORSDOF 6
ENDMDL
MODEL 2
REMARK VINA RESULT:      -7.4      2.634      7.744
REMARK  Name = 
REMARK  9 active torsions:
REMARK  status: ('A' for Active; 'I' for Inactive)
REMARK    1  A    between atoms: S_1  and  N_4
REMARK    2  A    between atoms: S_1  and  C_5
REMARK    3  A    between atoms: N_10  and  C_13
REMARK    4  A    between atoms: C_16  and  C_19
REMARK    5  A    between atoms: C_19  and  O_23
REMARK    6  A    between atoms: O_23  and  C_26
REMARK    7  A    between atoms: C_24  and  C_27
REMARK    8  A    between atoms: C_24  and  C_28
REMARK    9  A    between atoms: C_26  and  C_29
REMARK                            x       y       z     vdW  Elec       q    Type
REMARK                         _______ _______ _______ _____ _____    ______ ____
ROOT
ATOM      1  C   UNL     1     -11.064  54.742  50.112  0.00  0.00    +0.000 A 
ATOM      2  S   UNL     1     -11.693  54.791  51.698  0.00  0.00    +0.000 S 
ATOM      3  C   UNL     1     -11.682  55.651  49.271  0.00  0.00    +0.000 A 
ATOM      4  C   UNL     1     -12.647  56.174  51.349  0.00  0.00    +0.000 A 
ATOM      5  C   UNL     1     -12.530  56.552  50.023  0.00  0.00    +0.000 A 
ATOM      6  C   UNL     1     -13.525  56.882  52.369  0.00  0.00    +0.000 C 
ATOM      7  C   UNL     1     -13.300  57.711  49.455  0.00  0.00    +0.000 C 
ATOM      8  C   UNL     1     -14.595  57.788  51.666  0.00  0.00    +0.000 C 
ATOM      9  C   UNL     1     -13.912  58.595  50.536  0.00  0.00    +0.000 C 
ATOM     10  C   UNL     1     -15.212  58.816  52.636  0.00  0.00    +0.000 C 
ATOM     11  C   UNL     1     -15.747  56.924  51.112  0.00  0.00    +0.000 C 
ENDROOT
BRANCH   1  15
ATOM     12  N   UNL     1      -7.725  53.313  50.002  0.00  0.00    +0.000 N 
ATOM     13  C   UNL     1      -8.732  54.269  50.163  0.00  0.00    +0.000 C 
ATOM     14  O   UNL     1      -8.476  55.382  50.626  0.00  0.00    +0.000 OA
ATOM     15  N   UNL     1     -10.020  53.851  49.867  0.00  0.00    +0.000 N 
ATOM     16  H   UNL     1      -7.971  52.426  49.651  0.00  0.00    +0.000 HD
ATOM     17  H   UNL     1     -10.192  52.955  49.496  0.00  0.00    +0.000 HD
BRANCH  12  18
ATOM     18  S   UNL     1      -6.113  53.603  50.377  0.00  0.00    +0.000 S 
ATOM     19  O   UNL     1      -5.716  54.897  49.857  0.00  0.00    +0.000 OA
ATOM     20  O   UNL     1      -5.393  52.412  49.970  0.00  0.00    +0.000 OA
BRANCH  18  21
ATOM     21  C   UNL     1      -6.053  53.667  52.163  0.00  0.00    +0.000 A 
ATOM     22  C   UNL     1      -5.379  54.691  52.835  0.00  0.00    +0.000 A 
ATOM     23  C   UNL     1      -6.810  52.732  52.886  0.00  0.00    +0.000 A 
ATOM     24  C   UNL     1      -5.434  54.753  54.239  0.00  0.00    +0.000 A 
ATOM     25  C   UNL     1      -6.858  52.802  54.281  0.00  0.00    +0.000 A 
ATOM     26  C   UNL     1      -6.167  53.804  54.957  0.00  0.00    +0.000 A 
ENDBRANCH  18  21
ENDBRANCH  12  18
ENDBRANCH   1  15
BRANCH   3  27
ATOM     27  C   UNL     1     -11.485  55.655  47.825  0.00  0.00    +0.000 C 
ATOM     28  O   UNL     1     -12.405  55.606  47.016  0.00  0.00    +0.000 OA
BRANCH  27  29
ATOM     29  O   UNL     1     -10.168  55.722  47.496  0.00  0.00    +0.000 OA
BRANCH  29  30
ATOM     30  C   UNL     1      -9.715  54.856  46.457  0.00  0.00    +0.000 C 
ATOM     31  C   UNL     1      -8.206  54.921  46.357  0.00  0.00    +0.000 C 
ENDBRANCH  29  30
ENDBRANCH  27  29
ENDBRANCH   3  27
TORSDOF 6
ENDMDL
MODEL 3
REMARK VINA RESULT:      -7.2      3.824      6.105
REMARK  Name = 
REMARK  9 active torsions:
REMARK  status: ('A' for Active; 'I' for Inactive)
REMARK    1  A    between atoms: S_1  and  N_4
REMARK    2  A    between atoms: S_1  and  C_5
REMARK    3  A    between atoms: N_10  and  C_13
REMARK    4  A    between atoms: C_16  and  C_19
REMARK    5  A    between atoms: C_19  and  O_23
REMARK    6  A    between atoms: O_23  and  C_26
REMARK    7  A    between atoms: C_24  and  C_27
REMARK    8  A    between atoms: C_24  and  C_28
REMARK    9  A    between atoms: C_26  and  C_29
REMARK                            x       y       z     vdW  Elec       q    Type
REMARK                         _______ _______ _______ _____ _____    ______ ____
ROOT
ATOM      1  C   UNL     1     -10.905  53.419  47.499  0.00  0.00    +0.000 A 
ATOM      2  S   UNL     1     -11.847  52.313  46.602  0.00  0.00    +0.000 S 
ATOM      3  C   UNL     1      -9.609  53.514  47.024  0.00  0.00    +0.000 A 
ATOM      4  C   UNL     1     -10.610  52.106  45.431  0.00  0.00    +0.000 A 
ATOM      5  C   UNL     1      -9.474  52.826  45.758  0.00  0.00    +0.000 A 
ATOM      6  C   UNL     1     -10.745  51.226  44.198  0.00  0.00    +0.000 C 
ATOM      7  C   UNL     1      -8.233  52.778  44.912  0.00  0.00    +0.000 C 
ATOM      8  C   UNL     1      -9.340  50.881  43.592  0.00  0.00    +0.000 C 
ATOM      9  C   UNL     1      -8.481  52.166  43.538  0.00  0.00    +0.000 C 
ATOM     10  C   UNL     1      -9.446  50.356  42.145  0.00  0.00    +0.000 C 
ATOM     11  C   UNL     1      -8.648  49.787  44.432  0.00  0.00    +0.000 C 
ENDROOT
BRANCH   1  15
ATOM     12  N   UNL     1     -12.784  55.943  49.317  0.00  0.00    +0.000 N 
ATOM     13  C   UNL     1     -12.070  55.343  48.275  0.00  0.00    +0.000 C 
ATOM     14  O   UNL     1     -12.011  55.875  47.165  0.00  0.00    +0.000 OA
ATOM     15  N   UNL     1     -11.535  54.094  48.544  0.00  0.00    +0.000 N 
ATOM     16  H   UNL     1     -12.829  55.477  50.183  0.00  0.00    +0.000 HD
ATOM     17  H   UNL     1     -11.597  53.696  49.443  0.00  0.00    +0.000 HD
BRANCH  12  18
ATOM     18  S   UNL     1     -13.568  57.421  49.164  0.00  0.00    +0.000 S 
ATOM     19  O   UNL     1     -14.580  57.332  48.130  0.00  0.00    +0.000 OA
ATOM     20  O   UNL     1     -12.517  58.414  49.060  0.00  0.00    +0.000 OA
BRANCH  18  21
ATOM     21  C   UNL     1     -14.382  57.683  50.734  0.00  0.00    +0.000 A 
ATOM     22  C   UNL     1     -15.023  56.638  51.408  0.00  0.00    +0.000 A 
ATOM     23  C   UNL     1     -14.258  58.940  51.345  0.00  0.00    +0.000 A 
ATOM     24  C   UNL     1     -15.572  56.868  52.682  0.00  0.00    +0.000 A 
ATOM     25  C   UNL     1     -14.808  59.159  52.611  0.00  0.00    +0.000 A 
ATOM     26  C   UNL     1     -15.469  58.128  53.275  0.00  0.00    +0.000 A 
ENDBRANCH  18  21
ENDBRANCH  12  18
ENDBRANCH   1  15
BRANCH   3  27
ATOM     27  C   UNL     1      -8.549  54.215  47.744  0.00  0.00    +0.000 C 
ATOM     28  O   UNL     1      -8.453  55.436  47.786  0.00  0.00    +0.000 OA
BRANCH  27  29
ATOM     29  O   UNL     1      -7.697  53.349  48.353  0.00  0.00    +0.000 OA
BRANCH  29  30
ATOM     30  C   UNL     1      -6.346  53.777  48.517  0.00  0.00    +0.000 C 
ATOM     31  C   UNL     1      -5.557  53.474  47.261  0.00  0.00    +0.000 C 
ENDBRANCH  29  30
ENDBRANCH  27  29
ENDBRANCH   3  27
TORSDOF 6
ENDMDL
MODEL 4
REMARK VINA RESULT:      -7.1      3.764      7.448
REMARK  Name = 
REMARK  9 active torsions:
REMARK  status: ('A' for Active; 'I' for Inactive)
REMARK    1  A    between atoms: S_1  and  N_4
REMARK    2  A    between atoms: S_1  and  C_5
REMARK    3  A    between atoms: N_10  and  C_13
REMARK    4  A    between atoms: C_16  and  C_19
REMARK    5  A    between atoms: C_19  and  O_23
REMARK    6  A    between atoms: O_23  and  C_26
REMARK    7  A    between atoms: C_24  and  C_27
REMARK    8  A    between atoms: C_24  and  C_28
REMARK    9  A    between atoms: C_26  and  C_29
REMARK                            x       y       z     vdW  Elec       q    Type
REMARK                         _______ _______ _______ _____ _____    ______ ____
ROOT
ATOM      1  C   UNL     1     -11.168  54.700  49.963  0.00  0.00    +0.000 A 
ATOM      2  S   UNL     1     -11.797  54.693  51.551  0.00  0.00    +0.000 S 
ATOM      3  C   UNL     1     -11.752  55.670  49.168  0.00  0.00    +0.000 A 
ATOM      4  C   UNL     1     -12.701  56.125  51.269  0.00  0.00    +0.000 A 
ATOM      5  C   UNL     1     -12.568  56.562  49.963  0.00  0.00    +0.000 A 
ATOM      6  C   UNL     1     -13.554  56.813  52.324  0.00  0.00    +0.000 C 
ATOM      7  C   UNL     1     -13.295  57.774  49.454  0.00  0.00    +0.000 C 
ATOM      8  C   UNL     1     -14.590  57.790  51.666  0.00  0.00    +0.000 C 
ATOM      9  C   UNL     1     -13.877  58.626  50.576  0.00  0.00    +0.000 C 
ATOM     10  C   UNL     1     -15.171  58.790  52.685  0.00  0.00    +0.000 C 
ATOM     11  C   UNL     1     -15.771  56.996  51.071  0.00  0.00    +0.000 C 
ENDROOT
BRANCH   1  15
ATOM     12  N   UNL     1      -9.451  51.783  48.638  0.00  0.00    +0.000 N 
ATOM     13  C   UNL     1     -10.507  52.626  49.000  0.00  0.00    +0.000 C 
ATOM     14  O   UNL     1     -11.662  52.376  48.650  0.00  0.00    +0.000 OA
ATOM     15  N   UNL     1     -10.156  53.784  49.675  0.00  0.00    +0.000 N 
ATOM     16  H   UNL     1      -8.539  52.028  48.916  0.00  0.00    +0.000 HD
ATOM     17  H   UNL     1      -9.224  53.955  49.943  0.00  0.00    +0.000 HD
BRANCH  12  18
ATOM     18  S   UNL     1      -9.665  50.371  47.753  0.00  0.00    +0.000 S 
ATOM     19  O   UNL     1     -10.898  49.724  48.156  0.00  0.00    +0.000 OA
ATOM     20  O   UNL     1      -8.409  49.652  47.851  0.00  0.00    +0.000 OA
BRANCH  18  21
ATOM     21  C   UNL     1      -9.832  50.905  46.055  0.00  0.00    +0.000 A 
ATOM     22  C   UNL     1     -11.088  51.103  45.472  0.00  0.00    +0.000 A 
ATOM     23  C   UNL     1      -8.669  51.247  45.349  0.00  0.00    +0.000 A 
ATOM     24  C   UNL     1     -11.173  51.610  44.163  0.00  0.00    +0.000 A 
ATOM     25  C   UNL     1      -8.763  51.749  44.048  0.00  0.00    +0.000 A 
ATOM     26  C   UNL     1     -10.011  51.925  43.453  0.00  0.00    +0.000 A 
ENDBRANCH  18  21
ENDBRANCH  12  18
ENDBRANCH   1  15
BRANCH   3  27
ATOM     27  C   UNL     1     -11.552  55.737  47.724  0.00  0.00    +0.000 C 
ATOM     28  O   UNL     1     -12.471  55.829  46.918  0.00  0.00    +0.000 OA
BRANCH  27  29
ATOM     29  O   UNL     1     -10.235  55.689  47.395  0.00  0.00    +0.000 OA
BRANCH  29  30
ATOM     30  C   UNL     1      -9.874  54.866  46.286  0.00  0.00    +0.000 C 
ATOM     31  C   UNL     1      -8.373  54.898  46.091  0.00  0.00    +0.000 C 
ENDBRANCH  29  30
ENDBRANCH  27  29
ENDBRANCH   3  27
TORSDOF 6
ENDMDL
MODEL 5
REMARK VINA RESULT:      -7.1      2.031      2.410
REMARK  Name = 
REMARK  9 active torsions:
REMARK  status: ('A' for Active; 'I' for Inactive)
REMARK    1  A    between atoms: S_1  and  N_4
REMARK    2  A    between atoms: S_1  and  C_5
REMARK    3  A    between atoms: N_10  and  C_13
REMARK    4  A    between atoms: C_16  and  C_19
REMARK    5  A    between atoms: C_19  and  O_23
REMARK    6  A    between atoms: O_23  and  C_26
REMARK    7  A    between atoms: C_24  and  C_27
REMARK    8  A    between atoms: C_24  and  C_28
REMARK    9  A    between atoms: C_26  and  C_29
REMARK                            x       y       z     vdW  Elec       q    Type
REMARK                         _______ _______ _______ _____ _____    ______ ____
ROOT
ATOM      1  C   UNL     1     -11.263  53.325  50.507  0.00  0.00    +0.000 A 
ATOM      2  S   UNL     1     -10.422  52.415  51.683  0.00  0.00    +0.000 S 
ATOM      3  C   UNL     1     -10.507  53.543  49.369  0.00  0.00    +0.000 A 
ATOM      4  C   UNL     1      -9.118  52.109  50.609  0.00  0.00    +0.000 A 
ATOM      5  C   UNL     1      -9.300  52.745  49.393  0.00  0.00    +0.000 A 
ATOM      6  C   UNL     1      -7.908  51.259  50.962  0.00  0.00    +0.000 C 
ATOM      7  C   UNL     1      -8.277  52.668  48.296  0.00  0.00    +0.000 C 
ATOM      8  C   UNL     1      -6.713  51.540  49.985  0.00  0.00    +0.000 C 
ATOM      9  C   UNL     1      -7.243  51.572  48.532  0.00  0.00    +0.000 C 
ATOM     10  C   UNL     1      -5.644  50.431  50.044  0.00  0.00    +0.000 C 
ATOM     11  C   UNL     1      -6.023  52.869  50.353  0.00  0.00    +0.000 C 
ENDROOT
BRANCH   1  15
ATOM     12  N   UNL     1     -14.110  55.339  51.529  0.00  0.00    +0.000 N 
ATOM     13  C   UNL     1     -12.777  54.962  51.338  0.00  0.00    +0.000 C 
ATOM     14  O   UNL     1     -11.861  55.758  51.553  0.00  0.00    +0.000 OA
ATOM     15  N   UNL     1     -12.573  53.699  50.807  0.00  0.00    +0.000 N 
ATOM     16  H   UNL     1     -14.817  54.684  51.324  0.00  0.00    +0.000 HD
ATOM     17  H   UNL     1     -13.326  53.085  50.648  0.00  0.00    +0.000 HD
BRANCH  12  18
ATOM     18  S   UNL     1     -14.566  56.855  52.092  0.00  0.00    +0.000 S 
ATOM     19  O   UNL     1     -13.662  57.276  53.145  0.00  0.00    +0.000 OA
ATOM     20  O   UNL     1     -15.988  56.765  52.357  0.00  0.00    +0.000 OA
BRANCH  18  21
ATOM     21  C   UNL     1     -14.361  57.953  50.696  0.00  0.00    +0.000 A 
ATOM     22  C   UNL     1     -14.141  57.462  49.406  0.00  0.00    +0.000 A 
ATOM     23  C   UNL     1     -14.554  59.328  50.899  0.00  0.00    +0.000 A 
ATOM     24  C   UNL     1     -14.076  58.357  48.324  0.00  0.00    +0.000 A 
ATOM     25  C   UNL     1     -14.487  60.211  49.817  0.00  0.00    +0.000 A 
ATOM     26  C   UNL     1     -14.242  59.728  48.534  0.00  0.00    +0.000 A 
ENDBRANCH  18  21
ENDBRANCH  12  18
ENDBRANCH   1  15
BRANCH   3  27
ATOM     27  C   UNL     1     -10.908  54.472  48.316  0.00  0.00    +0.000 C 
ATOM     28  O   UNL     1     -10.321  55.522  48.081  0.00  0.00    +0.000 OA
BRANCH  27  29
ATOM     29  O   UNL     1     -11.999  54.025  47.640  0.00  0.00    +0.000 OA
BRANCH  29  30
ATOM     30  C   UNL     1     -11.774  53.059  46.614  0.00  0.00    +0.000 C 
ATOM     31  C   UNL     1     -11.523  53.761  45.296  0.00  0.00    +0.000 C 
ENDBRANCH  29  30
ENDBRANCH  27  29
ENDBRANCH   3  27
TORSDOF 6
ENDMDL
MODEL 6
REMARK VINA RESULT:      -7.0      2.478      3.910
REMARK  Name = 
REMARK  9 active torsions:
REMARK  status: ('A' for Active; 'I' for Inactive)
REMARK    1  A    between atoms: S_1  and  N_4
REMARK    2  A    between atoms: S_1  and  C_5
REMARK    3  A    between atoms: N_10  and  C_13
REMARK    4  A    between atoms: C_16  and  C_19
REMARK    5  A    between atoms: C_19  and  O_23
REMARK    6  A    between atoms: O_23  and  C_26
REMARK    7  A    between atoms: C_24  and  C_27
REMARK    8  A    between atoms: C_24  and  C_28
REMARK    9  A    between atoms: C_26  and  C_29
REMARK                            x       y       z     vdW  Elec       q    Type
REMARK                         _______ _______ _______ _____ _____    ______ ____
ROOT
ATOM      1  C   UNL     1     -11.302  53.488  50.104  0.00  0.00    +0.000 A 
ATOM      2  S   UNL     1     -10.880  54.072  48.555  0.00  0.00    +0.000 S 
ATOM      3  C   UNL     1     -10.265  52.801  50.709  0.00  0.00    +0.000 A 
ATOM      4  C   UNL     1      -9.240  53.609  48.755  0.00  0.00    +0.000 A 
ATOM      5  C   UNL     1      -9.036  52.964  49.962  0.00  0.00    +0.000 A 
ATOM      6  C   UNL     1      -8.153  53.863  47.722  0.00  0.00    +0.000 C 
ATOM      7  C   UNL     1      -7.691  52.423  50.357  0.00  0.00    +0.000 C 
ATOM      8  C   UNL     1      -6.907  52.944  47.972  0.00  0.00    +0.000 C 
ATOM      9  C   UNL     1      -6.562  52.956  49.481  0.00  0.00    +0.000 C 
ATOM     10  C   UNL     1      -5.655  53.449  47.227  0.00  0.00    +0.000 C 
ATOM     11  C   UNL     1      -7.192  51.510  47.481  0.00  0.00    +0.000 C 
ENDROOT
BRANCH   1  15
ATOM     12  N   UNL     1     -14.100  55.340  51.500  0.00  0.00    +0.000 N 
ATOM     13  C   UNL     1     -12.784  55.037  51.137  0.00  0.00    +0.000 C 
ATOM     14  O   UNL     1     -11.891  55.881  51.243  0.00  0.00    +0.000 OA
ATOM     15  N   UNL     1     -12.581  53.789  50.572  0.00  0.00    +0.000 N 
ATOM     16  H   UNL     1     -14.790  54.649  51.379  0.00  0.00    +0.000 HD
ATOM     17  H   UNL     1     -13.315  53.135  50.503  0.00  0.00    +0.000 HD
BRANCH  12  18
ATOM     18  S   UNL     1     -14.561  56.827  52.133  0.00  0.00    +0.000 S 
ATOM     19  O   UNL     1     -13.596  57.254  53.127  0.00  0.00    +0.000 OA
ATOM     20  O   UNL     1     -15.956  56.684  52.498  0.00  0.00    +0.000 OA
BRANCH  18  21
ATOM     21  C   UNL     1     -14.494  57.963  50.754  0.00  0.00    +0.000 A 
ATOM     22  C   UNL     1     -14.460  59.347  50.948  0.00  0.00    +0.000 A 
ATOM     23  C   UNL     1     -14.346  57.431  49.463  0.00  0.00    +0.000 A 
ATOM     24  C   UNL     1     -14.316  60.200  49.839  0.00  0.00    +0.000 A 
ATOM     25  C   UNL     1     -14.204  58.287  48.367  0.00  0.00    +0.000 A 
ATOM     26  C   UNL     1     -14.196  59.668  48.553  0.00  0.00    +0.000 A 
ENDBRANCH  18  21
ENDBRANCH  12  18
ENDBRANCH   1  15
BRANCH   3  27
ATOM     27  C   UNL     1     -10.437  52.019  51.930  0.00  0.00    +0.000 C 
ATOM     28  O   UNL     1     -10.418  50.794  51.956  0.00  0.00    +0.000 OA
BRANCH  27  29
ATOM     29  O   UNL     1     -10.616  52.815  53.016  0.00  0.00    +0.000 OA
BRANCH  29  30
ATOM     30  C   UNL     1      -9.443  53.345  53.631  0.00  0.00    +0.000 C 
ATOM     31  C   UNL     1      -9.443  54.855  53.519  0.00  0.00    +0.000 C 
ENDBRANCH  29  30
ENDBRANCH  27  29
ENDBRANCH   3  27
TORSDOF 6
ENDMDL
MODEL 7
REMARK VINA RESULT:      -7.0      2.492      3.267
REMARK  Name = 
REMARK  9 active torsions:
REMARK  status: ('A' for Active; 'I' for Inactive)
REMARK    1  A    between atoms: S_1  and  N_4
REMARK    2  A    between atoms: S_1  and  C_5
REMARK    3  A    between atoms: N_10  and  C_13
REMARK    4  A    between atoms: C_16  and  C_19
REMARK    5  A    between atoms: C_19  and  O_23
REMARK    6  A    between atoms: O_23  and  C_26
REMARK    7  A    between atoms: C_24  and  C_27
REMARK    8  A    between atoms: C_24  and  C_28
REMARK    9  A    between atoms: C_26  and  C_29
REMARK                            x       y       z     vdW  Elec       q    Type
REMARK                         _______ _______ _______ _____ _____    ______ ____
ROOT
ATOM      1  C   UNL     1      -9.940  54.800  51.022  0.00  0.00    +0.000 A 
ATOM      2  S   UNL     1     -10.181  54.849  52.712  0.00  0.00    +0.000 S 
ATOM      3  C   UNL     1      -9.327  53.630  50.611  0.00  0.00    +0.000 A 
ATOM      4  C   UNL     1      -9.673  53.221  52.899  0.00  0.00    +0.000 A 
ATOM      5  C   UNL     1      -9.269  52.672  51.695  0.00  0.00    +0.000 A 
ATOM      6  C   UNL     1      -9.655  52.483  54.229  0.00  0.00    +0.000 C 
ATOM      7  C   UNL     1      -8.739  51.269  51.599  0.00  0.00    +0.000 C 
ATOM      8  C   UNL     1      -8.733  51.216  54.162  0.00  0.00    +0.000 C 
ATOM      9  C   UNL     1      -9.023  50.447  52.851  0.00  0.00    +0.000 C 
ATOM     10  C   UNL     1      -9.007  50.238  55.322  0.00  0.00    +0.000 C 
ATOM     11  C   UNL     1      -7.249  51.629  54.245  0.00  0.00    +0.000 C 
ENDROOT
BRANCH   1  15
ATOM     12  N   UNL     1     -12.199  57.144  49.406  0.00  0.00    +0.000 N 
ATOM     13  C   UNL     1     -11.766  55.988  50.064  0.00  0.00    +0.000 C 
ATOM     14  O   UNL     1     -12.578  55.167  50.494  0.00  0.00    +0.000 OA
ATOM     15  N   UNL     1     -10.401  55.887  50.280  0.00  0.00    +0.000 N 
ATOM     16  H   UNL     1     -11.522  57.789  49.097  0.00  0.00    +0.000 HD
ATOM     17  H   UNL     1      -9.777  56.559  49.921  0.00  0.00    +0.000 HD
BRANCH  12  18
ATOM     18  S   UNL     1     -13.818  57.485  49.116  0.00  0.00    +0.000 S 
ATOM     19  O   UNL     1     -14.457  56.337  48.502  0.00  0.00    +0.000 OA
ATOM     20  O   UNL     1     -13.835  58.766  48.438  0.00  0.00    +0.000 OA
BRANCH  18  21
ATOM     21  C   UNL     1     -14.539  57.738  50.732  0.00  0.00    +0.000 A 
ATOM     22  C   UNL     1     -15.280  56.736  51.367  0.00  0.00    +0.000 A 
ATOM     23  C   UNL     1     -14.239  58.927  51.415  0.00  0.00    +0.000 A 
ATOM     24  C   UNL     1     -15.751  56.945  52.675  0.00  0.00    +0.000 A 
ATOM     25  C   UNL     1     -14.713  59.126  52.715  0.00  0.00    +0.000 A 
ATOM     26  C   UNL     1     -15.473  58.141  53.341  0.00  0.00    +0.000 A 
ENDBRANCH  18  21
ENDBRANCH  12  18
ENDBRANCH   1  15
BRANCH   3  27
ATOM     27  C   UNL     1      -8.813  53.436  49.258  0.00  0.00    +0.000 C 
ATOM     28  O   UNL     1      -9.054  52.445  48.579  0.00  0.00    +0.000 OA
BRANCH  27  29
ATOM     29  O   UNL     1      -8.046  54.483  48.857  0.00  0.00    +0.000 OA
BRANCH  29  30
ATOM     30  C   UNL     1      -7.912  54.687  47.451  0.00  0.00    +0.000 C 
ATOM     31  C   UNL     1      -9.135  55.403  46.918  0.00  0.00    +0.000 C 
ENDBRANCH  29  30
ENDBRANCH  27  29
ENDBRANCH   3  27
TORSDOF 6
ENDMDL
MODEL 8
REMARK VINA RESULT:      -7.0      4.101      7.598
REMARK  Name = 
REMARK  9 active torsions:
REMARK  status: ('A' for Active; 'I' for Inactive)
REMARK    1  A    between atoms: S_1  and  N_4
REMARK    2  A    between atoms: S_1  and  C_5
REMARK    3  A    between atoms: N_10  and  C_13
REMARK    4  A    between atoms: C_16  and  C_19
REMARK    5  A    between atoms: C_19  and  O_23
REMARK    6  A    between atoms: O_23  and  C_26
REMARK    7  A    between atoms: C_24  and  C_27
REMARK    8  A    between atoms: C_24  and  C_28
REMARK    9  A    between atoms: C_26  and  C_29
REMARK                            x       y       z     vdW  Elec       q    Type
REMARK                         _______ _______ _______ _____ _____    ______ ____
ROOT
ATOM      1  C   UNL     1      -8.678  54.919  47.187  0.00  0.00    +0.000 A 
ATOM      2  S   UNL     1      -7.450  54.129  46.300  0.00  0.00    +0.000 S 
ATOM      3  C   UNL     1      -9.945  54.604  46.730  0.00  0.00    +0.000 A 
ATOM      4  C   UNL     1      -8.592  53.185  45.434  0.00  0.00    +0.000 A 
ATOM      5  C   UNL     1      -9.891  53.515  45.778  0.00  0.00    +0.000 A 
ATOM      6  C   UNL     1      -8.217  52.130  44.405  0.00  0.00    +0.000 C 
ATOM      7  C   UNL     1     -11.076  52.859  45.127  0.00  0.00    +0.000 C 
ATOM      8  C   UNL     1      -9.434  51.783  43.479  0.00  0.00    +0.000 C 
ATOM      9  C   UNL     1     -10.699  51.601  44.351  0.00  0.00    +0.000 C 
ATOM     10  C   UNL     1      -9.225  50.457  42.719  0.00  0.00    +0.000 C 
ATOM     11  C   UNL     1      -9.641  52.892  42.428  0.00  0.00    +0.000 C 
ENDROOT
BRANCH   1  15
ATOM     12  N   UNL     1      -7.548  55.954  50.482  0.00  0.00    +0.000 N 
ATOM     13  C   UNL     1      -8.049  55.126  49.473  0.00  0.00    +0.000 C 
ATOM     14  O   UNL     1      -8.186  53.916  49.661  0.00  0.00    +0.000 OA
ATOM     15  N   UNL     1      -8.276  55.731  48.247  0.00  0.00    +0.000 N 
ATOM     16  H   UNL     1      -7.430  56.912  50.288  0.00  0.00    +0.000 HD
ATOM     17  H   UNL     1      -8.159  56.702  48.129  0.00  0.00    +0.000 HD
BRANCH  12  18
ATOM     18  S   UNL     1      -7.140  55.394  52.013  0.00  0.00    +0.000 S 
ATOM     19  O   UNL     1      -6.951  56.518  52.909  0.00  0.00    +0.000 OA
ATOM     20  O   UNL     1      -6.063  54.445  51.811  0.00  0.00    +0.000 OA
BRANCH  18  21
ATOM     21  C   UNL     1      -8.563  54.463  52.565  0.00  0.00    +0.000 A 
ATOM     22  C   UNL     1      -9.862  54.963  52.428  0.00  0.00    +0.000 A 
ATOM     23  C   UNL     1      -8.361  53.154  53.028  0.00  0.00    +0.000 A 
ATOM     24  C   UNL     1     -10.957  54.160  52.792  0.00  0.00    +0.000 A 
ATOM     25  C   UNL     1      -9.456  52.363  53.388  0.00  0.00    +0.000 A 
ATOM     26  C   UNL     1     -10.750  52.866  53.277  0.00  0.00    +0.000 A 
ENDBRANCH  18  21
ENDBRANCH  12  18
ENDBRANCH   1  15
BRANCH   3  27
ATOM     27  C   UNL     1     -11.145  55.310  47.168  0.00  0.00    +0.000 C 
ATOM     28  O   UNL     1     -11.841  55.988  46.421  0.00  0.00    +0.000 OA
BRANCH  27  29
ATOM     29  O   UNL     1     -11.387  55.119  48.491  0.00  0.00    +0.000 OA
BRANCH  29  30
ATOM     30  C   UNL     1     -12.348  54.123  48.837  0.00  0.00    +0.000 C 
ATOM     31  C   UNL     1     -11.644  52.896  49.376  0.00  0.00    +0.000 C 
ENDBRANCH  29  30
ENDBRANCH  27  29
ENDBRANCH   3  27
TORSDOF 6
ENDMDL
MODEL 9
REMARK VINA RESULT:      -6.7      3.768      5.745
REMARK  Name = 
REMARK  9 active torsions:
REMARK  status: ('A' for Active; 'I' for Inactive)
REMARK    1  A    between atoms: S_1  and  N_4
REMARK    2  A    between atoms: S_1  and  C_5
REMARK    3  A    between atoms: N_10  and  C_13
REMARK    4  A    between atoms: C_16  and  C_19
REMARK    5  A    between atoms: C_19  and  O_23
REMARK    6  A    between atoms: O_23  and  C_26
REMARK    7  A    between atoms: C_24  and  C_27
REMARK    8  A    between atoms: C_24  and  C_28
REMARK    9  A    between atoms: C_26  and  C_29
REMARK                            x       y       z     vdW  Elec       q    Type
REMARK                         _______ _______ _______ _____ _____    ______ ____
ROOT
ATOM      1  C   UNL     1     -10.791  54.550  47.912  0.00  0.00    +0.000 A 
ATOM      2  S   UNL     1     -10.783  54.432  46.208  0.00  0.00    +0.000 S 
ATOM      3  C   UNL     1     -10.723  53.313  48.527  0.00  0.00    +0.000 A 
ATOM      4  C   UNL     1     -10.468  52.745  46.261  0.00  0.00    +0.000 A 
ATOM      5  C   UNL     1     -10.431  52.274  47.561  0.00  0.00    +0.000 A 
ATOM      6  C   UNL     1     -10.273  51.878  45.027  0.00  0.00    +0.000 C 
ATOM      7  C   UNL     1     -10.214  50.821  47.874  0.00  0.00    +0.000 C 
ATOM      8  C   UNL     1     -10.464  50.359  45.366  0.00  0.00    +0.000 C 
ATOM      9  C   UNL     1      -9.705  50.031  46.673  0.00  0.00    +0.000 C 
ATOM     10  C   UNL     1      -9.880  49.443  44.271  0.00  0.00    +0.000 C 
ATOM     11  C   UNL     1     -11.965  50.025  45.497  0.00  0.00    +0.000 C 
ENDROOT
BRANCH   1  15
ATOM     12  N   UNL     1     -12.068  57.734  49.112  0.00  0.00    +0.000 N 
ATOM     13  C   UNL     1     -12.045  56.496  48.461  0.00  0.00    +0.000 C 
ATOM     14  O   UNL     1     -13.079  56.009  47.999  0.00  0.00    +0.000 OA
ATOM     15  N   UNL     1     -10.830  55.831  48.462  0.00  0.00    +0.000 N 
ATOM     16  H   UNL     1     -11.227  58.081  49.489  0.00  0.00    +0.000 HD
ATOM     17  H   UNL     1     -10.021  56.249  48.837  0.00  0.00    +0.000 HD
BRANCH  12  18
ATOM     18  S   UNL     1     -13.461  58.658  49.282  0.00  0.00    +0.000 S 
ATOM     19  O   UNL     1     -14.301  58.495  48.111  0.00  0.00    +0.000 OA
ATOM     20  O   UNL     1     -13.010  59.982  49.665  0.00  0.00    +0.000 OA
BRANCH  18  21
ATOM     21  C   UNL     1     -14.312  57.965  50.692  0.00  0.00    +0.000 A 
ATOM     22  C   UNL     1     -14.074  58.428  51.990  0.00  0.00    +0.000 A 
ATOM     23  C   UNL     1     -15.328  57.025  50.459  0.00  0.00    +0.000 A 
ATOM     24  C   UNL     1     -14.831  57.917  53.059  0.00  0.00    +0.000 A 
ATOM     25  C   UNL     1     -16.075  56.523  51.528  0.00  0.00    +0.000 A 
ATOM     26  C   UNL     1     -15.824  56.962  52.826  0.00  0.00    +0.000 A 
ENDBRANCH  18  21
ENDBRANCH  12  18
ENDBRANCH   1  15
BRANCH   3  27
ATOM     27  C   UNL     1     -10.936  53.125  49.959  0.00  0.00    +0.000 C 
ATOM     28  O   UNL     1     -10.133  52.563  50.694  0.00  0.00    +0.000 OA
BRANCH  27  29
ATOM     29  O   UNL     1     -12.123  53.650  50.364  0.00  0.00    +0.000 OA
BRANCH  29  30
ATOM     30  C   UNL     1     -12.235  54.012  51.740  0.00  0.00    +0.000 C 
ATOM     31  C   UNL     1     -11.824  55.457  51.925  0.00  0.00    +0.000 C 
ENDBRANCH  29  30
ENDBRANCH  27  29
ENDBRANCH   3  27
TORSDOF 6
ENDMDL
