MODEL 1
REMARK VINA RESULT:      -7.6      0.000      0.000
REMARK  Name = 
REMARK  9 active torsions:
REMARK  status: ('A' for Active; 'I' for Inactive)
REMARK    1  A    between atoms: S_1  and  N_4
REMARK    2  A    between atoms: S_1  and  N_5
REMARK    3  A    between atoms: N_12  and  C_14
REMARK    4  A    between atoms: C_16  and  C_19
REMARK    5  A    between atoms: C_19  and  O_23
REMARK    6  A    between atoms: O_23  and  C_26
REMARK    7  A    between atoms: C_24  and  C_27
REMARK    8  A    between atoms: C_24  and  C_28
REMARK    9  A    between atoms: C_26  and  C_29
REMARK                            x       y       z     vdW  Elec       q    Type
REMARK                         _______ _______ _______ _____ _____    ______ ____
ROOT
ATOM      1  C   UNL     1     -10.359  55.225  51.867  0.00  0.00    +0.000 A 
ATOM      2  S   UNL     1      -9.800  54.276  53.164  0.00  0.00    +0.000 S 
ATOM      3  C   UNL     1      -9.407  55.447  50.892  0.00  0.00    +0.000 A 
ATOM      4  C   UNL     1      -8.369  53.892  52.325  0.00  0.00    +0.000 A 
ATOM      5  C   UNL     1      -8.275  54.569  51.122  0.00  0.00    +0.000 A 
ATOM      6  C   UNL     1      -7.349  52.917  52.859  0.00  0.00    +0.000 C 
ATOM      7  C   UNL     1      -7.083  54.408  50.224  0.00  0.00    +0.000 C 
ATOM      8  C   UNL     1      -5.984  53.071  52.117  0.00  0.00    +0.000 C 
ATOM      9  C   UNL     1      -6.234  53.195  50.593  0.00  0.00    +0.000 C 
ATOM     10  C   UNL     1      -5.100  51.833  52.338  0.00  0.00    +0.000 C 
ATOM     11  C   UNL     1      -5.225  54.302  52.654  0.00  0.00    +0.000 C 
ENDROOT
BRANCH   1  15
ATOM     12  N   UNL     1     -13.972  55.351  51.626  0.00  0.00    +0.000 N 
ATOM     13  C   UNL     1     -12.682  54.867  51.472  0.00  0.00    +0.000 C 
ATOM     14  O   UNL     1     -12.546  53.769  50.952  0.00  0.00    +0.000 OA
ATOM     15  N   UNL     1     -11.664  55.635  51.991  0.00  0.00    +0.000 N 
ATOM     16  H   UNL     1     -14.696  54.721  51.409  0.00  0.00    +0.000 HD
ATOM     17  H   UNL     1     -11.873  56.479  52.453  0.00  0.00    +0.000 HD
BRANCH  12  18
ATOM     18  S   UNL     1     -14.442  56.838  52.124  0.00  0.00    +0.000 S 
ATOM     19  O   UNL     1     -15.877  56.830  52.213  0.00  0.00    +0.000 OA
ATOM     20  O   UNL     1     -13.607  57.206  53.248  0.00  0.00    +0.000 OA
BRANCH  18  21
ATOM     21  N   UNL     1     -14.000  57.814  50.811  0.00  0.00    +0.000 NA
ATOM     22  C   UNL     1     -14.444  57.323  49.476  0.00  0.00    +0.000 C 
ATOM     23  C   UNL     1     -14.383  59.241  51.032  0.00  0.00    +0.000 C 
ATOM     24  C   UNL     1     -13.844  58.184  48.371  0.00  0.00    +0.000 C 
ATOM     25  C   UNL     1     -13.815  60.135  49.936  0.00  0.00    +0.000 C 
ATOM     26  C   UNL     1     -14.225  59.648  48.551  0.00  0.00    +0.000 C 
ENDBRANCH  18  21
ENDBRANCH  12  18
ENDBRANCH   1  15
BRANCH   3  27
ATOM     27  C   UNL     1      -9.538  56.432  49.806  0.00  0.00    +0.000 C 
ATOM     28  O   UNL     1      -8.786  57.383  49.625  0.00  0.00    +0.000 OA
BRANCH  27  29
ATOM     29  O   UNL     1     -10.584  56.131  48.987  0.00  0.00    +0.000 OA
BRANCH  29  30
ATOM     30  C   UNL     1     -10.484  54.975  48.155  0.00  0.00    +0.000 C 
ATOM     31  C   UNL     1      -9.574  55.263  46.979  0.00  0.00    +0.000 C 
ENDBRANCH  29  30
ENDBRANCH  27  29
ENDBRANCH   3  27
TORSDOF 6
ENDMDL
MODEL 2
REMARK VINA RESULT:      -7.2      2.708      7.351
REMARK  Name = 
REMARK  9 active torsions:
REMARK  status: ('A' for Active; 'I' for Inactive)
REMARK    1  A    between atoms: S_1  and  N_4
REMARK    2  A    between atoms: S_1  and  N_5
REMARK    3  A    between atoms: N_12  and  C_14
REMARK    4  A    between atoms: C_16  and  C_19
REMARK    5  A    between atoms: C_19  and  O_23
REMARK    6  A    between atoms: O_23  and  C_26
REMARK    7  A    between atoms: C_24  and  C_27
REMARK    8  A    between atoms: C_24  and  C_28
REMARK    9  A    between atoms: C_26  and  C_29
REMARK                            x       y       z     vdW  Elec       q    Type
REMARK                         _______ _______ _______ _____ _____    ______ ____
ROOT
ATOM      1  C   UNL     1     -10.915  55.237  50.546  0.00  0.00    +0.000 A 
ATOM      2  S   UNL     1     -11.505  55.332  52.139  0.00  0.00    +0.000 S 
ATOM      3  C   UNL     1     -11.702  55.897  49.623  0.00  0.00    +0.000 A 
ATOM      4  C   UNL     1     -12.663  56.496  51.690  0.00  0.00    +0.000 A 
ATOM      5  C   UNL     1     -12.668  56.723  50.325  0.00  0.00    +0.000 A 
ATOM      6  C   UNL     1     -13.556  57.185  52.691  0.00  0.00    +0.000 C 
ATOM      7  C   UNL     1     -13.627  57.691  49.696  0.00  0.00    +0.000 C 
ATOM      8  C   UNL     1     -14.770  57.866  51.985  0.00  0.00    +0.000 C 
ATOM      9  C   UNL     1     -14.280  58.614  50.720  0.00  0.00    +0.000 C 
ATOM     10  C   UNL     1     -15.426  58.905  52.909  0.00  0.00    +0.000 C 
ATOM     11  C   UNL     1     -15.834  56.808  51.624  0.00  0.00    +0.000 C 
ENDROOT
BRANCH   1  15
ATOM     12  N   UNL     1      -8.600  52.481  50.136  0.00  0.00    +0.000 N 
ATOM     13  C   UNL     1      -9.811  53.146  50.248  0.00  0.00    +0.000 C 
ATOM     14  O   UNL     1     -10.833  52.489  50.121  0.00  0.00    +0.000 OA
ATOM     15  N   UNL     1      -9.755  54.511  50.417  0.00  0.00    +0.000 N 
ATOM     16  H   UNL     1      -8.651  51.542  49.845  0.00  0.00    +0.000 HD
ATOM     17  H   UNL     1      -8.884  54.968  50.444  0.00  0.00    +0.000 HD
BRANCH  12  18
ATOM     18  S   UNL     1      -7.096  53.059  50.425  0.00  0.00    +0.000 S 
ATOM     19  O   UNL     1      -6.181  51.956  50.322  0.00  0.00    +0.000 OA
ATOM     20  O   UNL     1      -6.934  54.266  49.641  0.00  0.00    +0.000 OA
BRANCH  18  21
ATOM     21  N   UNL     1      -7.193  53.513  52.056  0.00  0.00    +0.000 NA
ATOM     22  C   UNL     1      -6.480  52.617  53.008  0.00  0.00    +0.000 C 
ATOM     23  C   UNL     1      -6.814  54.945  52.252  0.00  0.00    +0.000 C 
ATOM     24  C   UNL     1      -6.781  53.027  54.445  0.00  0.00    +0.000 C 
ATOM     25  C   UNL     1      -7.085  55.390  53.684  0.00  0.00    +0.000 C 
ATOM     26  C   UNL     1      -6.393  54.479  54.692  0.00  0.00    +0.000 C 
ENDBRANCH  18  21
ENDBRANCH  12  18
ENDBRANCH   1  15
BRANCH   3  27
ATOM     27  C   UNL     1     -11.569  55.762  48.164  0.00  0.00    +0.000 C 
ATOM     28  O   UNL     1     -12.506  55.711  47.375  0.00  0.00    +0.000 OA
BRANCH  27  29
ATOM     29  O   UNL     1     -10.261  55.745  47.784  0.00  0.00    +0.000 OA
BRANCH  29  30
ATOM     30  C   UNL     1      -9.868  54.848  46.745  0.00  0.00    +0.000 C 
ATOM     31  C   UNL     1      -8.399  55.036  46.430  0.00  0.00    +0.000 C 
ENDBRANCH  29  30
ENDBRANCH  27  29
ENDBRANCH   3  27
TORSDOF 6
ENDMDL
MODEL 3
REMARK VINA RESULT:      -7.1      3.560      7.780
REMARK  Name = 
REMARK  9 active torsions:
REMARK  status: ('A' for Active; 'I' for Inactive)
REMARK    1  A    between atoms: S_1  and  N_4
REMARK    2  A    between atoms: S_1  and  N_5
REMARK    3  A    between atoms: N_12  and  C_14
REMARK    4  A    between atoms: C_16  and  C_19
REMARK    5  A    between atoms: C_19  and  O_23
REMARK    6  A    between atoms: O_23  and  C_26
REMARK    7  A    between atoms: C_24  and  C_27
REMARK    8  A    between atoms: C_24  and  C_28
REMARK    9  A    between atoms: C_26  and  C_29
REMARK                            x       y       z     vdW  Elec       q    Type
REMARK                         _______ _______ _______ _____ _____    ______ ____
ROOT
ATOM      1  C   UNL     1      -8.788  54.862  50.936  0.00  0.00    +0.000 A 
ATOM      2  S   UNL     1      -8.123  54.858  49.370  0.00  0.00    +0.000 S 
ATOM      3  C   UNL     1     -10.167  54.774  50.953  0.00  0.00    +0.000 A 
ATOM      4  C   UNL     1      -9.625  54.446  48.683  0.00  0.00    +0.000 A 
ATOM      5  C   UNL     1     -10.638  54.422  49.626  0.00  0.00    +0.000 A 
ATOM      6  C   UNL     1      -9.794  54.142  47.215  0.00  0.00    +0.000 C 
ATOM      7  C   UNL     1     -12.056  54.109  49.245  0.00  0.00    +0.000 C 
ATOM      8  C   UNL     1     -11.296  54.210  46.797  0.00  0.00    +0.000 C 
ATOM      9  C   UNL     1     -12.162  53.485  47.857  0.00  0.00    +0.000 C 
ATOM     10  C   UNL     1     -11.522  53.498  45.454  0.00  0.00    +0.000 C 
ATOM     11  C   UNL     1     -11.735  55.680  46.638  0.00  0.00    +0.000 C 
ENDROOT
BRANCH   1  15
ATOM     12  N   UNL     1      -6.286  56.183  53.199  0.00  0.00    +0.000 N 
ATOM     13  C   UNL     1      -7.220  56.160  52.174  0.00  0.00    +0.000 C 
ATOM     14  O   UNL     1      -7.456  57.213  51.598  0.00  0.00    +0.000 OA
ATOM     15  N   UNL     1      -7.859  54.963  51.943  0.00  0.00    +0.000 N 
ATOM     16  H   UNL     1      -5.965  57.073  53.468  0.00  0.00    +0.000 HD
ATOM     17  H   UNL     1      -7.651  54.180  52.500  0.00  0.00    +0.000 HD
BRANCH  12  18
ATOM     18  S   UNL     1      -5.653  54.916  54.019  0.00  0.00    +0.000 S 
ATOM     19  O   UNL     1      -4.391  55.340  54.562  0.00  0.00    +0.000 OA
ATOM     20  O   UNL     1      -6.702  54.368  54.854  0.00  0.00    +0.000 OA
BRANCH  18  21
ATOM     21  N   UNL     1      -5.346  53.802  52.779  0.00  0.00    +0.000 NA
ATOM     22  C   UNL     1      -4.131  54.078  51.963  0.00  0.00    +0.000 C 
ATOM     23  C   UNL     1      -5.367  52.396  53.285  0.00  0.00    +0.000 C 
ATOM     24  C   UNL     1      -4.058  53.115  50.783  0.00  0.00    +0.000 C 
ATOM     25  C   UNL     1      -5.278  51.401  52.133  0.00  0.00    +0.000 C 
ATOM     26  C   UNL     1      -4.061  51.668  51.258  0.00  0.00    +0.000 C 
ENDBRANCH  18  21
ENDBRANCH  12  18
ENDBRANCH   1  15
BRANCH   3  27
ATOM     27  C   UNL     1     -11.003  55.012  52.140  0.00  0.00    +0.000 C 
ATOM     28  O   UNL     1     -11.979  55.754  52.174  0.00  0.00    +0.000 OA
BRANCH  27  29
ATOM     29  O   UNL     1     -10.586  54.266  53.199  0.00  0.00    +0.000 OA
BRANCH  29  30
ATOM     30  C   UNL     1     -10.810  52.856  53.167  0.00  0.00    +0.000 C 
ATOM     31  C   UNL     1      -9.635  52.132  53.790  0.00  0.00    +0.000 C 
ENDBRANCH  29  30
ENDBRANCH  27  29
ENDBRANCH   3  27
TORSDOF 6
ENDMDL
MODEL 4
REMARK VINA RESULT:      -7.0      3.125      7.281
REMARK  Name = 
REMARK  9 active torsions:
REMARK  status: ('A' for Active; 'I' for Inactive)
REMARK    1  A    between atoms: S_1  and  N_4
REMARK    2  A    between atoms: S_1  and  N_5
REMARK    3  A    between atoms: N_12  and  C_14
REMARK    4  A    between atoms: C_16  and  C_19
REMARK    5  A    between atoms: C_19  and  O_23
REMARK    6  A    between atoms: O_23  and  C_26
REMARK    7  A    between atoms: C_24  and  C_27
REMARK    8  A    between atoms: C_24  and  C_28
REMARK    9  A    between atoms: C_26  and  C_29
REMARK                            x       y       z     vdW  Elec       q    Type
REMARK                         _______ _______ _______ _____ _____    ______ ____
ROOT
ATOM      1  C   UNL     1     -11.182  55.222  50.280  0.00  0.00    +0.000 A 
ATOM      2  S   UNL     1     -11.591  55.343  51.927  0.00  0.00    +0.000 S 
ATOM      3  C   UNL     1     -12.066  55.871  49.440  0.00  0.00    +0.000 A 
ATOM      4  C   UNL     1     -12.790  56.504  51.591  0.00  0.00    +0.000 A 
ATOM      5  C   UNL     1     -12.947  56.711  50.231  0.00  0.00    +0.000 A 
ATOM      6  C   UNL     1     -13.565  57.211  52.675  0.00  0.00    +0.000 C 
ATOM      7  C   UNL     1     -13.967  57.673  49.698  0.00  0.00    +0.000 C 
ATOM      8  C   UNL     1     -14.849  57.886  52.097  0.00  0.00    +0.000 C 
ATOM      9  C   UNL     1     -14.502  58.613  50.774  0.00  0.00    +0.000 C 
ATOM     10  C   UNL     1     -15.397  58.941  53.072  0.00  0.00    +0.000 C 
ATOM     11  C   UNL     1     -15.948  56.827  51.873  0.00  0.00    +0.000 C 
ENDROOT
BRANCH   1  15
ATOM     12  N   UNL     1      -7.706  54.243  49.994  0.00  0.00    +0.000 N 
ATOM     13  C   UNL     1      -8.806  55.037  50.277  0.00  0.00    +0.000 C 
ATOM     14  O   UNL     1      -8.601  56.131  50.782  0.00  0.00    +0.000 OA
ATOM     15  N   UNL     1     -10.046  54.490  50.034  0.00  0.00    +0.000 N 
ATOM     16  H   UNL     1      -6.841  54.572  50.329  0.00  0.00    +0.000 HD
ATOM     17  H   UNL     1     -10.118  53.573  49.684  0.00  0.00    +0.000 HD
BRANCH  12  18
ATOM     18  S   UNL     1      -7.664  52.827  49.174  0.00  0.00    +0.000 S 
ATOM     19  O   UNL     1      -6.284  52.447  49.037  0.00  0.00    +0.000 OA
ATOM     20  O   UNL     1      -8.645  51.946  49.773  0.00  0.00    +0.000 OA
BRANCH  18  21
ATOM     21  N   UNL     1      -8.241  53.279  47.646  0.00  0.00    +0.000 NA
ATOM     22  C   UNL     1      -7.530  54.423  47.011  0.00  0.00    +0.000 C 
ATOM     23  C   UNL     1      -8.338  52.106  46.725  0.00  0.00    +0.000 C 
ATOM     24  C   UNL     1      -8.244  54.843  45.730  0.00  0.00    +0.000 C 
ATOM     25  C   UNL     1      -9.032  52.490  45.423  0.00  0.00    +0.000 C 
ATOM     26  C   UNL     1      -8.349  53.677  44.756  0.00  0.00    +0.000 C 
ENDBRANCH  18  21
ENDBRANCH  12  18
ENDBRANCH   1  15
BRANCH   3  27
ATOM     27  C   UNL     1     -12.096  55.713  47.977  0.00  0.00    +0.000 C 
ATOM     28  O   UNL     1     -12.670  56.468  47.200  0.00  0.00    +0.000 OA
BRANCH  27  29
ATOM     29  O   UNL     1     -11.362  54.637  47.579  0.00  0.00    +0.000 OA
BRANCH  29  30
ATOM     30  C   UNL     1     -12.046  53.522  47.007  0.00  0.00    +0.000 C 
ATOM     31  C   UNL     1     -11.989  52.341  47.952  0.00  0.00    +0.000 C 
ENDBRANCH  29  30
ENDBRANCH  27  29
ENDBRANCH   3  27
TORSDOF 6
ENDMDL
MODEL 5
REMARK VINA RESULT:      -7.0      1.934      2.442
REMARK  Name = 
REMARK  9 active torsions:
REMARK  status: ('A' for Active; 'I' for Inactive)
REMARK    1  A    between atoms: S_1  and  N_4
REMARK    2  A    between atoms: S_1  and  N_5
REMARK    3  A    between atoms: N_12  and  C_14
REMARK    4  A    between atoms: C_16  and  C_19
REMARK    5  A    between atoms: C_19  and  O_23
REMARK    6  A    between atoms: O_23  and  C_26
REMARK    7  A    between atoms: C_24  and  C_27
REMARK    8  A    between atoms: C_24  and  C_28
REMARK    9  A    between atoms: C_26  and  C_29
REMARK                            x       y       z     vdW  Elec       q    Type
REMARK                         _______ _______ _______ _____ _____    ______ ____
ROOT
ATOM      1  C   UNL     1     -10.192  55.296  51.278  0.00  0.00    +0.000 A 
ATOM      2  S   UNL     1     -10.489  54.432  52.713  0.00  0.00    +0.000 S 
ATOM      3  C   UNL     1      -8.851  55.419  50.972  0.00  0.00    +0.000 A 
ATOM      4  C   UNL     1      -8.860  53.949  52.814  0.00  0.00    +0.000 A 
ATOM      5  C   UNL     1      -8.084  54.531  51.826  0.00  0.00    +0.000 A 
ATOM      6  C   UNL     1      -8.358  52.990  53.864  0.00  0.00    +0.000 C 
ATOM      7  C   UNL     1      -6.609  54.271  51.735  0.00  0.00    +0.000 C 
ATOM      8  C   UNL     1      -6.803  53.052  53.983  0.00  0.00    +0.000 C 
ATOM      9  C   UNL     1      -6.176  53.067  52.566  0.00  0.00    +0.000 C 
ATOM     10  C   UNL     1      -6.261  51.811  54.711  0.00  0.00    +0.000 C 
ATOM     11  C   UNL     1      -6.382  54.299  54.787  0.00  0.00    +0.000 C 
ENDROOT
BRANCH   1  15
ATOM     12  N   UNL     1     -13.300  55.389  49.418  0.00  0.00    +0.000 N 
ATOM     13  C   UNL     1     -12.183  54.857  50.043  0.00  0.00    +0.000 C 
ATOM     14  O   UNL     1     -12.074  53.640  50.071  0.00  0.00    +0.000 OA
ATOM     15  N   UNL     1     -11.326  55.749  50.648  0.00  0.00    +0.000 N 
ATOM     16  H   UNL     1     -13.987  54.741  49.142  0.00  0.00    +0.000 HD
ATOM     17  H   UNL     1     -11.527  56.712  50.630  0.00  0.00    +0.000 HD
BRANCH  12  18
ATOM     18  S   UNL     1     -13.620  56.959  49.082  0.00  0.00    +0.000 S 
ATOM     19  O   UNL     1     -12.373  57.672  49.120  0.00  0.00    +0.000 OA
ATOM     20  O   UNL     1     -14.486  56.989  47.922  0.00  0.00    +0.000 OA
BRANCH  18  21
ATOM     21  N   UNL     1     -14.540  57.433  50.425  0.00  0.00    +0.000 NA
ATOM     22  C   UNL     1     -14.734  56.385  51.465  0.00  0.00    +0.000 C 
ATOM     23  C   UNL     1     -14.035  58.711  51.013  0.00  0.00    +0.000 C 
ATOM     24  C   UNL     1     -15.712  56.872  52.529  0.00  0.00    +0.000 C 
ATOM     25  C   UNL     1     -14.979  59.223  52.095  0.00  0.00    +0.000 C 
ATOM     26  C   UNL     1     -15.225  58.168  53.166  0.00  0.00    +0.000 C 
ENDBRANCH  18  21
ENDBRANCH  12  18
ENDBRANCH   1  15
BRANCH   3  27
ATOM     27  C   UNL     1      -8.309  56.322  49.945  0.00  0.00    +0.000 C 
ATOM     28  O   UNL     1      -8.096  57.519  50.103  0.00  0.00    +0.000 OA
BRANCH  27  29
ATOM     29  O   UNL     1      -8.025  55.652  48.794  0.00  0.00    +0.000 OA
BRANCH  29  30
ATOM     30  C   UNL     1      -9.050  55.531  47.807  0.00  0.00    +0.000 C 
ATOM     31  C   UNL     1      -8.463  55.007  46.514  0.00  0.00    +0.000 C 
ENDBRANCH  29  30
ENDBRANCH  27  29
ENDBRANCH   3  27
TORSDOF 6
ENDMDL
MODEL 6
REMARK VINA RESULT:      -6.7      2.889      7.652
REMARK  Name = 
REMARK  9 active torsions:
REMARK  status: ('A' for Active; 'I' for Inactive)
REMARK    1  A    between atoms: S_1  and  N_4
REMARK    2  A    between atoms: S_1  and  N_5
REMARK    3  A    between atoms: N_12  and  C_14
REMARK    4  A    between atoms: C_16  and  C_19
REMARK    5  A    between atoms: C_19  and  O_23
REMARK    6  A    between atoms: O_23  and  C_26
REMARK    7  A    between atoms: C_24  and  C_27
REMARK    8  A    between atoms: C_24  and  C_28
REMARK    9  A    between atoms: C_26  and  C_29
REMARK                            x       y       z     vdW  Elec       q    Type
REMARK                         _______ _______ _______ _____ _____    ______ ____
ROOT
ATOM      1  C   UNL     1     -10.438  55.068  50.807  0.00  0.00    +0.000 A 
ATOM      2  S   UNL     1     -11.407  55.283  52.189  0.00  0.00    +0.000 S 
ATOM      3  C   UNL     1     -11.004  55.568  49.650  0.00  0.00    +0.000 A 
ATOM      4  C   UNL     1     -12.473  56.303  51.340  0.00  0.00    +0.000 A 
ATOM      5  C   UNL     1     -12.152  56.386  49.996  0.00  0.00    +0.000 A 
ATOM      6  C   UNL     1     -13.618  57.022  52.008  0.00  0.00    +0.000 C 
ATOM      7  C   UNL     1     -12.971  57.209  49.045  0.00  0.00    +0.000 C 
ATOM      8  C   UNL     1     -14.651  57.533  50.955  0.00  0.00    +0.000 C 
ATOM      9  C   UNL     1     -13.901  58.181  49.765  0.00  0.00    +0.000 C 
ATOM     10  C   UNL     1     -15.564  58.609  51.564  0.00  0.00    +0.000 C 
ATOM     11  C   UNL     1     -15.541  56.366  50.478  0.00  0.00    +0.000 C 
ENDROOT
BRANCH   1  15
ATOM     12  N   UNL     1      -6.906  54.402  51.257  0.00  0.00    +0.000 N 
ATOM     13  C   UNL     1      -8.065  55.123  51.016  0.00  0.00    +0.000 C 
ATOM     14  O   UNL     1      -7.960  56.331  50.862  0.00  0.00    +0.000 OA
ATOM     15  N   UNL     1      -9.250  54.423  51.047  0.00  0.00    +0.000 N 
ATOM     16  H   UNL     1      -6.091  54.934  51.403  0.00  0.00    +0.000 HD
ATOM     17  H   UNL     1      -9.245  53.458  51.243  0.00  0.00    +0.000 HD
BRANCH  12  18
ATOM     18  S   UNL     1      -6.722  52.777  51.330  0.00  0.00    +0.000 S 
ATOM     19  O   UNL     1      -7.581  52.199  50.333  0.00  0.00    +0.000 OA
ATOM     20  O   UNL     1      -5.301  52.500  51.371  0.00  0.00    +0.000 OA
BRANCH  18  21
ATOM     21  N   UNL     1      -7.363  52.411  52.856  0.00  0.00    +0.000 NA
ATOM     22  C   UNL     1      -8.622  51.615  52.841  0.00  0.00    +0.000 C 
ATOM     23  C   UNL     1      -6.334  51.804  53.754  0.00  0.00    +0.000 C 
ATOM     24  C   UNL     1      -9.189  51.499  54.252  0.00  0.00    +0.000 C 
ATOM     25  C   UNL     1      -6.869  51.655  55.173  0.00  0.00    +0.000 C 
ATOM     26  C   UNL     1      -8.174  50.869  55.198  0.00  0.00    +0.000 C 
ENDBRANCH  18  21
ENDBRANCH  12  18
ENDBRANCH   1  15
BRANCH   3  27
ATOM     27  C   UNL     1     -10.508  55.292  48.292  0.00  0.00    +0.000 C 
ATOM     28  O   UNL     1      -9.415  55.640  47.859  0.00  0.00    +0.000 OA
BRANCH  27  29
ATOM     29  O   UNL     1     -11.403  54.555  47.577  0.00  0.00    +0.000 OA
BRANCH  29  30
ATOM     30  C   UNL     1     -11.752  54.996  46.265  0.00  0.00    +0.000 C 
ATOM     31  C   UNL     1     -11.408  53.925  45.252  0.00  0.00    +0.000 C 
ENDBRANCH  29  30
ENDBRANCH  27  29
ENDBRANCH   3  27
TORSDOF 6
ENDMDL
MODEL 7
REMARK VINA RESULT:      -6.6      3.044      7.294
REMARK  Name = 
REMARK  9 active torsions:
REMARK  status: ('A' for Active; 'I' for Inactive)
REMARK    1  A    between atoms: S_1  and  N_4
REMARK    2  A    between atoms: S_1  and  N_5
REMARK    3  A    between atoms: N_12  and  C_14
REMARK    4  A    between atoms: C_16  and  C_19
REMARK    5  A    between atoms: C_19  and  O_23
REMARK    6  A    between atoms: O_23  and  C_26
REMARK    7  A    between atoms: C_24  and  C_27
REMARK    8  A    between atoms: C_24  and  C_28
REMARK    9  A    between atoms: C_26  and  C_29
REMARK                            x       y       z     vdW  Elec       q    Type
REMARK                         _______ _______ _______ _____ _____    ______ ____
ROOT
ATOM      1  C   UNL     1     -10.480  54.945  50.654  0.00  0.00    +0.000 A 
ATOM      2  S   UNL     1     -11.300  55.026  52.142  0.00  0.00    +0.000 S 
ATOM      3  C   UNL     1     -11.129  55.602  49.627  0.00  0.00    +0.000 A 
ATOM      4  C   UNL     1     -12.391  56.181  51.531  0.00  0.00    +0.000 A 
ATOM      5  C   UNL     1     -12.196  56.414  50.180  0.00  0.00    +0.000 A 
ATOM      6  C   UNL     1     -13.430  56.856  52.391  0.00  0.00    +0.000 C 
ATOM      7  C   UNL     1     -13.062  57.376  49.420  0.00  0.00    +0.000 C 
ATOM      8  C   UNL     1     -14.533  57.528  51.515  0.00  0.00    +0.000 C 
ATOM      9  C   UNL     1     -13.869  58.288  50.339  0.00  0.00    +0.000 C 
ATOM     10  C   UNL     1     -15.330  58.556  52.335  0.00  0.00    +0.000 C 
ATOM     11  C   UNL     1     -15.521  56.462  50.997  0.00  0.00    +0.000 C 
ENDROOT
BRANCH   1  15
ATOM     12  N   UNL     1      -7.016  54.033  51.195  0.00  0.00    +0.000 N 
ATOM     13  C   UNL     1      -8.163  54.811  51.196  0.00  0.00    +0.000 C 
ATOM     14  O   UNL     1      -8.094  55.922  51.700  0.00  0.00    +0.000 OA
ATOM     15  N   UNL     1      -9.307  54.231  50.695  0.00  0.00    +0.000 N 
ATOM     16  H   UNL     1      -6.255  54.389  51.707  0.00  0.00    +0.000 HD
ATOM     17  H   UNL     1      -9.284  53.303  50.367  0.00  0.00    +0.000 HD
BRANCH  12  18
ATOM     18  S   UNL     1      -6.768  52.596  50.450  0.00  0.00    +0.000 S 
ATOM     19  O   UNL     1      -5.349  52.371  50.408  0.00  0.00    +0.000 OA
ATOM     20  O   UNL     1      -7.679  51.637  51.038  0.00  0.00    +0.000 OA
BRANCH  18  21
ATOM     21  N   UNL     1      -7.299  52.913  48.872  0.00  0.00    +0.000 NA
ATOM     22  C   UNL     1      -6.248  53.394  47.933  0.00  0.00    +0.000 C 
ATOM     23  C   UNL     1      -8.062  51.759  48.307  0.00  0.00    +0.000 C 
ATOM     24  C   UNL     1      -6.875  53.805  46.605  0.00  0.00    +0.000 C 
ATOM     25  C   UNL     1      -8.692  52.126  46.968  0.00  0.00    +0.000 C 
ATOM     26  C   UNL     1      -7.651  52.649  45.986  0.00  0.00    +0.000 C 
ENDBRANCH  18  21
ENDBRANCH  12  18
ENDBRANCH   1  15
BRANCH   3  27
ATOM     27  C   UNL     1     -10.780  55.475  48.203  0.00  0.00    +0.000 C 
ATOM     28  O   UNL     1      -9.674  55.706  47.727  0.00  0.00    +0.000 OA
BRANCH  27  29
ATOM     29  O   UNL     1     -11.835  55.020  47.472  0.00  0.00    +0.000 OA
BRANCH  29  30
ATOM     30  C   UNL     1     -11.730  55.033  46.048  0.00  0.00    +0.000 C 
ATOM     31  C   UNL     1     -11.683  53.614  45.521  0.00  0.00    +0.000 C 
ENDBRANCH  29  30
ENDBRANCH  27  29
ENDBRANCH   3  27
TORSDOF 6
ENDMDL
MODEL 8
REMARK VINA RESULT:      -6.6      2.989      7.358
REMARK  Name = 
REMARK  9 active torsions:
REMARK  status: ('A' for Active; 'I' for Inactive)
REMARK    1  A    between atoms: S_1  and  N_4
REMARK    2  A    between atoms: S_1  and  N_5
REMARK    3  A    between atoms: N_12  and  C_14
REMARK    4  A    between atoms: C_16  and  C_19
REMARK    5  A    between atoms: C_19  and  O_23
REMARK    6  A    between atoms: O_23  and  C_26
REMARK    7  A    between atoms: C_24  and  C_27
REMARK    8  A    between atoms: C_24  and  C_28
REMARK    9  A    between atoms: C_26  and  C_29
REMARK                            x       y       z     vdW  Elec       q    Type
REMARK                         _______ _______ _______ _____ _____    ______ ____
ROOT
ATOM      1  C   UNL     1     -10.667  54.590  50.824  0.00  0.00    +0.000 A 
ATOM      2  S   UNL     1     -11.499  55.263  52.147  0.00  0.00    +0.000 S 
ATOM      3  C   UNL     1     -11.254  54.863  49.603  0.00  0.00    +0.000 A 
ATOM      4  C   UNL     1     -12.497  56.177  51.114  0.00  0.00    +0.000 A 
ATOM      5  C   UNL     1     -12.268  55.886  49.780  0.00  0.00    +0.000 A 
ATOM      6  C   UNL     1     -13.496  57.183  51.627  0.00  0.00    +0.000 C 
ATOM      7  C   UNL     1     -13.052  56.552  48.688  0.00  0.00    +0.000 C 
ATOM      8  C   UNL     1     -14.537  57.554  50.524  0.00  0.00    +0.000 C 
ATOM      9  C   UNL     1     -13.805  57.785  49.179  0.00  0.00    +0.000 C 
ATOM     10  C   UNL     1     -15.269  58.858  50.880  0.00  0.00    +0.000 C 
ATOM     11  C   UNL     1     -15.591  56.435  50.394  0.00  0.00    +0.000 C 
ENDROOT
BRANCH   1  15
ATOM     12  N   UNL     1      -8.481  51.869  51.793  0.00  0.00    +0.000 N 
ATOM     13  C   UNL     1      -9.650  52.526  51.441  0.00  0.00    +0.000 C 
ATOM     14  O   UNL     1     -10.666  51.855  51.334  0.00  0.00    +0.000 OA
ATOM     15  N   UNL     1      -9.549  53.871  51.168  0.00  0.00    +0.000 N 
ATOM     16  H   UNL     1      -8.530  50.887  51.817  0.00  0.00    +0.000 HD
ATOM     17  H   UNL     1      -8.673  54.318  51.219  0.00  0.00    +0.000 HD
BRANCH  12  18
ATOM     18  S   UNL     1      -7.028  52.522  52.172  0.00  0.00    +0.000 S 
ATOM     19  O   UNL     1      -7.259  53.551  53.150  0.00  0.00    +0.000 OA
ATOM     20  O   UNL     1      -6.108  51.431  52.411  0.00  0.00    +0.000 OA
BRANCH  18  21
ATOM     21  N   UNL     1      -6.579  53.268  50.718  0.00  0.00    +0.000 NA
ATOM     22  C   UNL     1      -5.508  54.296  50.836  0.00  0.00    +0.000 C 
ATOM     23  C   UNL     1      -6.268  52.262  49.657  0.00  0.00    +0.000 C 
ATOM     24  C   UNL     1      -5.314  55.011  49.503  0.00  0.00    +0.000 C 
ATOM     25  C   UNL     1      -6.049  52.941  48.310  0.00  0.00    +0.000 C 
ATOM     26  C   UNL     1      -4.978  54.021  48.395  0.00  0.00    +0.000 C 
ENDBRANCH  18  21
ENDBRANCH  12  18
ENDBRANCH   1  15
BRANCH   3  27
ATOM     27  C   UNL     1     -10.896  54.201  48.339  0.00  0.00    +0.000 C 
ATOM     28  O   UNL     1     -11.700  53.769  47.520  0.00  0.00    +0.000 OA
BRANCH  27  29
ATOM     29  O   UNL     1      -9.546  54.164  48.163  0.00  0.00    +0.000 OA
BRANCH  29  30
ATOM     30  C   UNL     1      -8.899  55.320  47.631  0.00  0.00    +0.000 C 
ATOM     31  C   UNL     1      -8.435  55.048  46.216  0.00  0.00    +0.000 C 
ENDBRANCH  29  30
ENDBRANCH  27  29
ENDBRANCH   3  27
TORSDOF 6
ENDMDL
MODEL 9
REMARK VINA RESULT:      -6.6      2.897      7.554
REMARK  Name = 
REMARK  9 active torsions:
REMARK  status: ('A' for Active; 'I' for Inactive)
REMARK    1  A    between atoms: S_1  and  N_4
REMARK    2  A    between atoms: S_1  and  N_5
REMARK    3  A    between atoms: N_12  and  C_14
REMARK    4  A    between atoms: C_16  and  C_19
REMARK    5  A    between atoms: C_19  and  O_23
REMARK    6  A    between atoms: O_23  and  C_26
REMARK    7  A    between atoms: C_24  and  C_27
REMARK    8  A    between atoms: C_24  and  C_28
REMARK    9  A    between atoms: C_26  and  C_29
REMARK                            x       y       z     vdW  Elec       q    Type
REMARK                         _______ _______ _______ _____ _____    ______ ____
ROOT
ATOM      1  C   UNL     1     -11.343  55.116  50.199  0.00  0.00    +0.000 A 
ATOM      2  S   UNL     1     -11.641  55.351  51.858  0.00  0.00    +0.000 S 
ATOM      3  C   UNL     1     -12.279  55.713  49.378  0.00  0.00    +0.000 A 
ATOM      4  C   UNL     1     -12.856  56.496  51.524  0.00  0.00    +0.000 A 
ATOM      5  C   UNL     1     -13.102  56.610  50.167  0.00  0.00    +0.000 A 
ATOM      6  C   UNL     1     -13.555  57.280  52.606  0.00  0.00    +0.000 C 
ATOM      7  C   UNL     1     -14.153  57.542  49.638  0.00  0.00    +0.000 C 
ATOM      8  C   UNL     1     -14.872  57.923  52.071  0.00  0.00    +0.000 C 
ATOM      9  C   UNL     1     -14.612  58.557  50.681  0.00  0.00    +0.000 C 
ATOM     10  C   UNL     1     -15.351  59.047  53.005  0.00  0.00    +0.000 C 
ATOM     11  C   UNL     1     -15.987  56.860  51.992  0.00  0.00    +0.000 C 
ENDROOT
BRANCH   1  15
ATOM     12  N   UNL     1      -8.029  54.121  49.123  0.00  0.00    +0.000 N 
ATOM     13  C   UNL     1      -9.112  54.949  49.378  0.00  0.00    +0.000 C 
ATOM     14  O   UNL     1      -8.975  56.145  49.161  0.00  0.00    +0.000 OA
ATOM     15  N   UNL     1     -10.227  54.360  49.929  0.00  0.00    +0.000 N 
ATOM     16  H   UNL     1      -7.186  54.575  48.894  0.00  0.00    +0.000 HD
ATOM     17  H   UNL     1     -10.225  53.397  50.131  0.00  0.00    +0.000 HD
BRANCH  12  18
ATOM     18  S   UNL     1      -7.977  52.486  49.156  0.00  0.00    +0.000 S 
ATOM     19  O   UNL     1      -9.070  52.002  48.358  0.00  0.00    +0.000 OA
ATOM     20  O   UNL     1      -6.608  52.088  48.901  0.00  0.00    +0.000 OA
BRANCH  18  21
ATOM     21  N   UNL     1      -8.319  52.147  50.781  0.00  0.00    +0.000 NA
ATOM     22  C   UNL     1      -8.599  50.716  51.086  0.00  0.00    +0.000 C 
ATOM     23  C   UNL     1      -7.280  52.716  51.692  0.00  0.00    +0.000 C 
ATOM     24  C   UNL     1      -9.058  50.566  52.532  0.00  0.00    +0.000 C 
ATOM     25  C   UNL     1      -7.695  52.569  53.151  0.00  0.00    +0.000 C 
ATOM     26  C   UNL     1      -8.018  51.120  53.497  0.00  0.00    +0.000 C 
ENDBRANCH  18  21
ENDBRANCH  12  18
ENDBRANCH   1  15
BRANCH   3  27
ATOM     27  C   UNL     1     -12.407  55.456  47.935  0.00  0.00    +0.000 C 
ATOM     28  O   UNL     1     -12.617  56.314  47.084  0.00  0.00    +0.000 OA
BRANCH  27  29
ATOM     29  O   UNL     1     -12.216  54.139  47.646  0.00  0.00    +0.000 OA
BRANCH  29  30
ATOM     30  C   UNL     1     -11.527  53.801  46.442  0.00  0.00    +0.000 C 
ATOM     31  C   UNL     1     -11.950  52.424  45.974  0.00  0.00    +0.000 C 
ENDBRANCH  29  30
ENDBRANCH  27  29
ENDBRANCH   3  27
TORSDOF 6
ENDMDL
