MODEL 1
REMARK VINA RESULT:      -7.7      0.000      0.000
REMARK  Name = 
REMARK  9 active torsions:
REMARK  status: ('A' for Active; 'I' for Inactive)
REMARK    1  A    between atoms: S_1  and  N_4
REMARK    2  A    between atoms: S_1  and  N_5
REMARK    3  A    between atoms: N_12  and  C_14
REMARK    4  A    between atoms: C_16  and  C_19
REMARK    5  A    between atoms: C_19  and  O_23
REMARK    6  A    between atoms: O_23  and  C_26
REMARK    7  A    between atoms: C_24  and  C_27
REMARK    8  A    between atoms: C_24  and  C_28
REMARK    9  A    between atoms: C_26  and  C_29
REMARK                            x       y       z     vdW  Elec       q    Type
REMARK                         _______ _______ _______ _____ _____    ______ ____
ROOT
ATOM      1  C   UNL     1     -11.147  53.437  47.975  0.00  0.00    +0.000 A 
ATOM      2  S   UNL     1     -11.836  52.720  46.590  0.00  0.00    +0.000 S 
ATOM      3  C   UNL     1      -9.820  53.795  47.790  0.00  0.00    +0.000 A 
ATOM      4  C   UNL     1     -10.457  53.088  45.643  0.00  0.00    +0.000 A 
ATOM      5  C   UNL     1      -9.455  53.676  46.395  0.00  0.00    +0.000 A 
ATOM      6  C   UNL     1     -10.363  52.797  44.160  0.00  0.00    +0.000 C 
ATOM      7  C   UNL     1      -8.130  54.058  45.792  0.00  0.00    +0.000 C 
ATOM      8  C   UNL     1      -8.873  52.795  43.682  0.00  0.00    +0.000 C 
ATOM      9  C   UNL     1      -8.147  54.032  44.265  0.00  0.00    +0.000 C 
ATOM     10  C   UNL     1      -8.776  52.886  42.145  0.00  0.00    +0.000 C 
ATOM     11  C   UNL     1      -8.175  51.490  44.118  0.00  0.00    +0.000 C 
ENDROOT
BRANCH   1  15
ATOM     12  N   UNL     1     -13.715  54.977  50.038  0.00  0.00    +0.000 N 
ATOM     13  C   UNL     1     -12.753  54.820  49.023  0.00  0.00    +0.000 C 
ATOM     14  O   UNL     1     -12.654  55.637  48.115  0.00  0.00    +0.000 OA
ATOM     15  N   UNL     1     -12.006  53.656  49.054  0.00  0.00    +0.000 N 
ATOM     16  H   UNL     1     -13.816  54.269  50.714  0.00  0.00    +0.000 HD
ATOM     17  H   UNL     1     -12.077  53.014  49.796  0.00  0.00    +0.000 HD
BRANCH  12  18
ATOM     18  S   UNL     1     -14.692  56.333  50.127  0.00  0.00    +0.000 S 
ATOM     19  O   UNL     1     -14.743  56.893  48.792  0.00  0.00    +0.000 OA
ATOM     20  O   UNL     1     -15.896  56.101  50.875  0.00  0.00    +0.000 OA
BRANCH  18  21
ATOM     21  N   UNL     1     -13.716  57.386  51.046  0.00  0.00    +0.000 NA
ATOM     22  C   UNL     1     -13.830  57.287  52.534  0.00  0.00    +0.000 C 
ATOM     23  C   UNL     1     -13.859  58.843  50.663  0.00  0.00    +0.000 C 
ATOM     24  C   UNL     1     -15.123  57.921  53.052  0.00  0.00    +0.000 C 
ATOM     25  C   UNL     1     -15.128  59.479  51.267  0.00  0.00    +0.000 C 
ATOM     26  O   UNL     1     -15.176  59.311  52.693  0.00  0.00    +0.000 OA
ENDBRANCH  18  21
ENDBRANCH  12  18
ENDBRANCH   1  15
BRANCH   3  27
ATOM     27  C   UNL     1      -8.965  54.258  48.886  0.00  0.00    +0.000 C 
ATOM     28  O   UNL     1      -7.990  53.637  49.288  0.00  0.00    +0.000 OA
BRANCH  27  29
ATOM     29  O   UNL     1      -9.387  55.448  49.395  0.00  0.00    +0.000 OA
BRANCH  29  30
ATOM     30  C   UNL     1      -9.050  55.734  50.753  0.00  0.00    +0.000 C 
ATOM     31  C   UNL     1     -10.195  55.331  51.660  0.00  0.00    +0.000 C 
ENDBRANCH  29  30
ENDBRANCH  27  29
ENDBRANCH   3  27
TORSDOF 6
ENDMDL
MODEL 2
REMARK VINA RESULT:      -7.5      3.543      8.433
REMARK  Name = 
REMARK  9 active torsions:
REMARK  status: ('A' for Active; 'I' for Inactive)
REMARK    1  A    between atoms: S_1  and  N_4
REMARK    2  A    between atoms: S_1  and  N_5
REMARK    3  A    between atoms: N_12  and  C_14
REMARK    4  A    between atoms: C_16  and  C_19
REMARK    5  A    between atoms: C_19  and  O_23
REMARK    6  A    between atoms: O_23  and  C_26
REMARK    7  A    between atoms: C_24  and  C_27
REMARK    8  A    between atoms: C_24  and  C_28
REMARK    9  A    between atoms: C_26  and  C_29
REMARK                            x       y       z     vdW  Elec       q    Type
REMARK                         _______ _______ _______ _____ _____    ______ ____
ROOT
ATOM      1  C   UNL     1     -11.105  54.991  50.314  0.00  0.00    +0.000 A 
ATOM      2  S   UNL     1     -11.724  55.125  51.897  0.00  0.00    +0.000 S 
ATOM      3  C   UNL     1     -11.787  55.783  49.403  0.00  0.00    +0.000 A 
ATOM      4  C   UNL     1     -12.755  56.417  51.445  0.00  0.00    +0.000 A 
ATOM      5  C   UNL     1     -12.685  56.685  50.089  0.00  0.00    +0.000 A 
ATOM      6  C   UNL     1     -13.633  57.166  52.427  0.00  0.00    +0.000 C 
ATOM      7  C   UNL     1     -13.527  57.754  49.447  0.00  0.00    +0.000 C 
ATOM      8  C   UNL     1     -14.775  57.935  51.685  0.00  0.00    +0.000 C 
ATOM      9  C   UNL     1     -14.180  58.684  50.468  0.00  0.00    +0.000 C 
ATOM     10  C   UNL     1     -15.428  58.991  52.601  0.00  0.00    +0.000 C 
ATOM     11  C   UNL     1     -15.879  56.952  51.243  0.00  0.00    +0.000 C 
ENDROOT
BRANCH   1  15
ATOM     12  N   UNL     1      -7.632  53.934  50.503  0.00  0.00    +0.000 N 
ATOM     13  C   UNL     1      -8.761  54.772  50.533  0.00  0.00    +0.000 C 
ATOM     14  O   UNL     1      -8.685  55.921  50.954  0.00  0.00    +0.000 OA
ATOM     15  N   UNL     1      -9.964  54.201  50.159  0.00  0.00    +0.000 N 
ATOM     16  H   UNL     1      -7.739  52.996  50.225  0.00  0.00    +0.000 HD
ATOM     17  H   UNL     1     -10.015  53.285  49.803  0.00  0.00    +0.000 HD
BRANCH  12  18
ATOM     18  S   UNL     1      -6.110  54.487  50.930  0.00  0.00    +0.000 S 
ATOM     19  O   UNL     1      -5.652  55.321  49.837  0.00  0.00    +0.000 OA
ATOM     20  O   UNL     1      -6.051  54.954  52.287  0.00  0.00    +0.000 OA
BRANCH  18  21
ATOM     21  N   UNL     1      -5.198  53.050  50.845  0.00  0.00    +0.000 NA
ATOM     22  C   UNL     1      -5.865  51.797  51.316  0.00  0.00    +0.000 C 
ATOM     23  C   UNL     1      -3.847  53.141  51.520  0.00  0.00    +0.000 C 
ATOM     24  C   UNL     1      -5.950  51.734  52.843  0.00  0.00    +0.000 C 
ATOM     25  C   UNL     1      -3.954  52.992  53.052  0.00  0.00    +0.000 C 
ATOM     26  O   UNL     1      -4.635  51.782  53.419  0.00  0.00    +0.000 OA
ENDBRANCH  18  21
ENDBRANCH  12  18
ENDBRANCH   1  15
BRANCH   3  27
ATOM     27  C   UNL     1     -11.560  55.700  47.957  0.00  0.00    +0.000 C 
ATOM     28  O   UNL     1     -12.459  55.540  47.142  0.00  0.00    +0.000 OA
BRANCH  27  29
ATOM     29  O   UNL     1     -10.242  55.820  47.640  0.00  0.00    +0.000 OA
BRANCH  29  30
ATOM     30  C   UNL     1      -9.731  54.950  46.628  0.00  0.00    +0.000 C 
ATOM     31  C   UNL     1      -8.218  54.931  46.686  0.00  0.00    +0.000 C 
ENDBRANCH  29  30
ENDBRANCH  27  29
ENDBRANCH   3  27
TORSDOF 6
ENDMDL
MODEL 3
REMARK VINA RESULT:      -7.4      3.375      8.094
REMARK  Name = 
REMARK  9 active torsions:
REMARK  status: ('A' for Active; 'I' for Inactive)
REMARK    1  A    between atoms: S_1  and  N_4
REMARK    2  A    between atoms: S_1  and  N_5
REMARK    3  A    between atoms: N_12  and  C_14
REMARK    4  A    between atoms: C_16  and  C_19
REMARK    5  A    between atoms: C_19  and  O_23
REMARK    6  A    between atoms: O_23  and  C_26
REMARK    7  A    between atoms: C_24  and  C_27
REMARK    8  A    between atoms: C_24  and  C_28
REMARK    9  A    between atoms: C_26  and  C_29
REMARK                            x       y       z     vdW  Elec       q    Type
REMARK                         _______ _______ _______ _____ _____    ______ ____
ROOT
ATOM      1  C   UNL     1     -11.215  54.763  50.273  0.00  0.00    +0.000 A 
ATOM      2  S   UNL     1     -11.900  54.838  51.832  0.00  0.00    +0.000 S 
ATOM      3  C   UNL     1     -11.776  55.679  49.396  0.00  0.00    +0.000 A 
ATOM      4  C   UNL     1     -12.787  56.249  51.437  0.00  0.00    +0.000 A 
ATOM      5  C   UNL     1     -12.624  56.608  50.111  0.00  0.00    +0.000 A 
ATOM      6  C   UNL     1     -13.643  57.002  52.435  0.00  0.00    +0.000 C 
ATOM      7  C   UNL     1     -13.333  57.795  49.518  0.00  0.00    +0.000 C 
ATOM      8  C   UNL     1     -14.673  57.926  51.706  0.00  0.00    +0.000 C 
ATOM      9  C   UNL     1     -13.952  58.705  50.578  0.00  0.00    +0.000 C 
ATOM     10  C   UNL     1     -15.274  58.969  52.671  0.00  0.00    +0.000 C 
ATOM     11  C   UNL     1     -15.836  57.086  51.140  0.00  0.00    +0.000 C 
ENDROOT
BRANCH   1  15
ATOM     12  N   UNL     1      -7.868  53.369  50.546  0.00  0.00    +0.000 N 
ATOM     13  C   UNL     1      -8.918  54.305  50.591  0.00  0.00    +0.000 C 
ATOM     14  O   UNL     1      -8.764  55.402  51.116  0.00  0.00    +0.000 OA
ATOM     15  N   UNL     1     -10.143  53.884  50.107  0.00  0.00    +0.000 N 
ATOM     16  H   UNL     1      -8.043  52.472  50.180  0.00  0.00    +0.000 HD
ATOM     17  H   UNL     1     -10.255  53.010  49.669  0.00  0.00    +0.000 HD
BRANCH  12  18
ATOM     18  S   UNL     1      -6.331  53.737  51.098  0.00  0.00    +0.000 S 
ATOM     19  O   UNL     1      -5.418  52.858  50.395  0.00  0.00    +0.000 OA
ATOM     20  O   UNL     1      -6.090  55.152  51.161  0.00  0.00    +0.000 OA
BRANCH  18  21
ATOM     21  N   UNL     1      -6.406  53.160  52.699  0.00  0.00    +0.000 NA
ATOM     22  C   UNL     1      -7.133  54.011  53.691  0.00  0.00    +0.000 C 
ATOM     23  C   UNL     1      -5.056  52.809  53.287  0.00  0.00    +0.000 C 
ATOM     24  C   UNL     1      -6.316  55.240  54.098  0.00  0.00    +0.000 C 
ATOM     25  C   UNL     1      -4.290  54.060  53.765  0.00  0.00    +0.000 C 
ATOM     26  O   UNL     1      -5.069  54.837  54.687  0.00  0.00    +0.000 OA
ENDBRANCH  18  21
ENDBRANCH  12  18
ENDBRANCH   1  15
BRANCH   3  27
ATOM     27  C   UNL     1     -11.484  55.682  47.960  0.00  0.00    +0.000 C 
ATOM     28  O   UNL     1     -12.351  55.659  47.096  0.00  0.00    +0.000 OA
BRANCH  27  29
ATOM     29  O   UNL     1     -10.146  55.711  47.711  0.00  0.00    +0.000 OA
BRANCH  29  30
ATOM     30  C   UNL     1      -9.665  54.912  46.629  0.00  0.00    +0.000 C 
ATOM     31  C   UNL     1      -8.151  54.882  46.650  0.00  0.00    +0.000 C 
ENDBRANCH  29  30
ENDBRANCH  27  29
ENDBRANCH   3  27
TORSDOF 6
ENDMDL
MODEL 4
REMARK VINA RESULT:      -7.2      3.105      8.457
REMARK  Name = 
REMARK  9 active torsions:
REMARK  status: ('A' for Active; 'I' for Inactive)
REMARK    1  A    between atoms: S_1  and  N_4
REMARK    2  A    between atoms: S_1  and  N_5
REMARK    3  A    between atoms: N_12  and  C_14
REMARK    4  A    between atoms: C_16  and  C_19
REMARK    5  A    between atoms: C_19  and  O_23
REMARK    6  A    between atoms: O_23  and  C_26
REMARK    7  A    between atoms: C_24  and  C_27
REMARK    8  A    between atoms: C_24  and  C_28
REMARK    9  A    between atoms: C_26  and  C_29
REMARK                            x       y       z     vdW  Elec       q    Type
REMARK                         _______ _______ _______ _____ _____    ______ ____
ROOT
ATOM      1  C   UNL     1     -11.100  54.942  50.233  0.00  0.00    +0.000 A 
ATOM      2  S   UNL     1     -11.646  55.005  51.847  0.00  0.00    +0.000 S 
ATOM      3  C   UNL     1     -11.819  55.777  49.391  0.00  0.00    +0.000 A 
ATOM      4  C   UNL     1     -12.690  56.319  51.503  0.00  0.00    +0.000 A 
ATOM      5  C   UNL     1     -12.680  56.649  50.159  0.00  0.00    +0.000 A 
ATOM      6  C   UNL     1     -13.517  57.024  52.558  0.00  0.00    +0.000 C 
ATOM      7  C   UNL     1     -13.545  57.749  49.607  0.00  0.00    +0.000 C 
ATOM      8  C   UNL     1     -14.688  57.830  51.906  0.00  0.00    +0.000 C 
ATOM      9  C   UNL     1     -14.146  58.633  50.698  0.00  0.00    +0.000 C 
ATOM     10  C   UNL     1     -15.293  58.845  52.898  0.00  0.00    +0.000 C 
ATOM     11  C   UNL     1     -15.816  56.873  51.470  0.00  0.00    +0.000 C 
ENDROOT
BRANCH   1  15
ATOM     12  N   UNL     1      -7.616  53.906  50.137  0.00  0.00    +0.000 N 
ATOM     13  C   UNL     1      -8.745  54.738  50.254  0.00  0.00    +0.000 C 
ATOM     14  O   UNL     1      -8.641  55.891  50.656  0.00  0.00    +0.000 OA
ATOM     15  N   UNL     1      -9.972  54.157  49.990  0.00  0.00    +0.000 N 
ATOM     16  H   UNL     1      -7.741  52.964  49.878  0.00  0.00    +0.000 HD
ATOM     17  H   UNL     1     -10.047  53.237  49.648  0.00  0.00    +0.000 HD
BRANCH  12  18
ATOM     18  S   UNL     1      -6.068  54.471  50.428  0.00  0.00    +0.000 S 
ATOM     19  O   UNL     1      -5.854  55.577  49.516  0.00  0.00    +0.000 OA
ATOM     20  O   UNL     1      -5.781  54.606  51.829  0.00  0.00    +0.000 OA
BRANCH  18  21
ATOM     21  N   UNL     1      -5.125  53.181  49.837  0.00  0.00    +0.000 NA
ATOM     22  C   UNL     1      -4.378  53.418  48.563  0.00  0.00    +0.000 C 
ATOM     23  C   UNL     1      -5.887  51.881  49.695  0.00  0.00    +0.000 C 
ATOM     24  C   UNL     1      -5.303  53.393  47.344  0.00  0.00    +0.000 C 
ATOM     25  C   UNL     1      -6.747  51.851  48.414  0.00  0.00    +0.000 C 
ATOM     26  O   UNL     1      -5.961  52.120  47.243  0.00  0.00    +0.000 OA
ENDBRANCH  18  21
ENDBRANCH  12  18
ENDBRANCH   1  15
BRANCH   3  27
ATOM     27  C   UNL     1     -11.659  55.760  47.935  0.00  0.00    +0.000 C 
ATOM     28  O   UNL     1     -12.601  55.737  47.154  0.00  0.00    +0.000 OA
BRANCH  27  29
ATOM     29  O   UNL     1     -10.349  55.772  47.565  0.00  0.00    +0.000 OA
BRANCH  29  30
ATOM     30  C   UNL     1      -9.960  54.892  46.509  0.00  0.00    +0.000 C 
ATOM     31  C   UNL     1      -8.474  55.030  46.250  0.00  0.00    +0.000 C 
ENDBRANCH  29  30
ENDBRANCH  27  29
ENDBRANCH   3  27
TORSDOF 6
ENDMDL
MODEL 5
REMARK VINA RESULT:      -7.2      3.082      5.610
REMARK  Name = 
REMARK  9 active torsions:
REMARK  status: ('A' for Active; 'I' for Inactive)
REMARK    1  A    between atoms: S_1  and  N_4
REMARK    2  A    between atoms: S_1  and  N_5
REMARK    3  A    between atoms: N_12  and  C_14
REMARK    4  A    between atoms: C_16  and  C_19
REMARK    5  A    between atoms: C_19  and  O_23
REMARK    6  A    between atoms: O_23  and  C_26
REMARK    7  A    between atoms: C_24  and  C_27
REMARK    8  A    between atoms: C_24  and  C_28
REMARK    9  A    between atoms: C_26  and  C_29
REMARK                            x       y       z     vdW  Elec       q    Type
REMARK                         _______ _______ _______ _____ _____    ______ ____
ROOT
ATOM      1  C   UNL     1     -10.785  53.742  51.943  0.00  0.00    +0.000 A 
ATOM      2  S   UNL     1     -10.592  52.816  53.362  0.00  0.00    +0.000 S 
ATOM      3  C   UNL     1      -9.578  54.180  51.421  0.00  0.00    +0.000 A 
ATOM      4  C   UNL     1      -8.890  52.781  53.175  0.00  0.00    +0.000 A 
ATOM      5  C   UNL     1      -8.472  53.533  52.092  0.00  0.00    +0.000 A 
ATOM      6  C   UNL     1      -7.966  52.011  54.097  0.00  0.00    +0.000 C 
ATOM      7  C   UNL     1      -7.016  53.684  51.745  0.00  0.00    +0.000 C 
ATOM      8  C   UNL     1      -6.496  52.532  53.982  0.00  0.00    +0.000 C 
ATOM      9  C   UNL     1      -6.125  52.689  52.486  0.00  0.00    +0.000 C 
ATOM     10  C   UNL     1      -5.496  51.535  54.601  0.00  0.00    +0.000 C 
ATOM     11  C   UNL     1      -6.345  53.872  54.730  0.00  0.00    +0.000 C 
ENDROOT
BRANCH   1  15
ATOM     12  N   UNL     1     -14.003  55.210  51.102  0.00  0.00    +0.000 N 
ATOM     13  C   UNL     1     -12.747  55.041  51.712  0.00  0.00    +0.000 C 
ATOM     14  O   UNL     1     -12.237  55.942  52.369  0.00  0.00    +0.000 OA
ATOM     15  N   UNL     1     -12.086  53.855  51.448  0.00  0.00    +0.000 N 
ATOM     16  H   UNL     1     -14.355  54.495  50.525  0.00  0.00    +0.000 HD
ATOM     17  H   UNL     1     -12.509  53.129  50.937  0.00  0.00    +0.000 HD
BRANCH  12  18
ATOM     18  S   UNL     1     -14.917  56.595  51.330  0.00  0.00    +0.000 S 
ATOM     19  O   UNL     1     -15.839  56.669  50.214  0.00  0.00    +0.000 OA
ATOM     20  O   UNL     1     -15.383  56.734  52.681  0.00  0.00    +0.000 OA
BRANCH  18  21
ATOM     21  N   UNL     1     -13.752  57.809  51.064  0.00  0.00    +0.000 NA
ATOM     22  C   UNL     1     -14.127  59.203  51.457  0.00  0.00    +0.000 C 
ATOM     23  C   UNL     1     -13.223  57.851  49.648  0.00  0.00    +0.000 C 
ATOM     24  C   UNL     1     -15.110  59.831  50.466  0.00  0.00    +0.000 C 
ATOM     25  C   UNL     1     -14.196  58.563  48.686  0.00  0.00    +0.000 C 
ATOM     26  O   UNL     1     -14.531  59.879  49.152  0.00  0.00    +0.000 OA
ENDBRANCH  18  21
ENDBRANCH  12  18
ENDBRANCH   1  15
BRANCH   3  27
ATOM     27  C   UNL     1      -9.495  55.139  50.316  0.00  0.00    +0.000 C 
ATOM     28  O   UNL     1      -9.059  56.276  50.441  0.00  0.00    +0.000 OA
BRANCH  27  29
ATOM     29  O   UNL     1      -9.960  54.615  49.149  0.00  0.00    +0.000 OA
BRANCH  29  30
ATOM     30  C   UNL     1     -10.761  55.463  48.324  0.00  0.00    +0.000 C 
ATOM     31  C   UNL     1     -10.545  55.112  46.867  0.00  0.00    +0.000 C 
ENDBRANCH  29  30
ENDBRANCH  27  29
ENDBRANCH   3  27
TORSDOF 6
ENDMDL
MODEL 6
REMARK VINA RESULT:      -6.9      3.065      8.284
REMARK  Name = 
REMARK  9 active torsions:
REMARK  status: ('A' for Active; 'I' for Inactive)
REMARK    1  A    between atoms: S_1  and  N_4
REMARK    2  A    between atoms: S_1  and  N_5
REMARK    3  A    between atoms: N_12  and  C_14
REMARK    4  A    between atoms: C_16  and  C_19
REMARK    5  A    between atoms: C_19  and  O_23
REMARK    6  A    between atoms: O_23  and  C_26
REMARK    7  A    between atoms: C_24  and  C_27
REMARK    8  A    between atoms: C_24  and  C_28
REMARK    9  A    between atoms: C_26  and  C_29
REMARK                            x       y       z     vdW  Elec       q    Type
REMARK                         _______ _______ _______ _____ _____    ______ ____
ROOT
ATOM      1  C   UNL     1     -10.924  55.797  48.153  0.00  0.00    +0.000 A 
ATOM      2  S   UNL     1     -12.489  56.089  47.542  0.00  0.00    +0.000 S 
ATOM      3  C   UNL     1     -10.839  55.989  49.524  0.00  0.00    +0.000 A 
ATOM      4  C   UNL     1     -13.138  56.243  49.120  0.00  0.00    +0.000 A 
ATOM      5  C   UNL     1     -12.158  56.155  50.093  0.00  0.00    +0.000 A 
ATOM      6  C   UNL     1     -14.612  56.452  49.398  0.00  0.00    +0.000 C 
ATOM      7  C   UNL     1     -12.479  56.297  51.557  0.00  0.00    +0.000 C 
ATOM      8  C   UNL     1     -14.837  57.019  50.838  0.00  0.00    +0.000 C 
ATOM      9  C   UNL     1     -13.977  56.216  51.844  0.00  0.00    +0.000 C 
ATOM     10  C   UNL     1     -16.309  56.876  51.275  0.00  0.00    +0.000 C 
ATOM     11  C   UNL     1     -14.479  58.519  50.882  0.00  0.00    +0.000 C 
ENDROOT
BRANCH   1  15
ATOM     12  N   UNL     1      -9.000  53.468  46.129  0.00  0.00    +0.000 N 
ATOM     13  C   UNL     1      -9.852  53.949  47.140  0.00  0.00    +0.000 C 
ATOM     14  O   UNL     1     -10.510  53.179  47.832  0.00  0.00    +0.000 OA
ATOM     15  N   UNL     1      -9.980  55.322  47.241  0.00  0.00    +0.000 N 
ATOM     16  H   UNL     1      -8.539  54.113  45.546  0.00  0.00    +0.000 HD
ATOM     17  H   UNL     1      -9.434  55.934  46.697  0.00  0.00    +0.000 HD
BRANCH  12  18
ATOM     18  S   UNL     1      -8.750  51.830  45.889  0.00  0.00    +0.000 S 
ATOM     19  O   UNL     1      -7.710  51.431  46.816  0.00  0.00    +0.000 OA
ATOM     20  O   UNL     1      -9.978  51.090  45.797  0.00  0.00    +0.000 OA
BRANCH  18  21
ATOM     21  N   UNL     1      -8.035  51.826  44.343  0.00  0.00    +0.000 NA
ATOM     22  C   UNL     1      -8.560  52.816  43.353  0.00  0.00    +0.000 C 
ATOM     23  C   UNL     1      -8.020  50.466  43.679  0.00  0.00    +0.000 C 
ATOM     24  C   UNL     1      -9.926  52.402  42.799  0.00  0.00    +0.000 C 
ATOM     25  C   UNL     1      -9.385  50.110  43.057  0.00  0.00    +0.000 C 
ATOM     26  O   UNL     1      -9.832  51.125  42.145  0.00  0.00    +0.000 OA
ENDBRANCH  18  21
ENDBRANCH  12  18
ENDBRANCH   1  15
BRANCH   3  27
ATOM     27  C   UNL     1      -9.565  55.978  50.247  0.00  0.00    +0.000 C 
ATOM     28  O   UNL     1      -8.616  56.693  49.952  0.00  0.00    +0.000 OA
BRANCH  27  29
ATOM     29  O   UNL     1      -9.568  55.083  51.273  0.00  0.00    +0.000 OA
BRANCH  29  30
ATOM     30  C   UNL     1      -8.988  53.802  51.024  0.00  0.00    +0.000 C 
ATOM     31  C   UNL     1      -7.641  53.708  51.711  0.00  0.00    +0.000 C 
ENDBRANCH  29  30
ENDBRANCH  27  29
ENDBRANCH   3  27
TORSDOF 6
ENDMDL
MODEL 7
REMARK VINA RESULT:      -6.7      3.287      5.859
REMARK  Name = 
REMARK  9 active torsions:
REMARK  status: ('A' for Active; 'I' for Inactive)
REMARK    1  A    between atoms: S_1  and  N_4
REMARK    2  A    between atoms: S_1  and  N_5
REMARK    3  A    between atoms: N_12  and  C_14
REMARK    4  A    between atoms: C_16  and  C_19
REMARK    5  A    between atoms: C_19  and  O_23
REMARK    6  A    between atoms: O_23  and  C_26
REMARK    7  A    between atoms: C_24  and  C_27
REMARK    8  A    between atoms: C_24  and  C_28
REMARK    9  A    between atoms: C_26  and  C_29
REMARK                            x       y       z     vdW  Elec       q    Type
REMARK                         _______ _______ _______ _____ _____    ______ ____
ROOT
ATOM      1  C   UNL     1      -9.360  54.678  47.523  0.00  0.00    +0.000 A 
ATOM      2  S   UNL     1      -8.043  53.918  46.752  0.00  0.00    +0.000 S 
ATOM      3  C   UNL     1     -10.570  54.417  46.899  0.00  0.00    +0.000 A 
ATOM      4  C   UNL     1      -9.085  53.036  45.716  0.00  0.00    +0.000 A 
ATOM      5  C   UNL     1     -10.412  53.380  45.903  0.00  0.00    +0.000 A 
ATOM      6  C   UNL     1      -8.594  52.007  44.720  0.00  0.00    +0.000 C 
ATOM      7  C   UNL     1     -11.514  52.766  45.082  0.00  0.00    +0.000 C 
ATOM      8  C   UNL     1      -9.673  51.729  43.622  0.00  0.00    +0.000 C 
ATOM      9  C   UNL     1     -11.053  51.539  44.298  0.00  0.00    +0.000 C 
ATOM     10  C   UNL     1      -9.361  50.435  42.842  0.00  0.00    +0.000 C 
ATOM     11  C   UNL     1      -9.711  52.889  42.606  0.00  0.00    +0.000 C 
ENDROOT
BRANCH   1  15
ATOM     12  N   UNL     1      -8.583  55.272  51.025  0.00  0.00    +0.000 N 
ATOM     13  C   UNL     1      -9.001  54.605  49.859  0.00  0.00    +0.000 C 
ATOM     14  O   UNL     1      -9.200  53.395  49.860  0.00  0.00    +0.000 OA
ATOM     15  N   UNL     1      -9.075  55.364  48.706  0.00  0.00    +0.000 N 
ATOM     16  H   UNL     1      -8.365  56.230  50.976  0.00  0.00    +0.000 HD
ATOM     17  H   UNL     1      -8.934  56.338  48.716  0.00  0.00    +0.000 HD
BRANCH  12  18
ATOM     18  S   UNL     1      -8.445  54.481  52.494  0.00  0.00    +0.000 S 
ATOM     19  O   UNL     1      -9.417  55.087  53.382  0.00  0.00    +0.000 OA
ATOM     20  O   UNL     1      -8.369  53.054  52.350  0.00  0.00    +0.000 OA
BRANCH  18  21
ATOM     21  N   UNL     1      -6.918  55.023  53.022  0.00  0.00    +0.000 NA
ATOM     22  C   UNL     1      -5.725  54.508  52.281  0.00  0.00    +0.000 C 
ATOM     23  C   UNL     1      -6.673  54.817  54.501  0.00  0.00    +0.000 C 
ATOM     24  C   UNL     1      -5.412  53.054  52.642  0.00  0.00    +0.000 C 
ATOM     25  C   UNL     1      -6.278  53.362  54.825  0.00  0.00    +0.000 C 
ATOM     26  O   UNL     1      -5.147  52.935  54.050  0.00  0.00    +0.000 OA
ENDBRANCH  18  21
ENDBRANCH  12  18
ENDBRANCH   1  15
BRANCH   3  27
ATOM     27  C   UNL     1     -11.813  55.102  47.264  0.00  0.00    +0.000 C 
ATOM     28  O   UNL     1     -12.346  55.952  46.563  0.00  0.00    +0.000 OA
BRANCH  27  29
ATOM     29  O   UNL     1     -12.293  54.682  48.467  0.00  0.00    +0.000 OA
BRANCH  29  30
ATOM     30  C   UNL     1     -13.085  55.606  49.214  0.00  0.00    +0.000 C 
ATOM     31  C   UNL     1     -12.320  56.061  50.440  0.00  0.00    +0.000 C 
ENDBRANCH  29  30
ENDBRANCH  27  29
ENDBRANCH   3  27
TORSDOF 6
ENDMDL
MODEL 8
REMARK VINA RESULT:      -6.7      3.523      8.272
REMARK  Name = 
REMARK  9 active torsions:
REMARK  status: ('A' for Active; 'I' for Inactive)
REMARK    1  A    between atoms: S_1  and  N_4
REMARK    2  A    between atoms: S_1  and  N_5
REMARK    3  A    between atoms: N_12  and  C_14
REMARK    4  A    between atoms: C_16  and  C_19
REMARK    5  A    between atoms: C_19  and  O_23
REMARK    6  A    between atoms: O_23  and  C_26
REMARK    7  A    between atoms: C_24  and  C_27
REMARK    8  A    between atoms: C_24  and  C_28
REMARK    9  A    between atoms: C_26  and  C_29
REMARK                            x       y       z     vdW  Elec       q    Type
REMARK                         _______ _______ _______ _____ _____    ______ ____
ROOT
ATOM      1  C   UNL     1      -8.755  52.612  50.337  0.00  0.00    +0.000 A 
ATOM      2  S   UNL     1      -7.057  52.495  50.437  0.00  0.00    +0.000 S 
ATOM      3  C   UNL     1      -9.311  53.277  51.419  0.00  0.00    +0.000 A 
ATOM      4  C   UNL     1      -7.009  53.533  51.800  0.00  0.00    +0.000 A 
ATOM      5  C   UNL     1      -8.277  53.895  52.219  0.00  0.00    +0.000 A 
ATOM      6  C   UNL     1      -5.722  53.989  52.455  0.00  0.00    +0.000 C 
ATOM      7  C   UNL     1      -8.494  54.774  53.421  0.00  0.00    +0.000 C 
ATOM      8  C   UNL     1      -5.985  54.512  53.906  0.00  0.00    +0.000 C 
ATOM      9  C   UNL     1      -7.212  55.457  53.893  0.00  0.00    +0.000 C 
ATOM     10  C   UNL     1      -4.786  55.324  54.437  0.00  0.00    +0.000 C 
ATOM     11  C   UNL     1      -6.211  53.327  54.867  0.00  0.00    +0.000 C 
ENDROOT
BRANCH   1  15
ATOM     12  N   UNL     1      -9.851  52.459  46.874  0.00  0.00    +0.000 N 
ATOM     13  C   UNL     1      -9.383  52.991  48.089  0.00  0.00    +0.000 C 
ATOM     14  O   UNL     1      -8.953  54.137  48.154  0.00  0.00    +0.000 OA
ATOM     15  N   UNL     1      -9.342  52.126  49.167  0.00  0.00    +0.000 N 
ATOM     16  H   UNL     1     -10.125  51.515  46.839  0.00  0.00    +0.000 HD
ATOM     17  H   UNL     1      -9.707  51.213  49.114  0.00  0.00    +0.000 HD
BRANCH  12  18
ATOM     18  S   UNL     1      -9.954  53.389  45.485  0.00  0.00    +0.000 S 
ATOM     19  O   UNL     1     -11.169  54.171  45.601  0.00  0.00    +0.000 OA
ATOM     20  O   UNL     1      -8.707  54.012  45.142  0.00  0.00    +0.000 OA
BRANCH  18  21
ATOM     21  N   UNL     1     -10.269  52.196  44.309  0.00  0.00    +0.000 NA
ATOM     22  C   UNL     1      -9.620  50.863  44.508  0.00  0.00    +0.000 C 
ATOM     23  C   UNL     1      -9.988  52.645  42.892  0.00  0.00    +0.000 C 
ATOM     24  C   UNL     1      -8.127  50.899  44.174  0.00  0.00    +0.000 C 
ATOM     25  C   UNL     1      -8.483  52.591  42.555  0.00  0.00    +0.000 C 
ATOM     26  O   UNL     1      -7.932  51.289  42.805  0.00  0.00    +0.000 OA
ENDBRANCH  18  21
ENDBRANCH  12  18
ENDBRANCH   1  15
BRANCH   3  27
ATOM     27  C   UNL     1     -10.757  53.342  51.649  0.00  0.00    +0.000 C 
ATOM     28  O   UNL     1     -11.318  52.775  52.578  0.00  0.00    +0.000 OA
BRANCH  27  29
ATOM     29  O   UNL     1     -11.389  54.100  50.712  0.00  0.00    +0.000 OA
BRANCH  29  30
ATOM     30  C   UNL     1     -11.360  55.517  50.889  0.00  0.00    +0.000 C 
ATOM     31  C   UNL     1     -12.529  55.950  51.750  0.00  0.00    +0.000 C 
ENDBRANCH  29  30
ENDBRANCH  27  29
ENDBRANCH   3  27
TORSDOF 6
ENDMDL
MODEL 9
REMARK VINA RESULT:      -6.6      1.882      2.406
REMARK  Name = 
REMARK  9 active torsions:
REMARK  status: ('A' for Active; 'I' for Inactive)
REMARK    1  A    between atoms: S_1  and  N_4
REMARK    2  A    between atoms: S_1  and  N_5
REMARK    3  A    between atoms: N_12  and  C_14
REMARK    4  A    between atoms: C_16  and  C_19
REMARK    5  A    between atoms: C_19  and  O_23
REMARK    6  A    between atoms: O_23  and  C_26
REMARK    7  A    between atoms: C_24  and  C_27
REMARK    8  A    between atoms: C_24  and  C_28
REMARK    9  A    between atoms: C_26  and  C_29
REMARK                            x       y       z     vdW  Elec       q    Type
REMARK                         _______ _______ _______ _____ _____    ______ ____
ROOT
ATOM      1  C   UNL     1     -11.671  52.492  47.673  0.00  0.00    +0.000 A 
ATOM      2  S   UNL     1     -12.124  53.037  46.123  0.00  0.00    +0.000 S 
ATOM      3  C   UNL     1     -10.487  51.772  47.664  0.00  0.00    +0.000 A 
ATOM      4  C   UNL     1     -10.633  52.531  45.447  0.00  0.00    +0.000 A 
ATOM      5  C   UNL     1      -9.838  51.883  46.376  0.00  0.00    +0.000 A 
ATOM      6  C   UNL     1     -10.248  52.773  44.002  0.00  0.00    +0.000 C 
ATOM      7  C   UNL     1      -8.494  51.315  46.010  0.00  0.00    +0.000 C 
ATOM      8  C   UNL     1      -9.091  51.817  43.562  0.00  0.00    +0.000 C 
ATOM      9  C   UNL     1      -7.993  51.808  44.653  0.00  0.00    +0.000 C 
ATOM     10  C   UNL     1      -8.433  52.297  42.252  0.00  0.00    +0.000 C 
ATOM     11  C   UNL     1      -9.638  50.395  43.318  0.00  0.00    +0.000 C 
ENDROOT
BRANCH   1  15
ATOM     12  N   UNL     1     -13.104  54.642  50.232  0.00  0.00    +0.000 N 
ATOM     13  C   UNL     1     -12.213  54.167  49.252  0.00  0.00    +0.000 C 
ATOM     14  O   UNL     1     -11.308  54.874  48.823  0.00  0.00    +0.000 OA
ATOM     15  N   UNL     1     -12.474  52.910  48.737  0.00  0.00    +0.000 N 
ATOM     16  H   UNL     1     -13.861  54.076  50.505  0.00  0.00    +0.000 HD
ATOM     17  H   UNL     1     -13.189  52.339  49.100  0.00  0.00    +0.000 HD
BRANCH  12  18
ATOM     18  S   UNL     1     -12.914  56.145  50.943  0.00  0.00    +0.000 S 
ATOM     19  O   UNL     1     -12.184  55.929  52.177  0.00  0.00    +0.000 OA
ATOM     20  O   UNL     1     -12.496  57.152  50.008  0.00  0.00    +0.000 OA
BRANCH  18  21
ATOM     21  N   UNL     1     -14.517  56.504  51.397  0.00  0.00    +0.000 NA
ATOM     22  C   UNL     1     -15.344  57.265  50.410  0.00  0.00    +0.000 C 
ATOM     23  C   UNL     1     -14.633  57.198  52.737  0.00  0.00    +0.000 C 
ATOM     24  C   UNL     1     -14.954  58.744  50.357  0.00  0.00    +0.000 C 
ATOM     25  C   UNL     1     -14.316  58.704  52.638  0.00  0.00    +0.000 C 
ATOM     26  O   UNL     1     -15.129  59.352  51.648  0.00  0.00    +0.000 OA
ENDBRANCH  18  21
ENDBRANCH  12  18
ENDBRANCH   1  15
BRANCH   3  27
ATOM     27  C   UNL     1      -9.990  51.049  48.838  0.00  0.00    +0.000 C 
ATOM     28  O   UNL     1      -9.876  49.831  48.880  0.00  0.00    +0.000 OA
BRANCH  27  29
ATOM     29  O   UNL     1      -9.680  51.890  49.862  0.00  0.00    +0.000 OA
BRANCH  29  30
ATOM     30  C   UNL     1      -8.557  52.755  49.680  0.00  0.00    +0.000 C 
ATOM     31  C   UNL     1      -7.453  52.370  50.643  0.00  0.00    +0.000 C 
ENDBRANCH  29  30
ENDBRANCH  27  29
ENDBRANCH   3  27
TORSDOF 6
ENDMDL
