MODEL 1
REMARK VINA RESULT:      -7.2      0.000      0.000
REMARK  Name = 
REMARK  8 active torsions:
REMARK  status: ('A' for Active; 'I' for Inactive)
REMARK    1  A    between atoms: S_1  and  N_4
REMARK    2  A    between atoms: S_1  and  C_5
REMARK    3  A    between atoms: N_10  and  C_13
REMARK    4  A    between atoms: C_14  and  N_17
REMARK    5  A    between atoms: C_16  and  C_20
REMARK    6  A    between atoms: C_20  and  O_26
REMARK    7  A    between atoms: O_26  and  C_29
REMARK    8  A    between atoms: C_29  and  C_30
REMARK                            x       y       z     vdW  Elec       q    Type
REMARK                         _______ _______ _______ _____ _____    ______ ____
ROOT
ATOM      1  N   UNL     1     -10.387  54.141  47.277  0.00  0.00    +0.000 N 
ATOM      2  C   UNL     1     -10.836  55.129  48.146  0.00  0.00    +0.000 C 
ATOM      3  O   UNL     1     -10.059  55.986  48.525  0.00  0.00    +0.000 OA
ATOM      4  N   UNL     1     -12.145  54.973  48.541  0.00  0.00    +0.000 N 
ATOM      5  H   UNL     1     -11.017  53.442  46.989  0.00  0.00    +0.000 HD
ATOM      6  H   UNL     1     -12.648  54.220  48.155  0.00  0.00    +0.000 HD
ENDROOT
BRANCH   4   7
ATOM      7  C   UNL     1     -12.815  55.799  49.443  0.00  0.00    +0.000 A 
ATOM      8  S   UNL     1     -13.857  57.012  48.867  0.00  0.00    +0.000 S 
ATOM      9  C   UNL     1     -12.789  55.748  50.836  0.00  0.00    +0.000 A 
ATOM     10  C   UNL     1     -14.194  57.578  50.414  0.00  0.00    +0.000 A 
ATOM     11  C   UNL     1     -13.591  56.826  51.402  0.00  0.00    +0.000 A 
ATOM     12  C   UNL     1     -15.102  58.750  50.617  0.00  0.00    +0.000 C 
ATOM     13  C   UNL     1     -13.786  57.183  52.854  0.00  0.00    +0.000 C 
ATOM     14  C   UNL     1     -14.998  59.271  52.053  0.00  0.00    +0.000 C 
ATOM     15  C   UNL     1     -14.985  58.122  53.067  0.00  0.00    +0.000 C 
BRANCH   9  16
ATOM     16  C   UNL     1     -12.046  54.715  51.566  0.00  0.00    +0.000 C 
ATOM     17  O   UNL     1     -12.352  53.527  51.531  0.00  0.00    +0.000 OA
BRANCH  16  18
ATOM     18  O   UNL     1     -11.053  55.232  52.340  0.00  0.00    +0.000 OA
BRANCH  18  19
ATOM     19  C   UNL     1      -9.709  55.045  51.881  0.00  0.00    +0.000 C 
ATOM     20  C   UNL     1      -8.796  54.997  53.094  0.00  0.00    +0.000 C 
ENDBRANCH  18  19
ENDBRANCH  16  18
ENDBRANCH   9  16
ENDBRANCH   4   7
BRANCH   1  21
ATOM     21  S   UNL     1      -8.820  54.096  46.701  0.00  0.00    +0.000 S 
ATOM     22  O   UNL     1      -8.537  55.341  46.021  0.00  0.00    +0.000 OA
ATOM     23  O   UNL     1      -8.702  52.830  46.006  0.00  0.00    +0.000 OA
BRANCH  21  24
ATOM     24  C   UNL     1      -7.788  53.969  48.153  0.00  0.00    +0.000 A 
ATOM     25  C   UNL     1      -6.828  54.955  48.413  0.00  0.00    +0.000 A 
ATOM     26  C   UNL     1      -7.966  52.897  49.038  0.00  0.00    +0.000 A 
ATOM     27  C   UNL     1      -6.034  54.862  49.564  0.00  0.00    +0.000 A 
ATOM     28  C   UNL     1      -7.178  52.804  50.189  0.00  0.00    +0.000 A 
ATOM     29  C   UNL     1      -6.214  53.788  50.450  0.00  0.00    +0.000 A 
BRANCH  29  30
ATOM     30  N   UNL     1      -5.391  53.697  51.664  0.00  0.00    +0.000 N 
ATOM     31  O   UNL     1      -4.269  54.225  51.641  0.00  0.00    +0.000 OA
ATOM     32  O   UNL     1      -5.867  53.103  52.643  0.00  0.00    +0.000 OA
ENDBRANCH  29  30
ENDBRANCH  21  24
ENDBRANCH   1  21
TORSDOF 7
ENDMDL
MODEL 2
REMARK VINA RESULT:      -7.0      2.418      3.817
REMARK  Name = 
REMARK  8 active torsions:
REMARK  status: ('A' for Active; 'I' for Inactive)
REMARK    1  A    between atoms: S_1  and  N_4
REMARK    2  A    between atoms: S_1  and  C_5
REMARK    3  A    between atoms: N_10  and  C_13
REMARK    4  A    between atoms: C_14  and  N_17
REMARK    5  A    between atoms: C_16  and  C_20
REMARK    6  A    between atoms: C_20  and  O_26
REMARK    7  A    between atoms: O_26  and  C_29
REMARK    8  A    between atoms: C_29  and  C_30
REMARK                            x       y       z     vdW  Elec       q    Type
REMARK                         _______ _______ _______ _____ _____    ______ ____
ROOT
ATOM      1  N   UNL     1     -11.477  52.629  51.974  0.00  0.00    +0.000 N 
ATOM      2  C   UNL     1     -11.640  54.001  51.831  0.00  0.00    +0.000 C 
ATOM      3  O   UNL     1     -10.821  54.754  52.328  0.00  0.00    +0.000 OA
ATOM      4  N   UNL     1     -12.793  54.362  51.171  0.00  0.00    +0.000 N 
ATOM      5  H   UNL     1     -12.153  52.029  51.584  0.00  0.00    +0.000 HD
ATOM      6  H   UNL     1     -13.367  53.638  50.833  0.00  0.00    +0.000 HD
ENDROOT
BRANCH   4   7
ATOM      7  C   UNL     1     -13.211  55.673  50.943  0.00  0.00    +0.000 A 
ATOM      8  S   UNL     1     -14.062  56.512  52.153  0.00  0.00    +0.000 S 
ATOM      9  C   UNL     1     -12.984  56.464  49.818  0.00  0.00    +0.000 A 
ATOM     10  C   UNL     1     -14.265  57.873  51.187  0.00  0.00    +0.000 A 
ATOM     11  C   UNL     1     -13.636  57.759  49.963  0.00  0.00    +0.000 A 
ATOM     12  C   UNL     1     -15.018  59.062  51.693  0.00  0.00    +0.000 C 
ATOM     13  C   UNL     1     -13.707  58.888  48.965  0.00  0.00    +0.000 C 
ATOM     14  C   UNL     1     -15.344  60.023  50.546  0.00  0.00    +0.000 C 
ATOM     15  C   UNL     1     -14.143  60.212  49.614  0.00  0.00    +0.000 C 
BRANCH   9  16
ATOM     16  C   UNL     1     -12.178  55.996  48.685  0.00  0.00    +0.000 C 
ATOM     17  O   UNL     1     -12.563  55.126  47.910  0.00  0.00    +0.000 OA
BRANCH  16  18
ATOM     18  O   UNL     1     -10.942  56.567  48.649  0.00  0.00    +0.000 OA
BRANCH  18  19
ATOM     19  C   UNL     1      -9.832  55.730  48.994  0.00  0.00    +0.000 C 
ATOM     20  C   UNL     1      -8.846  56.559  49.800  0.00  0.00    +0.000 C 
ENDBRANCH  18  19
ENDBRANCH  16  18
ENDBRANCH   9  16
ENDBRANCH   4   7
BRANCH   1  21
ATOM     21  S   UNL     1     -10.178  51.958  52.782  0.00  0.00    +0.000 S 
ATOM     22  O   UNL     1     -10.129  50.542  52.488  0.00  0.00    +0.000 OA
ATOM     23  O   UNL     1     -10.291  52.426  54.148  0.00  0.00    +0.000 OA
BRANCH  21  24
ATOM     24  C   UNL     1      -8.734  52.753  52.095  0.00  0.00    +0.000 A 
ATOM     25  C   UNL     1      -7.882  53.489  52.928  0.00  0.00    +0.000 A 
ATOM     26  C   UNL     1      -8.449  52.612  50.731  0.00  0.00    +0.000 A 
ATOM     27  C   UNL     1      -6.740  54.095  52.390  0.00  0.00    +0.000 A 
ATOM     28  C   UNL     1      -7.307  53.212  50.190  0.00  0.00    +0.000 A 
ATOM     29  C   UNL     1      -6.454  53.951  51.022  0.00  0.00    +0.000 A 
BRANCH  29  30
ATOM     30  N   UNL     1      -5.249  54.575  50.459  0.00  0.00    +0.000 N 
ATOM     31  O   UNL     1      -5.400  55.409  49.554  0.00  0.00    +0.000 OA
ATOM     32  O   UNL     1      -4.150  54.236  50.924  0.00  0.00    +0.000 OA
ENDBRANCH  29  30
ENDBRANCH  21  24
ENDBRANCH   1  21
TORSDOF 7
ENDMDL
MODEL 3
REMARK VINA RESULT:      -6.9      2.672      4.858
REMARK  Name = 
REMARK  8 active torsions:
REMARK  status: ('A' for Active; 'I' for Inactive)
REMARK    1  A    between atoms: S_1  and  N_4
REMARK    2  A    between atoms: S_1  and  C_5
REMARK    3  A    between atoms: N_10  and  C_13
REMARK    4  A    between atoms: C_14  and  N_17
REMARK    5  A    between atoms: C_16  and  C_20
REMARK    6  A    between atoms: C_20  and  O_26
REMARK    7  A    between atoms: O_26  and  C_29
REMARK    8  A    between atoms: C_29  and  C_30
REMARK                            x       y       z     vdW  Elec       q    Type
REMARK                         _______ _______ _______ _____ _____    ______ ____
ROOT
ATOM      1  N   UNL     1      -8.174  53.424  49.694  0.00  0.00    +0.000 N 
ATOM      2  C   UNL     1      -9.234  54.321  49.694  0.00  0.00    +0.000 C 
ATOM      3  O   UNL     1      -9.178  55.310  48.984  0.00  0.00    +0.000 OA
ATOM      4  N   UNL     1     -10.236  54.004  50.583  0.00  0.00    +0.000 N 
ATOM      5  H   UNL     1      -8.220  52.637  50.283  0.00  0.00    +0.000 HD
ATOM      6  H   UNL     1     -10.136  53.172  51.100  0.00  0.00    +0.000 HD
ENDROOT
BRANCH   4   7
ATOM      7  C   UNL     1     -11.381  54.767  50.809  0.00  0.00    +0.000 A 
ATOM      8  S   UNL     1     -11.518  55.686  52.233  0.00  0.00    +0.000 S 
ATOM      9  C   UNL     1     -12.481  54.934  49.969  0.00  0.00    +0.000 A 
ATOM     10  C   UNL     1     -13.066  56.216  51.845  0.00  0.00    +0.000 A 
ATOM     11  C   UNL     1     -13.487  55.775  50.606  0.00  0.00    +0.000 A 
ATOM     12  C   UNL     1     -13.822  57.109  52.776  0.00  0.00    +0.000 C 
ATOM     13  C   UNL     1     -14.851  56.157  50.088  0.00  0.00    +0.000 C 
ATOM     14  C   UNL     1     -15.297  57.188  52.370  0.00  0.00    +0.000 C 
ATOM     15  C   UNL     1     -15.453  57.347  50.854  0.00  0.00    +0.000 C 
BRANCH   9  16
ATOM     16  C   UNL     1     -12.545  54.328  48.635  0.00  0.00    +0.000 C 
ATOM     17  O   UNL     1     -12.480  53.115  48.453  0.00  0.00    +0.000 OA
BRANCH  16  18
ATOM     18  O   UNL     1     -12.593  55.254  47.640  0.00  0.00    +0.000 OA
BRANCH  18  19
ATOM     19  C   UNL     1     -11.456  55.330  46.770  0.00  0.00    +0.000 C 
ATOM     20  C   UNL     1     -11.730  54.459  45.556  0.00  0.00    +0.000 C 
ENDBRANCH  18  19
ENDBRANCH  16  18
ENDBRANCH   9  16
ENDBRANCH   4   7
BRANCH   1  21
ATOM     21  S   UNL     1      -6.824  53.629  48.732  0.00  0.00    +0.000 S 
ATOM     22  O   UNL     1      -5.873  52.581  49.034  0.00  0.00    +0.000 OA
ATOM     23  O   UNL     1      -6.457  55.023  48.875  0.00  0.00    +0.000 OA
BRANCH  21  24
ATOM     24  C   UNL     1      -7.405  53.432  47.055  0.00  0.00    +0.000 A 
ATOM     25  C   UNL     1      -7.694  52.152  46.564  0.00  0.00    +0.000 A 
ATOM     26  C   UNL     1      -7.594  54.563  46.251  0.00  0.00    +0.000 A 
ATOM     27  C   UNL     1      -8.169  52.004  45.255  0.00  0.00    +0.000 A 
ATOM     28  C   UNL     1      -8.072  54.419  44.944  0.00  0.00    +0.000 A 
ATOM     29  C   UNL     1      -8.359  53.139  44.450  0.00  0.00    +0.000 A 
BRANCH  29  30
ATOM     30  N   UNL     1      -8.870  52.985  43.080  0.00  0.00    +0.000 N 
ATOM     31  O   UNL     1      -8.069  53.137  42.146  0.00  0.00    +0.000 OA
ATOM     32  O   UNL     1     -10.070  52.708  42.938  0.00  0.00    +0.000 OA
ENDBRANCH  29  30
ENDBRANCH  21  24
ENDBRANCH   1  21
TORSDOF 7
ENDMDL
MODEL 4
REMARK VINA RESULT:      -6.9      2.961      7.751
REMARK  Name = 
REMARK  8 active torsions:
REMARK  status: ('A' for Active; 'I' for Inactive)
REMARK    1  A    between atoms: S_1  and  N_4
REMARK    2  A    between atoms: S_1  and  C_5
REMARK    3  A    between atoms: N_10  and  C_13
REMARK    4  A    between atoms: C_14  and  N_17
REMARK    5  A    between atoms: C_16  and  C_20
REMARK    6  A    between atoms: C_20  and  O_26
REMARK    7  A    between atoms: O_26  and  C_29
REMARK    8  A    between atoms: C_29  and  C_30
REMARK                            x       y       z     vdW  Elec       q    Type
REMARK                         _______ _______ _______ _____ _____    ______ ____
ROOT
ATOM      1  N   UNL     1     -10.136  55.738  48.209  0.00  0.00    +0.000 N 
ATOM      2  C   UNL     1      -9.424  55.165  49.255  0.00  0.00    +0.000 C 
ATOM      3  O   UNL     1      -9.956  54.310  49.941  0.00  0.00    +0.000 OA
ATOM      4  N   UNL     1      -8.170  55.702  49.439  0.00  0.00    +0.000 N 
ATOM      5  H   UNL     1      -9.704  56.440  47.671  0.00  0.00    +0.000 HD
ATOM      6  H   UNL     1      -7.879  56.399  48.808  0.00  0.00    +0.000 HD
ENDROOT
BRANCH   4   7
ATOM      7  C   UNL     1      -7.280  55.337  50.448  0.00  0.00    +0.000 A 
ATOM      8  S   UNL     1      -7.636  55.713  52.068  0.00  0.00    +0.000 S 
ATOM      9  C   UNL     1      -6.086  54.627  50.326  0.00  0.00    +0.000 A 
ATOM     10  C   UNL     1      -6.184  55.074  52.626  0.00  0.00    +0.000 A 
ATOM     11  C   UNL     1      -5.432  54.499  51.622  0.00  0.00    +0.000 A 
ATOM     12  C   UNL     1      -5.840  55.119  54.081  0.00  0.00    +0.000 C 
ATOM     13  C   UNL     1      -4.098  53.870  51.938  0.00  0.00    +0.000 C 
ATOM     14  C   UNL     1      -4.362  54.783  54.297  0.00  0.00    +0.000 C 
ATOM     15  C   UNL     1      -3.928  53.589  53.440  0.00  0.00    +0.000 C 
BRANCH   9  16
ATOM     16  C   UNL     1      -5.621  54.098  49.039  0.00  0.00    +0.000 C 
ATOM     17  O   UNL     1      -4.502  54.330  48.591  0.00  0.00    +0.000 OA
BRANCH  16  18
ATOM     18  O   UNL     1      -6.589  53.408  48.375  0.00  0.00    +0.000 OA
BRANCH  18  19
ATOM     19  C   UNL     1      -6.434  53.279  46.956  0.00  0.00    +0.000 C 
ATOM     20  C   UNL     1      -7.208  54.404  46.291  0.00  0.00    +0.000 C 
ENDBRANCH  18  19
ENDBRANCH  16  18
ENDBRANCH   9  16
ENDBRANCH   4   7
BRANCH   1  21
ATOM     21  S   UNL     1     -11.696  55.281  47.828  0.00  0.00    +0.000 S 
ATOM     22  O   UNL     1     -11.792  53.840  47.907  0.00  0.00    +0.000 OA
ATOM     23  O   UNL     1     -12.011  55.976  46.596  0.00  0.00    +0.000 OA
BRANCH  21  24
ATOM     24  C   UNL     1     -12.724  56.011  49.093  0.00  0.00    +0.000 A 
ATOM     25  C   UNL     1     -13.188  55.223  50.153  0.00  0.00    +0.000 A 
ATOM     26  C   UNL     1     -13.035  57.376  49.030  0.00  0.00    +0.000 A 
ATOM     27  C   UNL     1     -13.977  55.805  51.154  0.00  0.00    +0.000 A 
ATOM     28  C   UNL     1     -13.819  57.960  50.030  0.00  0.00    +0.000 A 
ATOM     29  C   UNL     1     -14.287  57.173  51.090  0.00  0.00    +0.000 A 
BRANCH  29  30
ATOM     30  N   UNL     1     -15.104  57.786  52.147  0.00  0.00    +0.000 N 
ATOM     31  O   UNL     1     -15.824  57.039  52.826  0.00  0.00    +0.000 OA
ATOM     32  O   UNL     1     -15.023  59.014  52.302  0.00  0.00    +0.000 OA
ENDBRANCH  29  30
ENDBRANCH  21  24
ENDBRANCH   1  21
TORSDOF 7
ENDMDL
MODEL 5
REMARK VINA RESULT:      -6.8      3.100      7.110
REMARK  Name = 
REMARK  8 active torsions:
REMARK  status: ('A' for Active; 'I' for Inactive)
REMARK    1  A    between atoms: S_1  and  N_4
REMARK    2  A    between atoms: S_1  and  C_5
REMARK    3  A    between atoms: N_10  and  C_13
REMARK    4  A    between atoms: C_14  and  N_17
REMARK    5  A    between atoms: C_16  and  C_20
REMARK    6  A    between atoms: C_20  and  O_26
REMARK    7  A    between atoms: O_26  and  C_29
REMARK    8  A    between atoms: C_29  and  C_30
REMARK                            x       y       z     vdW  Elec       q    Type
REMARK                         _______ _______ _______ _____ _____    ______ ____
ROOT
ATOM      1  N   UNL     1     -11.944  55.263  51.425  0.00  0.00    +0.000 N 
ATOM      2  C   UNL     1     -10.558  55.365  51.440  0.00  0.00    +0.000 C 
ATOM      3  O   UNL     1      -9.996  55.968  50.543  0.00  0.00    +0.000 OA
ATOM      4  N   UNL     1      -9.958  54.688  52.477  0.00  0.00    +0.000 N 
ATOM      5  H   UNL     1     -12.388  54.759  52.144  0.00  0.00    +0.000 HD
ATOM      6  H   UNL     1     -10.546  54.234  53.122  0.00  0.00    +0.000 HD
ENDROOT
BRANCH   4   7
ATOM      7  C   UNL     1      -8.582  54.595  52.685  0.00  0.00    +0.000 A 
ATOM      8  S   UNL     1      -7.891  55.269  54.085  0.00  0.00    +0.000 S 
ATOM      9  C   UNL     1      -7.634  53.954  51.889  0.00  0.00    +0.000 A 
ATOM     10  C   UNL     1      -6.330  54.854  53.618  0.00  0.00    +0.000 A 
ATOM     11  C   UNL     1      -6.297  54.136  52.439  0.00  0.00    +0.000 A 
ATOM     12  C   UNL     1      -5.156  55.217  54.472  0.00  0.00    +0.000 C 
ATOM     13  C   UNL     1      -4.979  53.674  51.869  0.00  0.00    +0.000 C 
ATOM     14  C   UNL     1      -3.847  55.029  53.699  0.00  0.00    +0.000 C 
ATOM     15  C   UNL     1      -3.848  53.716  52.908  0.00  0.00    +0.000 C 
BRANCH   9  16
ATOM     16  C   UNL     1      -8.005  53.206  50.683  0.00  0.00    +0.000 C 
ATOM     17  O   UNL     1      -8.588  52.126  50.725  0.00  0.00    +0.000 OA
BRANCH  16  18
ATOM     18  O   UNL     1      -7.557  53.795  49.541  0.00  0.00    +0.000 OA
BRANCH  18  19
ATOM     19  C   UNL     1      -8.418  53.731  48.398  0.00  0.00    +0.000 C 
ATOM     20  C   UNL     1      -8.182  54.974  47.556  0.00  0.00    +0.000 C 
ENDBRANCH  18  19
ENDBRANCH  16  18
ENDBRANCH   9  16
ENDBRANCH   4   7
BRANCH   1  21
ATOM     21  S   UNL     1     -12.884  55.962  50.235  0.00  0.00    +0.000 S 
ATOM     22  O   UNL     1     -12.544  57.364  50.136  0.00  0.00    +0.000 OA
ATOM     23  O   UNL     1     -14.242  55.549  50.524  0.00  0.00    +0.000 OA
BRANCH  21  24
ATOM     24  C   UNL     1     -12.419  55.135  48.721  0.00  0.00    +0.000 A 
ATOM     25  C   UNL     1     -12.152  55.888  47.570  0.00  0.00    +0.000 A 
ATOM     26  C   UNL     1     -12.299  53.739  48.703  0.00  0.00    +0.000 A 
ATOM     27  C   UNL     1     -11.768  55.237  46.391  0.00  0.00    +0.000 A 
ATOM     28  C   UNL     1     -11.912  53.087  47.529  0.00  0.00    +0.000 A 
ATOM     29  C   UNL     1     -11.647  53.838  46.375  0.00  0.00    +0.000 A 
BRANCH  29  30
ATOM     30  N   UNL     1     -11.232  53.155  45.141  0.00  0.00    +0.000 N 
ATOM     31  O   UNL     1     -10.146  53.480  44.639  0.00  0.00    +0.000 OA
ATOM     32  O   UNL     1     -11.989  52.290  44.676  0.00  0.00    +0.000 OA
ENDBRANCH  29  30
ENDBRANCH  21  24
ENDBRANCH   1  21
TORSDOF 7
ENDMDL
MODEL 6
REMARK VINA RESULT:      -6.7      2.910      7.580
REMARK  Name = 
REMARK  8 active torsions:
REMARK  status: ('A' for Active; 'I' for Inactive)
REMARK    1  A    between atoms: S_1  and  N_4
REMARK    2  A    between atoms: S_1  and  C_5
REMARK    3  A    between atoms: N_10  and  C_13
REMARK    4  A    between atoms: C_14  and  N_17
REMARK    5  A    between atoms: C_16  and  C_20
REMARK    6  A    between atoms: C_20  and  O_26
REMARK    7  A    between atoms: O_26  and  C_29
REMARK    8  A    between atoms: C_29  and  C_30
REMARK                            x       y       z     vdW  Elec       q    Type
REMARK                         _______ _______ _______ _____ _____    ______ ____
ROOT
ATOM      1  N   UNL     1     -10.050  54.995  47.597  0.00  0.00    +0.000 N 
ATOM      2  C   UNL     1      -9.297  54.422  48.615  0.00  0.00    +0.000 C 
ATOM      3  O   UNL     1      -9.840  53.675  49.409  0.00  0.00    +0.000 OA
ATOM      4  N   UNL     1      -7.986  54.839  48.643  0.00  0.00    +0.000 N 
ATOM      5  H   UNL     1      -9.607  55.611  46.971  0.00  0.00    +0.000 HD
ATOM      6  H   UNL     1      -7.692  55.459  47.937  0.00  0.00    +0.000 HD
ENDROOT
BRANCH   4   7
ATOM      7  C   UNL     1      -7.041  54.452  49.592  0.00  0.00    +0.000 A 
ATOM      8  S   UNL     1      -5.866  53.290  49.191  0.00  0.00    +0.000 S 
ATOM      9  C   UNL     1      -6.877  54.936  50.889  0.00  0.00    +0.000 A 
ATOM     10  C   UNL     1      -5.204  53.300  50.737  0.00  0.00    +0.000 A 
ATOM     11  C   UNL     1      -5.800  54.226  51.569  0.00  0.00    +0.000 A 
ATOM     12  C   UNL     1      -4.058  52.403  51.082  0.00  0.00    +0.000 C 
ATOM     13  C   UNL     1      -5.332  54.380  52.994  0.00  0.00    +0.000 C 
ATOM     14  C   UNL     1      -3.847  52.353  52.598  0.00  0.00    +0.000 C 
ATOM     15  C   UNL     1      -3.949  53.748  53.224  0.00  0.00    +0.000 C 
BRANCH   9  16
ATOM     16  C   UNL     1      -7.704  56.023  51.427  0.00  0.00    +0.000 C 
ATOM     17  O   UNL     1      -7.807  57.114  50.874  0.00  0.00    +0.000 OA
BRANCH  16  18
ATOM     18  O   UNL     1      -8.258  55.713  52.631  0.00  0.00    +0.000 OA
BRANCH  18  19
ATOM     19  C   UNL     1      -9.066  54.531  52.687  0.00  0.00    +0.000 C 
ATOM     20  C   UNL     1     -10.525  54.952  52.624  0.00  0.00    +0.000 C 
ENDBRANCH  18  19
ENDBRANCH  16  18
ENDBRANCH   9  16
ENDBRANCH   4   7
BRANCH   1  21
ATOM     21  S   UNL     1     -11.677  54.676  47.395  0.00  0.00    +0.000 S 
ATOM     22  O   UNL     1     -12.005  53.459  48.104  0.00  0.00    +0.000 OA
ATOM     23  O   UNL     1     -11.918  54.790  45.971  0.00  0.00    +0.000 OA
BRANCH  21  24
ATOM     24  C   UNL     1     -12.525  56.050  48.159  0.00  0.00    +0.000 A 
ATOM     25  C   UNL     1     -13.293  56.919  47.373  0.00  0.00    +0.000 A 
ATOM     26  C   UNL     1     -12.438  56.232  49.545  0.00  0.00    +0.000 A 
ATOM     27  C   UNL     1     -13.972  57.983  47.980  0.00  0.00    +0.000 A 
ATOM     28  C   UNL     1     -13.118  57.291  50.155  0.00  0.00    +0.000 A 
ATOM     29  C   UNL     1     -13.885  58.164  49.370  0.00  0.00    +0.000 A 
BRANCH  29  30
ATOM     30  N   UNL     1     -14.608  59.273  50.008  0.00  0.00    +0.000 N 
ATOM     31  O   UNL     1     -15.093  59.074  51.132  0.00  0.00    +0.000 OA
ATOM     32  O   UNL     1     -14.688  60.344  49.389  0.00  0.00    +0.000 OA
ENDBRANCH  29  30
ENDBRANCH  21  24
ENDBRANCH   1  21
TORSDOF 7
ENDMDL
MODEL 7
REMARK VINA RESULT:      -6.5      2.689      3.894
REMARK  Name = 
REMARK  8 active torsions:
REMARK  status: ('A' for Active; 'I' for Inactive)
REMARK    1  A    between atoms: S_1  and  N_4
REMARK    2  A    between atoms: S_1  and  C_5
REMARK    3  A    between atoms: N_10  and  C_13
REMARK    4  A    between atoms: C_14  and  N_17
REMARK    5  A    between atoms: C_16  and  C_20
REMARK    6  A    between atoms: C_20  and  O_26
REMARK    7  A    between atoms: O_26  and  C_29
REMARK    8  A    between atoms: C_29  and  C_30
REMARK                            x       y       z     vdW  Elec       q    Type
REMARK                         _______ _______ _______ _____ _____    ______ ____
ROOT
ATOM      1  N   UNL     1     -10.605  52.428  49.134  0.00  0.00    +0.000 N 
ATOM      2  C   UNL     1     -10.877  53.681  49.669  0.00  0.00    +0.000 C 
ATOM      3  O   UNL     1      -9.982  54.303  50.212  0.00  0.00    +0.000 OA
ATOM      4  N   UNL     1     -12.198  54.055  49.574  0.00  0.00    +0.000 N 
ATOM      5  H   UNL     1     -11.338  51.924  48.713  0.00  0.00    +0.000 HD
ATOM      6  H   UNL     1     -12.812  53.438  49.114  0.00  0.00    +0.000 HD
ENDROOT
BRANCH   4   7
ATOM      7  C   UNL     1     -12.734  55.239  50.077  0.00  0.00    +0.000 A 
ATOM      8  S   UNL     1     -12.882  55.455  51.758  0.00  0.00    +0.000 S 
ATOM      9  C   UNL     1     -13.156  56.362  49.367  0.00  0.00    +0.000 A 
ATOM     10  C   UNL     1     -13.616  56.958  51.588  0.00  0.00    +0.000 A 
ATOM     11  C   UNL     1     -13.702  57.366  50.272  0.00  0.00    +0.000 A 
ATOM     12  C   UNL     1     -14.057  57.732  52.790  0.00  0.00    +0.000 C 
ATOM     13  C   UNL     1     -14.328  58.695  49.928  0.00  0.00    +0.000 C 
ATOM     14  C   UNL     1     -14.971  58.890  52.381  0.00  0.00    +0.000 C 
ATOM     15  C   UNL     1     -14.430  59.623  51.149  0.00  0.00    +0.000 C 
BRANCH   9  16
ATOM     16  C   UNL     1     -13.025  56.457  47.909  0.00  0.00    +0.000 C 
ATOM     17  O   UNL     1     -13.955  56.789  47.179  0.00  0.00    +0.000 OA
BRANCH  16  18
ATOM     18  O   UNL     1     -11.803  56.056  47.464  0.00  0.00    +0.000 OA
BRANCH  18  19
ATOM     19  C   UNL     1     -11.775  55.269  46.268  0.00  0.00    +0.000 C 
ATOM     20  C   UNL     1     -10.445  54.535  46.215  0.00  0.00    +0.000 C 
ENDBRANCH  18  19
ENDBRANCH  16  18
ENDBRANCH   9  16
ENDBRANCH   4   7
BRANCH   1  21
ATOM     21  S   UNL     1      -9.082  51.743  49.177  0.00  0.00    +0.000 S 
ATOM     22  O   UNL     1      -8.146  52.649  48.549  0.00  0.00    +0.000 OA
ATOM     23  O   UNL     1      -9.252  50.393  48.680  0.00  0.00    +0.000 OA
BRANCH  21  24
ATOM     24  C   UNL     1      -8.682  51.592  50.911  0.00  0.00    +0.000 A 
ATOM     25  C   UNL     1      -9.567  50.935  51.776  0.00  0.00    +0.000 A 
ATOM     26  C   UNL     1      -7.471  52.110  51.390  0.00  0.00    +0.000 A 
ATOM     27  C   UNL     1      -9.239  50.801  53.131  0.00  0.00    +0.000 A 
ATOM     28  C   UNL     1      -7.140  51.975  52.742  0.00  0.00    +0.000 A 
ATOM     29  C   UNL     1      -8.025  51.320  53.609  0.00  0.00    +0.000 A 
BRANCH  29  30
ATOM     30  N   UNL     1      -7.675  51.168  55.029  0.00  0.00    +0.000 N 
ATOM     31  O   UNL     1      -6.525  51.474  55.375  0.00  0.00    +0.000 OA
ATOM     32  O   UNL     1      -8.552  50.748  55.799  0.00  0.00    +0.000 OA
ENDBRANCH  29  30
ENDBRANCH  21  24
ENDBRANCH   1  21
TORSDOF 7
ENDMDL
MODEL 8
REMARK VINA RESULT:      -6.1      2.897      7.972
REMARK  Name = 
REMARK  8 active torsions:
REMARK  status: ('A' for Active; 'I' for Inactive)
REMARK    1  A    between atoms: S_1  and  N_4
REMARK    2  A    between atoms: S_1  and  C_5
REMARK    3  A    between atoms: N_10  and  C_13
REMARK    4  A    between atoms: C_14  and  N_17
REMARK    5  A    between atoms: C_16  and  C_20
REMARK    6  A    between atoms: C_20  and  O_26
REMARK    7  A    between atoms: O_26  and  C_29
REMARK    8  A    between atoms: C_29  and  C_30
REMARK                            x       y       z     vdW  Elec       q    Type
REMARK                         _______ _______ _______ _____ _____    ______ ____
ROOT
ATOM      1  N   UNL     1     -11.018  56.713  49.267  0.00  0.00    +0.000 N 
ATOM      2  C   UNL     1     -10.069  55.720  49.480  0.00  0.00    +0.000 C 
ATOM      3  O   UNL     1     -10.422  54.554  49.503  0.00  0.00    +0.000 OA
ATOM      4  N   UNL     1      -8.801  56.200  49.715  0.00  0.00    +0.000 N 
ATOM      5  H   UNL     1     -10.727  57.653  49.268  0.00  0.00    +0.000 HD
ATOM      6  H   UNL     1      -8.670  57.175  49.675  0.00  0.00    +0.000 HD
ENDROOT
BRANCH   4   7
ATOM      7  C   UNL     1      -7.686  55.413  50.005  0.00  0.00    +0.000 A 
ATOM      8  S   UNL     1      -6.781  54.729  48.739  0.00  0.00    +0.000 S 
ATOM      9  C   UNL     1      -7.143  55.120  51.255  0.00  0.00    +0.000 A 
ATOM     10  C   UNL     1      -5.743  53.933  49.796  0.00  0.00    +0.000 A 
ATOM     11  C   UNL     1      -6.005  54.219  51.120  0.00  0.00    +0.000 A 
ATOM     12  C   UNL     1      -4.644  53.062  49.274  0.00  0.00    +0.000 C 
ATOM     13  C   UNL     1      -5.170  53.597  52.211  0.00  0.00    +0.000 C 
ATOM     14  C   UNL     1      -4.054  52.206  50.398  0.00  0.00    +0.000 C 
ATOM     15  C   UNL     1      -3.847  53.025  51.677  0.00  0.00    +0.000 C 
BRANCH   9  16
ATOM     16  C   UNL     1      -7.686  55.687  52.495  0.00  0.00    +0.000 C 
ATOM     17  O   UNL     1      -7.017  56.379  53.257  0.00  0.00    +0.000 OA
BRANCH  16  18
ATOM     18  O   UNL     1      -8.965  55.290  52.737  0.00  0.00    +0.000 OA
BRANCH  18  19
ATOM     19  C   UNL     1      -9.157  53.923  53.122  0.00  0.00    +0.000 C 
ATOM     20  C   UNL     1     -10.629  53.586  52.956  0.00  0.00    +0.000 C 
ENDBRANCH  18  19
ENDBRANCH  16  18
ENDBRANCH   9  16
ENDBRANCH   4   7
BRANCH   1  21
ATOM     21  S   UNL     1     -12.632  56.373  49.008  0.00  0.00    +0.000 S 
ATOM     22  O   UNL     1     -12.825  54.942  49.091  0.00  0.00    +0.000 OA
ATOM     23  O   UNL     1     -12.991  57.098  47.807  0.00  0.00    +0.000 OA
BRANCH  21  24
ATOM     24  C   UNL     1     -13.502  57.164  50.352  0.00  0.00    +0.000 A 
ATOM     25  C   UNL     1     -14.238  58.332  50.113  0.00  0.00    +0.000 A 
ATOM     26  C   UNL     1     -13.464  56.595  51.631  0.00  0.00    +0.000 A 
ATOM     27  C   UNL     1     -14.935  58.938  51.166  0.00  0.00    +0.000 A 
ATOM     28  C   UNL     1     -14.163  57.195  52.684  0.00  0.00    +0.000 A 
ATOM     29  C   UNL     1     -14.897  58.365  52.448  0.00  0.00    +0.000 A 
BRANCH  29  30
ATOM     30  N   UNL     1     -15.640  58.994  53.550  0.00  0.00    +0.000 N 
ATOM     31  O   UNL     1     -15.812  58.329  54.582  0.00  0.00    +0.000 OA
ATOM     32  O   UNL     1     -16.045  60.155  53.386  0.00  0.00    +0.000 OA
ENDBRANCH  29  30
ENDBRANCH  21  24
ENDBRANCH   1  21
TORSDOF 7
ENDMDL
MODEL 9
REMARK VINA RESULT:      -6.1      3.516      6.840
REMARK  Name = 
REMARK  8 active torsions:
REMARK  status: ('A' for Active; 'I' for Inactive)
REMARK    1  A    between atoms: S_1  and  N_4
REMARK    2  A    between atoms: S_1  and  C_5
REMARK    3  A    between atoms: N_10  and  C_13
REMARK    4  A    between atoms: C_14  and  N_17
REMARK    5  A    between atoms: C_16  and  C_20
REMARK    6  A    between atoms: C_20  and  O_26
REMARK    7  A    between atoms: O_26  and  C_29
REMARK    8  A    between atoms: C_29  and  C_30
REMARK                            x       y       z     vdW  Elec       q    Type
REMARK                         _______ _______ _______ _____ _____    ______ ____
ROOT
ATOM      1  N   UNL     1     -11.684  52.703  50.011  0.00  0.00    +0.000 N 
ATOM      2  C   UNL     1     -11.021  52.329  48.849  0.00  0.00    +0.000 C 
ATOM      3  O   UNL     1     -10.186  51.444  48.897  0.00  0.00    +0.000 OA
ATOM      4  N   UNL     1     -11.356  53.083  47.747  0.00  0.00    +0.000 N 
ATOM      5  H   UNL     1     -12.344  53.431  49.966  0.00  0.00    +0.000 HD
ATOM      6  H   UNL     1     -12.045  53.777  47.864  0.00  0.00    +0.000 HD
ENDROOT
BRANCH   4   7
ATOM      7  C   UNL     1     -10.798  52.942  46.477  0.00  0.00    +0.000 A 
ATOM      8  S   UNL     1     -11.478  51.844  45.371  0.00  0.00    +0.000 S 
ATOM      9  C   UNL     1      -9.723  53.640  45.929  0.00  0.00    +0.000 A 
ATOM     10  C   UNL     1     -10.309  52.162  44.204  0.00  0.00    +0.000 A 
ATOM     11  C   UNL     1      -9.425  53.150  44.588  0.00  0.00    +0.000 A 
ATOM     12  C   UNL     1     -10.324  51.442  42.894  0.00  0.00    +0.000 C 
ATOM     13  C   UNL     1      -8.310  53.572  43.664  0.00  0.00    +0.000 C 
ATOM     14  C   UNL     1      -9.005  51.654  42.145  0.00  0.00    +0.000 C 
ATOM     15  C   UNL     1      -8.550  53.116  42.216  0.00  0.00    +0.000 C 
BRANCH   9  16
ATOM     16  C   UNL     1      -9.040  54.717  46.654  0.00  0.00    +0.000 C 
ATOM     17  O   UNL     1      -9.606  55.753  46.990  0.00  0.00    +0.000 OA
BRANCH  16  18
ATOM     18  O   UNL     1      -7.712  54.473  46.826  0.00  0.00    +0.000 OA
BRANCH  18  19
ATOM     19  C   UNL     1      -7.359  53.419  47.730  0.00  0.00    +0.000 C 
ATOM     20  C   UNL     1      -7.413  53.971  49.145  0.00  0.00    +0.000 C 
ENDBRANCH  18  19
ENDBRANCH  16  18
ENDBRANCH   9  16
ENDBRANCH   4   7
BRANCH   1  21
ATOM     21  S   UNL     1     -11.404  51.963  51.482  0.00  0.00    +0.000 S 
ATOM     22  O   UNL     1     -10.924  50.620  51.244  0.00  0.00    +0.000 OA
ATOM     23  O   UNL     1     -12.603  52.192  52.262  0.00  0.00    +0.000 OA
BRANCH  21  24
ATOM     24  C   UNL     1     -10.111  52.923  52.254  0.00  0.00    +0.000 A 
ATOM     25  C   UNL     1      -8.800  52.432  52.279  0.00  0.00    +0.000 A 
ATOM     26  C   UNL     1     -10.414  54.175  52.805  0.00  0.00    +0.000 A 
ATOM     27  C   UNL     1      -7.785  53.197  52.868  0.00  0.00    +0.000 A 
ATOM     28  C   UNL     1      -9.402  54.943  53.390  0.00  0.00    +0.000 A 
ATOM     29  C   UNL     1      -8.090  54.452  53.419  0.00  0.00    +0.000 A 
BRANCH  29  30
ATOM     30  N   UNL     1      -7.023  55.262  54.026  0.00  0.00    +0.000 N 
ATOM     31  O   UNL     1      -6.275  54.709  54.846  0.00  0.00    +0.000 OA
ATOM     32  O   UNL     1      -6.928  56.448  53.678  0.00  0.00    +0.000 OA
ENDBRANCH  29  30
ENDBRANCH  21  24
ENDBRANCH   1  21
TORSDOF 7
ENDMDL
