MODEL 1
REMARK VINA RESULT:      -7.3      0.000      0.000
REMARK  Name = 
REMARK  10 active torsions:
REMARK  status: ('A' for Active; 'I' for Inactive)
REMARK    1  A    between atoms: S_1  and  N_4
REMARK    2  A    between atoms: S_1  and  C_5
REMARK    3  A    between atoms: N_10  and  C_13
REMARK    4  A    between atoms: C_14  and  C_17
REMARK    5  A    between atoms: C_16  and  C_20
REMARK    6  A    between atoms: C_20  and  O_24
REMARK    7  A    between atoms: O_24  and  C_27
REMARK    8  A    between atoms: C_25  and  C_28
REMARK    9  A    between atoms: C_25  and  C_29
REMARK   10  A    between atoms: C_27  and  C_30
REMARK                            x       y       z     vdW  Elec       q    Type
REMARK                         _______ _______ _______ _____ _____    ______ ____
ROOT
ATOM      1  N   UNL     1      -9.788  51.621  48.740  0.00  0.00    +0.000 N 
ATOM      2  C   UNL     1     -10.768  52.587  48.924  0.00  0.00    +0.000 C 
ATOM      3  O   UNL     1     -11.866  52.469  48.390  0.00  0.00    +0.000 OA
ATOM      4  N   UNL     1     -10.390  53.664  49.690  0.00  0.00    +0.000 N 
ATOM      5  H   UNL     1      -8.945  51.702  49.241  0.00  0.00    +0.000 HD
ATOM      6  H   UNL     1      -9.479  53.739  50.055  0.00  0.00    +0.000 HD
ENDROOT
BRANCH   4   7
ATOM      7  C   UNL     1     -11.345  54.642  49.929  0.00  0.00    +0.000 A 
ATOM      8  S   UNL     1     -12.089  54.586  51.457  0.00  0.00    +0.000 S 
ATOM      9  C   UNL     1     -11.809  55.677  49.129  0.00  0.00    +0.000 A 
ATOM     10  C   UNL     1     -12.840  56.098  51.200  0.00  0.00    +0.000 A 
ATOM     11  C   UNL     1     -12.607  56.583  49.924  0.00  0.00    +0.000 A 
ATOM     12  C   UNL     1     -13.664  56.795  52.259  0.00  0.00    +0.000 C 
ATOM     13  C   UNL     1     -13.209  57.872  49.445  0.00  0.00    +0.000 C 
ATOM     14  C   UNL     1     -14.577  57.893  51.629  0.00  0.00    +0.000 C 
ATOM     15  C   UNL     1     -13.752  58.717  50.600  0.00  0.00    +0.000 C 
ATOM     16  C   UNL     1     -15.091  58.867  52.706  0.00  0.00    +0.000 C 
ATOM     17  C   UNL     1     -15.806  57.241  50.963  0.00  0.00    +0.000 C 
BRANCH   9  18
ATOM     18  C   UNL     1     -11.583  55.787  47.679  0.00  0.00    +0.000 C 
ATOM     19  O   UNL     1     -12.489  55.807  46.854  0.00  0.00    +0.000 OA
BRANCH  18  20
ATOM     20  O   UNL     1     -10.261  55.698  47.358  0.00  0.00    +0.000 OA
BRANCH  20  21
ATOM     21  C   UNL     1      -9.883  54.848  46.274  0.00  0.00    +0.000 C 
ATOM     22  C   UNL     1      -8.386  54.899  46.058  0.00  0.00    +0.000 C 
ENDBRANCH  20  21
ENDBRANCH  18  20
ENDBRANCH   9  18
ENDBRANCH   4   7
BRANCH   1  23
ATOM     23  S   UNL     1      -9.985  50.326  47.701  0.00  0.00    +0.000 S 
ATOM     24  O   UNL     1     -11.344  49.838  47.835  0.00  0.00    +0.000 OA
ATOM     25  O   UNL     1      -8.876  49.433  47.970  0.00  0.00    +0.000 OA
BRANCH  23  26
ATOM     26  C   UNL     1      -9.767  51.003  46.053  0.00  0.00    +0.000 A 
ATOM     27  N   UNL     1      -8.471  51.151  45.657  0.00  0.00    +0.000 NA
ATOM     28  C   UNL     1     -10.873  51.339  45.277  0.00  0.00    +0.000 A 
ATOM     29  C   UNL     1      -8.293  51.632  44.403  0.00  0.00    +0.000 A 
ATOM     30  C   UNL     1     -10.639  51.846  44.002  0.00  0.00    +0.000 A 
ATOM     31  C   UNL     1      -9.327  51.994  43.541  0.00  0.00    +0.000 A 
ATOM     32  C   UNL     1      -9.059  52.533  42.169  0.00  0.00    +0.000 C 
ENDBRANCH  23  26
ENDBRANCH   1  23
TORSDOF 6
ENDMDL
MODEL 2
REMARK VINA RESULT:      -7.1      1.938      2.763
REMARK  Name = 
REMARK  10 active torsions:
REMARK  status: ('A' for Active; 'I' for Inactive)
REMARK    1  A    between atoms: S_1  and  N_4
REMARK    2  A    between atoms: S_1  and  C_5
REMARK    3  A    between atoms: N_10  and  C_13
REMARK    4  A    between atoms: C_14  and  C_17
REMARK    5  A    between atoms: C_16  and  C_20
REMARK    6  A    between atoms: C_20  and  O_24
REMARK    7  A    between atoms: O_24  and  C_27
REMARK    8  A    between atoms: C_25  and  C_28
REMARK    9  A    between atoms: C_25  and  C_29
REMARK   10  A    between atoms: C_27  and  C_30
REMARK                            x       y       z     vdW  Elec       q    Type
REMARK                         _______ _______ _______ _____ _____    ______ ____
ROOT
ATOM      1  N   UNL     1      -8.042  53.220  49.535  0.00  0.00    +0.000 N 
ATOM      2  C   UNL     1      -9.123  54.080  49.675  0.00  0.00    +0.000 C 
ATOM      3  O   UNL     1      -9.194  55.104  49.004  0.00  0.00    +0.000 OA
ATOM      4  N   UNL     1     -10.043  53.712  50.627  0.00  0.00    +0.000 N 
ATOM      5  H   UNL     1      -8.049  52.368  50.029  0.00  0.00    +0.000 HD
ATOM      6  H   UNL     1      -9.916  52.905  51.178  0.00  0.00    +0.000 HD
ENDROOT
BRANCH   4   7
ATOM      7  C   UNL     1     -11.158  54.523  50.783  0.00  0.00    +0.000 A 
ATOM      8  S   UNL     1     -11.339  55.237  52.315  0.00  0.00    +0.000 S 
ATOM      9  C   UNL     1     -12.169  54.862  49.896  0.00  0.00    +0.000 A 
ATOM     10  C   UNL     1     -12.607  56.234  51.754  0.00  0.00    +0.000 A 
ATOM     11  C   UNL     1     -12.952  55.946  50.445  0.00  0.00    +0.000 A 
ATOM     12  C   UNL     1     -13.261  57.291  52.615  0.00  0.00    +0.000 C 
ATOM     13  C   UNL     1     -14.078  56.654  49.749  0.00  0.00    +0.000 C 
ATOM     14  C   UNL     1     -14.642  57.720  52.026  0.00  0.00    +0.000 C 
ATOM     15  C   UNL     1     -14.504  57.923  50.491  0.00  0.00    +0.000 C 
ATOM     16  C   UNL     1     -15.112  59.054  52.637  0.00  0.00    +0.000 C 
ATOM     17  C   UNL     1     -15.710  56.655  52.353  0.00  0.00    +0.000 C 
BRANCH   9  18
ATOM     18  C   UNL     1     -12.443  54.168  48.627  0.00  0.00    +0.000 C 
ATOM     19  O   UNL     1     -12.508  52.948  48.524  0.00  0.00    +0.000 OA
BRANCH  18  20
ATOM     20  O   UNL     1     -12.452  55.024  47.566  0.00  0.00    +0.000 OA
BRANCH  20  21
ATOM     21  C   UNL     1     -11.336  55.010  46.674  0.00  0.00    +0.000 C 
ATOM     22  C   UNL     1     -11.664  54.215  45.428  0.00  0.00    +0.000 C 
ENDBRANCH  20  21
ENDBRANCH  18  20
ENDBRANCH   9  18
ENDBRANCH   4   7
BRANCH   1  23
ATOM     23  S   UNL     1      -6.730  53.575  48.562  0.00  0.00    +0.000 S 
ATOM     24  O   UNL     1      -5.714  52.564  48.782  0.00  0.00    +0.000 OA
ATOM     25  O   UNL     1      -6.417  54.968  48.813  0.00  0.00    +0.000 OA
BRANCH  23  26
ATOM     26  C   UNL     1      -7.337  53.437  46.878  0.00  0.00    +0.000 A 
ATOM     27  N   UNL     1      -7.624  52.168  46.471  0.00  0.00    +0.000 NA
ATOM     28  C   UNL     1      -7.485  54.573  46.087  0.00  0.00    +0.000 A 
ATOM     29  C   UNL     1      -8.113  52.053  45.213  0.00  0.00    +0.000 A 
ATOM     30  C   UNL     1      -7.974  54.402  44.795  0.00  0.00    +0.000 A 
ATOM     31  C   UNL     1      -8.305  53.122  44.339  0.00  0.00    +0.000 A 
ATOM     32  C   UNL     1      -8.838  52.922  42.953  0.00  0.00    +0.000 C 
ENDBRANCH  23  26
ENDBRANCH   1  23
TORSDOF 6
ENDMDL
MODEL 3
REMARK VINA RESULT:      -7.0      3.212      4.952
REMARK  Name = 
REMARK  10 active torsions:
REMARK  status: ('A' for Active; 'I' for Inactive)
REMARK    1  A    between atoms: S_1  and  N_4
REMARK    2  A    between atoms: S_1  and  C_5
REMARK    3  A    between atoms: N_10  and  C_13
REMARK    4  A    between atoms: C_14  and  C_17
REMARK    5  A    between atoms: C_16  and  C_20
REMARK    6  A    between atoms: C_20  and  O_24
REMARK    7  A    between atoms: O_24  and  C_27
REMARK    8  A    between atoms: C_25  and  C_28
REMARK    9  A    between atoms: C_25  and  C_29
REMARK   10  A    between atoms: C_27  and  C_30
REMARK                            x       y       z     vdW  Elec       q    Type
REMARK                         _______ _______ _______ _____ _____    ______ ____
ROOT
ATOM      1  N   UNL     1      -8.475  53.416  48.727  0.00  0.00    +0.000 N 
ATOM      2  C   UNL     1      -9.393  54.329  49.224  0.00  0.00    +0.000 C 
ATOM      3  O   UNL     1      -9.013  55.346  49.795  0.00  0.00    +0.000 OA
ATOM      4  N   UNL     1     -10.713  53.978  49.062  0.00  0.00    +0.000 N 
ATOM      5  H   UNL     1      -8.805  52.648  48.206  0.00  0.00    +0.000 HD
ATOM      6  H   UNL     1     -10.968  53.125  48.642  0.00  0.00    +0.000 HD
ENDROOT
BRANCH   4   7
ATOM      7  C   UNL     1     -11.671  54.875  49.515  0.00  0.00    +0.000 A 
ATOM      8  S   UNL     1     -12.121  54.706  51.146  0.00  0.00    +0.000 S 
ATOM      9  C   UNL     1     -12.337  55.902  48.864  0.00  0.00    +0.000 A 
ATOM     10  C   UNL     1     -13.003  56.168  51.103  0.00  0.00    +0.000 A 
ATOM     11  C   UNL     1     -13.035  56.716  49.833  0.00  0.00    +0.000 A 
ATOM     12  C   UNL     1     -13.666  56.762  52.326  0.00  0.00    +0.000 C 
ATOM     13  C   UNL     1     -13.797  57.975  49.533  0.00  0.00    +0.000 C 
ATOM     14  C   UNL     1     -14.747  57.814  51.923  0.00  0.00    +0.000 C 
ATOM     15  C   UNL     1     -14.176  58.734  50.807  0.00  0.00    +0.000 C 
ATOM     16  C   UNL     1     -15.121  58.705  53.123  0.00  0.00    +0.000 C 
ATOM     17  C   UNL     1     -16.031  57.099  51.453  0.00  0.00    +0.000 C 
BRANCH   9  18
ATOM     18  C   UNL     1     -12.384  56.083  47.404  0.00  0.00    +0.000 C 
ATOM     19  O   UNL     1     -13.332  56.593  46.816  0.00  0.00    +0.000 OA
BRANCH  18  20
ATOM     20  O   UNL     1     -11.336  55.476  46.778  0.00  0.00    +0.000 OA
BRANCH  20  21
ATOM     21  C   UNL     1     -11.618  54.546  45.732  0.00  0.00    +0.000 C 
ATOM     22  C   UNL     1     -10.383  53.741  45.390  0.00  0.00    +0.000 C 
ENDBRANCH  20  21
ENDBRANCH  18  20
ENDBRANCH   9  18
ENDBRANCH   4   7
BRANCH   1  23
ATOM     23  S   UNL     1      -6.829  53.567  48.978  0.00  0.00    +0.000 S 
ATOM     24  O   UNL     1      -6.405  54.852  48.456  0.00  0.00    +0.000 OA
ATOM     25  O   UNL     1      -6.236  52.353  48.454  0.00  0.00    +0.000 OA
BRANCH  23  26
ATOM     26  C   UNL     1      -6.619  53.563  50.761  0.00  0.00    +0.000 A 
ATOM     27  N   UNL     1      -5.945  54.636  51.264  0.00  0.00    +0.000 NA
ATOM     28  C   UNL     1      -7.125  52.517  51.528  0.00  0.00    +0.000 A 
ATOM     29  C   UNL     1      -5.807  54.662  52.612  0.00  0.00    +0.000 A 
ATOM     30  C   UNL     1      -6.943  52.579  52.906  0.00  0.00    +0.000 A 
ATOM     31  C   UNL     1      -6.278  53.671  53.473  0.00  0.00    +0.000 A 
ATOM     32  C   UNL     1      -6.079  53.756  54.955  0.00  0.00    +0.000 C 
ENDBRANCH  23  26
ENDBRANCH   1  23
TORSDOF 6
ENDMDL
MODEL 4
REMARK VINA RESULT:      -6.9      3.766      5.594
REMARK  Name = 
REMARK  10 active torsions:
REMARK  status: ('A' for Active; 'I' for Inactive)
REMARK    1  A    between atoms: S_1  and  N_4
REMARK    2  A    between atoms: S_1  and  C_5
REMARK    3  A    between atoms: N_10  and  C_13
REMARK    4  A    between atoms: C_14  and  C_17
REMARK    5  A    between atoms: C_16  and  C_20
REMARK    6  A    between atoms: C_20  and  O_24
REMARK    7  A    between atoms: O_24  and  C_27
REMARK    8  A    between atoms: C_25  and  C_28
REMARK    9  A    between atoms: C_25  and  C_29
REMARK   10  A    between atoms: C_27  and  C_30
REMARK                            x       y       z     vdW  Elec       q    Type
REMARK                         _______ _______ _______ _____ _____    ______ ____
ROOT
ATOM      1  N   UNL     1      -7.999  53.042  50.416  0.00  0.00    +0.000 N 
ATOM      2  C   UNL     1      -9.001  53.971  50.653  0.00  0.00    +0.000 C 
ATOM      3  O   UNL     1      -8.856  54.838  51.509  0.00  0.00    +0.000 OA
ATOM      4  N   UNL     1     -10.140  53.808  49.901  0.00  0.00    +0.000 N 
ATOM      5  H   UNL     1      -8.109  52.406  49.672  0.00  0.00    +0.000 HD
ATOM      6  H   UNL     1     -10.229  53.065  49.262  0.00  0.00    +0.000 HD
ENDROOT
BRANCH   4   7
ATOM      7  C   UNL     1     -11.160  54.732  50.079  0.00  0.00    +0.000 A 
ATOM      8  S   UNL     1     -11.928  54.694  51.595  0.00  0.00    +0.000 S 
ATOM      9  C   UNL     1     -11.671  55.699  49.227  0.00  0.00    +0.000 A 
ATOM     10  C   UNL     1     -12.769  56.143  51.259  0.00  0.00    +0.000 A 
ATOM     11  C   UNL     1     -12.541  56.586  49.967  0.00  0.00    +0.000 A 
ATOM     12  C   UNL     1     -13.657  56.830  52.271  0.00  0.00    +0.000 C 
ATOM     13  C   UNL     1     -13.214  57.811  49.420  0.00  0.00    +0.000 C 
ATOM     14  C   UNL     1     -14.624  57.839  51.577  0.00  0.00    +0.000 C 
ATOM     15  C   UNL     1     -13.833  58.669  50.527  0.00  0.00    +0.000 C 
ATOM     16  C   UNL     1     -15.221  58.823  52.601  0.00  0.00    +0.000 C 
ATOM     17  C   UNL     1     -15.796  57.081  50.919  0.00  0.00    +0.000 C 
BRANCH   9  18
ATOM     18  C   UNL     1     -11.424  55.761  47.777  0.00  0.00    +0.000 C 
ATOM     19  O   UNL     1     -12.304  55.623  46.935  0.00  0.00    +0.000 OA
BRANCH  18  20
ATOM     20  O   UNL     1     -10.093  55.823  47.486  0.00  0.00    +0.000 OA
BRANCH  20  21
ATOM     21  C   UNL     1      -9.573  54.932  46.499  0.00  0.00    +0.000 C 
ATOM     22  C   UNL     1      -8.089  54.720  46.705  0.00  0.00    +0.000 C 
ENDBRANCH  20  21
ENDBRANCH  18  20
ENDBRANCH   9  18
ENDBRANCH   4   7
BRANCH   1  23
ATOM     23  S   UNL     1      -6.611  52.957  51.345  0.00  0.00    +0.000 S 
ATOM     24  O   UNL     1      -6.179  54.310  51.641  0.00  0.00    +0.000 OA
ATOM     25  O   UNL     1      -5.717  52.061  50.639  0.00  0.00    +0.000 OA
BRANCH  23  26
ATOM     26  C   UNL     1      -7.110  52.156  52.871  0.00  0.00    +0.000 A 
ATOM     27  N   UNL     1      -8.259  51.426  52.790  0.00  0.00    +0.000 NA
ATOM     28  C   UNL     1      -6.347  52.302  54.026  0.00  0.00    +0.000 A 
ATOM     29  C   UNL     1      -8.631  50.790  53.927  0.00  0.00    +0.000 A 
ATOM     30  C   UNL     1      -6.779  51.644  55.174  0.00  0.00    +0.000 A 
ATOM     31  C   UNL     1      -7.938  50.864  55.136  0.00  0.00    +0.000 A 
ATOM     32  C   UNL     1      -8.413  50.145  56.361  0.00  0.00    +0.000 C 
ENDBRANCH  23  26
ENDBRANCH   1  23
TORSDOF 6
ENDMDL
MODEL 5
REMARK VINA RESULT:      -6.8      3.947      7.633
REMARK  Name = 
REMARK  10 active torsions:
REMARK  status: ('A' for Active; 'I' for Inactive)
REMARK    1  A    between atoms: S_1  and  N_4
REMARK    2  A    between atoms: S_1  and  C_5
REMARK    3  A    between atoms: N_10  and  C_13
REMARK    4  A    between atoms: C_14  and  C_17
REMARK    5  A    between atoms: C_16  and  C_20
REMARK    6  A    between atoms: C_20  and  O_24
REMARK    7  A    between atoms: O_24  and  C_27
REMARK    8  A    between atoms: C_25  and  C_28
REMARK    9  A    between atoms: C_25  and  C_29
REMARK   10  A    between atoms: C_27  and  C_30
REMARK                            x       y       z     vdW  Elec       q    Type
REMARK                         _______ _______ _______ _____ _____    ______ ____
ROOT
ATOM      1  N   UNL     1     -14.441  55.052  51.165  0.00  0.00    +0.000 N 
ATOM      2  C   UNL     1     -13.103  55.220  51.490  0.00  0.00    +0.000 C 
ATOM      3  O   UNL     1     -12.715  56.261  52.009  0.00  0.00    +0.000 OA
ATOM      4  N   UNL     1     -12.282  54.171  51.148  0.00  0.00    +0.000 N 
ATOM      5  H   UNL     1     -14.739  54.178  50.821  0.00  0.00    +0.000 HD
ATOM      6  H   UNL     1     -12.633  53.376  50.686  0.00  0.00    +0.000 HD
ENDROOT
BRANCH   4   7
ATOM      7  C   UNL     1     -10.939  54.278  51.482  0.00  0.00    +0.000 A 
ATOM      8  S   UNL     1     -10.523  53.737  53.038  0.00  0.00    +0.000 S 
ATOM      9  C   UNL     1      -9.857  54.755  50.758  0.00  0.00    +0.000 A 
ATOM     10  C   UNL     1      -8.856  53.861  52.688  0.00  0.00    +0.000 A 
ATOM     11  C   UNL     1      -8.629  54.408  51.437  0.00  0.00    +0.000 A 
ATOM     12  C   UNL     1      -7.780  53.425  53.657  0.00  0.00    +0.000 C 
ATOM     13  C   UNL     1      -7.241  54.667  50.927  0.00  0.00    +0.000 C 
ATOM     14  C   UNL     1      -6.401  54.054  53.284  0.00  0.00    +0.000 C 
ATOM     15  C   UNL     1      -6.180  53.933  51.750  0.00  0.00    +0.000 C 
ATOM     16  C   UNL     1      -5.249  53.309  53.985  0.00  0.00    +0.000 C 
ATOM     17  C   UNL     1      -6.350  55.527  53.740  0.00  0.00    +0.000 C 
BRANCH   9  18
ATOM     18  C   UNL     1      -9.954  55.557  49.527  0.00  0.00    +0.000 C 
ATOM     19  O   UNL     1      -9.720  56.760  49.485  0.00  0.00    +0.000 OA
BRANCH  18  20
ATOM     20  O   UNL     1     -10.487  54.847  48.493  0.00  0.00    +0.000 OA
BRANCH  20  21
ATOM     21  C   UNL     1     -10.632  55.496  47.229  0.00  0.00    +0.000 C 
ATOM     22  C   UNL     1     -12.080  55.863  46.984  0.00  0.00    +0.000 C 
ENDBRANCH  20  21
ENDBRANCH  18  20
ENDBRANCH   9  18
ENDBRANCH   4   7
BRANCH   1  23
ATOM     23  S   UNL     1     -15.569  56.275  51.333  0.00  0.00    +0.000 S 
ATOM     24  O   UNL     1     -15.816  56.474  52.749  0.00  0.00    +0.000 OA
ATOM     25  O   UNL     1     -16.669  55.920  50.459  0.00  0.00    +0.000 OA
BRANCH  23  26
ATOM     26  C   UNL     1     -14.779  57.743  50.665  0.00  0.00    +0.000 A 
ATOM     27  N   UNL     1     -14.673  58.786  51.536  0.00  0.00    +0.000 NA
ATOM     28  C   UNL     1     -14.328  57.763  49.349  0.00  0.00    +0.000 A 
ATOM     29  C   UNL     1     -14.051  59.890  51.055  0.00  0.00    +0.000 A 
ATOM     30  C   UNL     1     -13.711  58.925  48.894  0.00  0.00    +0.000 A 
ATOM     31  C   UNL     1     -13.557  60.015  49.756  0.00  0.00    +0.000 A 
ATOM     32  C   UNL     1     -12.891  61.271  49.284  0.00  0.00    +0.000 C 
ENDBRANCH  23  26
ENDBRANCH   1  23
TORSDOF 6
ENDMDL
MODEL 6
REMARK VINA RESULT:      -6.7      3.913      8.145
REMARK  Name = 
REMARK  10 active torsions:
REMARK  status: ('A' for Active; 'I' for Inactive)
REMARK    1  A    between atoms: S_1  and  N_4
REMARK    2  A    between atoms: S_1  and  C_5
REMARK    3  A    between atoms: N_10  and  C_13
REMARK    4  A    between atoms: C_14  and  C_17
REMARK    5  A    between atoms: C_16  and  C_20
REMARK    6  A    between atoms: C_20  and  O_24
REMARK    7  A    between atoms: O_24  and  C_27
REMARK    8  A    between atoms: C_25  and  C_28
REMARK    9  A    between atoms: C_25  and  C_29
REMARK   10  A    between atoms: C_27  and  C_30
REMARK                            x       y       z     vdW  Elec       q    Type
REMARK                         _______ _______ _______ _____ _____    ______ ____
ROOT
ATOM      1  N   UNL     1     -11.574  56.796  48.843  0.00  0.00    +0.000 N 
ATOM      2  C   UNL     1     -10.610  55.959  49.386  0.00  0.00    +0.000 C 
ATOM      3  O   UNL     1     -10.923  54.862  49.840  0.00  0.00    +0.000 OA
ATOM      4  N   UNL     1      -9.335  56.472  49.407  0.00  0.00    +0.000 N 
ATOM      5  H   UNL     1     -11.285  57.635  48.417  0.00  0.00    +0.000 HD
ATOM      6  H   UNL     1      -9.143  57.379  49.077  0.00  0.00    +0.000 HD
ENDROOT
BRANCH   4   7
ATOM      7  C   UNL     1      -8.329  55.659  49.913  0.00  0.00    +0.000 A 
ATOM      8  S   UNL     1      -7.877  55.967  51.522  0.00  0.00    +0.000 S 
ATOM      9  C   UNL     1      -7.617  54.623  49.329  0.00  0.00    +0.000 A 
ATOM     10  C   UNL     1      -6.922  54.552  51.574  0.00  0.00    +0.000 A 
ATOM     11  C   UNL     1      -6.871  53.916  50.346  0.00  0.00    +0.000 A 
ATOM     12  C   UNL     1      -6.220  54.081  52.829  0.00  0.00    +0.000 C 
ATOM     13  C   UNL     1      -6.048  52.678  50.128  0.00  0.00    +0.000 C 
ATOM     14  C   UNL     1      -5.090  53.058  52.491  0.00  0.00    +0.000 C 
ATOM     15  C   UNL     1      -5.622  52.033  51.449  0.00  0.00    +0.000 C 
ATOM     16  C   UNL     1      -4.663  52.275  53.746  0.00  0.00    +0.000 C 
ATOM     17  C   UNL     1      -3.847  53.800  51.957  0.00  0.00    +0.000 C 
BRANCH   9  18
ATOM     18  C   UNL     1      -7.572  54.339  47.885  0.00  0.00    +0.000 C 
ATOM     19  O   UNL     1      -6.588  54.554  47.185  0.00  0.00    +0.000 OA
BRANCH  18  20
ATOM     20  O   UNL     1      -8.789  53.971  47.396  0.00  0.00    +0.000 OA
BRANCH  20  21
ATOM     21  C   UNL     1      -9.266  54.612  46.213  0.00  0.00    +0.000 C 
ATOM     22  C   UNL     1     -10.768  54.462  46.097  0.00  0.00    +0.000 C 
ENDBRANCH  20  21
ENDBRANCH  18  20
ENDBRANCH   9  18
ENDBRANCH   4   7
BRANCH   1  23
ATOM     23  S   UNL     1     -13.206  56.435  48.885  0.00  0.00    +0.000 S 
ATOM     24  O   UNL     1     -13.351  55.004  49.068  0.00  0.00    +0.000 OA
ATOM     25  O   UNL     1     -13.780  57.067  47.713  0.00  0.00    +0.000 OA
BRANCH  23  26
ATOM     26  C   UNL     1     -13.841  57.278  50.337  0.00  0.00    +0.000 A 
ATOM     27  N   UNL     1     -14.305  58.540  50.115  0.00  0.00    +0.000 NA
ATOM     28  C   UNL     1     -13.836  56.645  51.577  0.00  0.00    +0.000 A 
ATOM     29  C   UNL     1     -14.815  59.176  51.196  0.00  0.00    +0.000 A 
ATOM     30  C   UNL     1     -14.355  57.345  52.662  0.00  0.00    +0.000 A 
ATOM     31  C   UNL     1     -14.865  58.635  52.481  0.00  0.00    +0.000 A 
ATOM     32  C   UNL     1     -15.432  59.400  53.637  0.00  0.00    +0.000 C 
ENDBRANCH  23  26
ENDBRANCH   1  23
TORSDOF 6
ENDMDL
MODEL 7
REMARK VINA RESULT:      -6.5      3.697      8.027
REMARK  Name = 
REMARK  10 active torsions:
REMARK  status: ('A' for Active; 'I' for Inactive)
REMARK    1  A    between atoms: S_1  and  N_4
REMARK    2  A    between atoms: S_1  and  C_5
REMARK    3  A    between atoms: N_10  and  C_13
REMARK    4  A    between atoms: C_14  and  C_17
REMARK    5  A    between atoms: C_16  and  C_20
REMARK    6  A    between atoms: C_20  and  O_24
REMARK    7  A    between atoms: O_24  and  C_27
REMARK    8  A    between atoms: C_25  and  C_28
REMARK    9  A    between atoms: C_25  and  C_29
REMARK   10  A    between atoms: C_27  and  C_30
REMARK                            x       y       z     vdW  Elec       q    Type
REMARK                         _______ _______ _______ _____ _____    ______ ____
ROOT
ATOM      1  N   UNL     1     -12.934  55.482  49.237  0.00  0.00    +0.000 N 
ATOM      2  C   UNL     1     -11.807  55.297  50.025  0.00  0.00    +0.000 C 
ATOM      3  O   UNL     1     -11.304  56.243  50.624  0.00  0.00    +0.000 OA
ATOM      4  N   UNL     1     -11.302  54.018  50.032  0.00  0.00    +0.000 N 
ATOM      5  H   UNL     1     -13.361  54.693  48.830  0.00  0.00    +0.000 HD
ATOM      6  H   UNL     1     -11.711  53.303  49.493  0.00  0.00    +0.000 HD
ENDROOT
BRANCH   4   7
ATOM      7  C   UNL     1     -10.193  53.776  50.830  0.00  0.00    +0.000 A 
ATOM      8  S   UNL     1     -10.526  53.268  52.418  0.00  0.00    +0.000 S 
ATOM      9  C   UNL     1      -8.836  53.874  50.558  0.00  0.00    +0.000 A 
ATOM     10  C   UNL     1      -8.883  52.897  52.696  0.00  0.00    +0.000 A 
ATOM     11  C   UNL     1      -8.082  53.257  51.625  0.00  0.00    +0.000 A 
ATOM     12  C   UNL     1      -8.391  52.260  53.976  0.00  0.00    +0.000 C 
ATOM     13  C   UNL     1      -6.592  53.079  51.657  0.00  0.00    +0.000 C 
ATOM     14  C   UNL     1      -6.850  52.450  54.142  0.00  0.00    +0.000 C 
ATOM     15  C   UNL     1      -6.148  52.149  52.788  0.00  0.00    +0.000 C 
ATOM     16  C   UNL     1      -6.285  51.474  55.193  0.00  0.00    +0.000 C 
ATOM     17  C   UNL     1      -6.542  53.883  54.623  0.00  0.00    +0.000 C 
BRANCH   9  18
ATOM     18  C   UNL     1      -8.259  54.569  49.396  0.00  0.00    +0.000 C 
ATOM     19  O   UNL     1      -7.449  55.486  49.491  0.00  0.00    +0.000 OA
BRANCH  18  20
ATOM     20  O   UNL     1      -8.846  54.190  48.226  0.00  0.00    +0.000 OA
BRANCH  20  21
ATOM     21  C   UNL     1      -8.991  55.165  47.193  0.00  0.00    +0.000 C 
ATOM     22  C   UNL     1     -10.403  55.155  46.648  0.00  0.00    +0.000 C 
ENDBRANCH  20  21
ENDBRANCH  18  20
ENDBRANCH   9  18
ENDBRANCH   4   7
BRANCH   1  23
ATOM     23  S   UNL     1     -13.596  56.991  48.952  0.00  0.00    +0.000 S 
ATOM     24  O   UNL     1     -14.694  56.836  48.018  0.00  0.00    +0.000 OA
ATOM     25  O   UNL     1     -12.482  57.852  48.609  0.00  0.00    +0.000 OA
BRANCH  23  26
ATOM     26  C   UNL     1     -14.247  57.529  50.536  0.00  0.00    +0.000 A 
ATOM     27  N   UNL     1     -14.920  56.574  51.237  0.00  0.00    +0.000 NA
ATOM     28  C   UNL     1     -14.053  58.838  50.969  0.00  0.00    +0.000 A 
ATOM     29  C   UNL     1     -15.390  56.958  52.449  0.00  0.00    +0.000 A 
ATOM     30  C   UNL     1     -14.570  59.191  52.213  0.00  0.00    +0.000 A 
ATOM     31  C   UNL     1     -15.248  58.239  52.981  0.00  0.00    +0.000 A 
ATOM     32  C   UNL     1     -15.805  58.601  54.324  0.00  0.00    +0.000 C 
ENDBRANCH  23  26
ENDBRANCH   1  23
TORSDOF 6
ENDMDL
MODEL 8
REMARK VINA RESULT:      -6.5      3.865      7.595
REMARK  Name = 
REMARK  10 active torsions:
REMARK  status: ('A' for Active; 'I' for Inactive)
REMARK    1  A    between atoms: S_1  and  N_4
REMARK    2  A    between atoms: S_1  and  C_5
REMARK    3  A    between atoms: N_10  and  C_13
REMARK    4  A    between atoms: C_14  and  C_17
REMARK    5  A    between atoms: C_16  and  C_20
REMARK    6  A    between atoms: C_20  and  O_24
REMARK    7  A    between atoms: O_24  and  C_27
REMARK    8  A    between atoms: C_25  and  C_28
REMARK    9  A    between atoms: C_25  and  C_29
REMARK   10  A    between atoms: C_27  and  C_30
REMARK                            x       y       z     vdW  Elec       q    Type
REMARK                         _______ _______ _______ _____ _____    ______ ____
ROOT
ATOM      1  N   UNL     1      -8.017  55.935  50.666  0.00  0.00    +0.000 N 
ATOM      2  C   UNL     1      -8.419  55.117  49.619  0.00  0.00    +0.000 C 
ATOM      3  O   UNL     1      -8.730  53.949  49.827  0.00  0.00    +0.000 OA
ATOM      4  N   UNL     1      -8.394  55.703  48.376  0.00  0.00    +0.000 N 
ATOM      5  H   UNL     1      -7.848  56.888  50.483  0.00  0.00    +0.000 HD
ATOM      6  H   UNL     1      -8.087  56.631  48.254  0.00  0.00    +0.000 HD
ENDROOT
BRANCH   4   7
ATOM      7  C   UNL     1      -8.818  54.935  47.301  0.00  0.00    +0.000 A 
ATOM      8  S   UNL     1      -7.589  54.133  46.442  0.00  0.00    +0.000 S 
ATOM      9  C   UNL     1     -10.087  54.700  46.794  0.00  0.00    +0.000 A 
ATOM     10  C   UNL     1      -8.734  53.233  45.550  0.00  0.00    +0.000 A 
ATOM     11  C   UNL     1     -10.033  53.620  45.835  0.00  0.00    +0.000 A 
ATOM     12  C   UNL     1      -8.342  52.154  44.566  0.00  0.00    +0.000 C 
ATOM     13  C   UNL     1     -11.212  53.009  45.134  0.00  0.00    +0.000 C 
ATOM     14  C   UNL     1      -9.518  51.827  43.593  0.00  0.00    +0.000 C 
ATOM     15  C   UNL     1     -10.840  51.716  44.404  0.00  0.00    +0.000 C 
ATOM     16  C   UNL     1      -9.288  50.479  42.883  0.00  0.00    +0.000 C 
ATOM     17  C   UNL     1      -9.623  52.916  42.505  0.00  0.00    +0.000 C 
BRANCH   9  18
ATOM     18  C   UNL     1     -11.286  55.485  47.128  0.00  0.00    +0.000 C 
ATOM     19  O   UNL     1     -11.976  56.055  46.289  0.00  0.00    +0.000 OA
BRANCH  18  20
ATOM     20  O   UNL     1     -11.441  55.638  48.473  0.00  0.00    +0.000 OA
BRANCH  20  21
ATOM     21  C   UNL     1     -12.220  54.672  49.180  0.00  0.00    +0.000 C 
ATOM     22  C   UNL     1     -12.963  55.325  50.325  0.00  0.00    +0.000 C 
ENDBRANCH  20  21
ENDBRANCH  18  20
ENDBRANCH   9  18
ENDBRANCH   4   7
BRANCH   1  23
ATOM     23  S   UNL     1      -7.808  55.366  52.224  0.00  0.00    +0.000 S 
ATOM     24  O   UNL     1      -9.063  54.793  52.671  0.00  0.00    +0.000 OA
ATOM     25  O   UNL     1      -7.218  56.461  52.968  0.00  0.00    +0.000 OA
BRANCH  23  26
ATOM     26  C   UNL     1      -6.583  54.060  52.091  0.00  0.00    +0.000 A 
ATOM     27  N   UNL     1      -6.982  52.846  52.567  0.00  0.00    +0.000 NA
ATOM     28  C   UNL     1      -5.333  54.320  51.537  0.00  0.00    +0.000 A 
ATOM     29  C   UNL     1      -6.079  51.844  52.444  0.00  0.00    +0.000 A 
ATOM     30  C   UNL     1      -4.433  53.262  51.448  0.00  0.00    +0.000 A 
ATOM     31  C   UNL     1      -4.802  51.992  51.901  0.00  0.00    +0.000 A 
ATOM     32  C   UNL     1      -3.847  50.842  51.807  0.00  0.00    +0.000 C 
ENDBRANCH  23  26
ENDBRANCH   1  23
TORSDOF 6
ENDMDL
MODEL 9
REMARK VINA RESULT:      -6.5      3.555      7.817
REMARK  Name = 
REMARK  10 active torsions:
REMARK  status: ('A' for Active; 'I' for Inactive)
REMARK    1  A    between atoms: S_1  and  N_4
REMARK    2  A    between atoms: S_1  and  C_5
REMARK    3  A    between atoms: N_10  and  C_13
REMARK    4  A    between atoms: C_14  and  C_17
REMARK    5  A    between atoms: C_16  and  C_20
REMARK    6  A    between atoms: C_20  and  O_24
REMARK    7  A    between atoms: O_24  and  C_27
REMARK    8  A    between atoms: C_25  and  C_28
REMARK    9  A    between atoms: C_25  and  C_29
REMARK   10  A    between atoms: C_27  and  C_30
REMARK                            x       y       z     vdW  Elec       q    Type
REMARK                         _______ _______ _______ _____ _____    ______ ____
ROOT
ATOM      1  N   UNL     1      -7.722  56.269  50.078  0.00  0.00    +0.000 N 
ATOM      2  C   UNL     1      -8.079  55.332  49.119  0.00  0.00    +0.000 C 
ATOM      3  O   UNL     1      -7.984  54.132  49.356  0.00  0.00    +0.000 OA
ATOM      4  N   UNL     1      -8.488  55.854  47.915  0.00  0.00    +0.000 N 
ATOM      5  H   UNL     1      -7.881  57.223  49.890  0.00  0.00    +0.000 HD
ATOM      6  H   UNL     1      -8.498  56.826  47.755  0.00  0.00    +0.000 HD
ENDROOT
BRANCH   4   7
ATOM      7  C   UNL     1      -8.885  54.958  46.933  0.00  0.00    +0.000 A 
ATOM      8  S   UNL     1      -7.631  54.281  46.006  0.00  0.00    +0.000 S 
ATOM      9  C   UNL     1     -10.144  54.506  46.568  0.00  0.00    +0.000 A 
ATOM     10  C   UNL     1      -8.702  53.163  45.286  0.00  0.00    +0.000 A 
ATOM     11  C   UNL     1     -10.014  53.378  45.673  0.00  0.00    +0.000 A 
ATOM     12  C   UNL     1      -8.241  52.083  44.333  0.00  0.00    +0.000 C 
ATOM     13  C   UNL     1     -11.145  52.555  45.129  0.00  0.00    +0.000 C 
ATOM     14  C   UNL     1      -9.437  51.521  43.500  0.00  0.00    +0.000 C 
ATOM     15  C   UNL     1     -10.650  51.280  44.443  0.00  0.00    +0.000 C 
ATOM     16  C   UNL     1      -9.070  50.173  42.851  0.00  0.00    +0.000 C 
ATOM     17  C   UNL     1      -9.799  52.502  42.366  0.00  0.00    +0.000 C 
BRANCH   9  18
ATOM     18  C   UNL     1     -11.413  55.132  46.972  0.00  0.00    +0.000 C 
ATOM     19  O   UNL     1     -12.078  55.851  46.233  0.00  0.00    +0.000 OA
BRANCH  18  20
ATOM     20  O   UNL     1     -11.673  54.956  48.298  0.00  0.00    +0.000 OA
BRANCH  20  21
ATOM     21  C   UNL     1     -12.241  53.714  48.718  0.00  0.00    +0.000 C 
ATOM     22  C   UNL     1     -11.351  53.044  49.743  0.00  0.00    +0.000 C 
ENDBRANCH  20  21
ENDBRANCH  18  20
ENDBRANCH   9  18
ENDBRANCH   4   7
BRANCH   1  23
ATOM     23  S   UNL     1      -7.033  55.843  51.541  0.00  0.00    +0.000 S 
ATOM     24  O   UNL     1      -6.878  57.045  52.338  0.00  0.00    +0.000 OA
ATOM     25  O   UNL     1      -5.867  55.048  51.211  0.00  0.00    +0.000 OA
BRANCH  23  26
ATOM     26  C   UNL     1      -8.232  54.768  52.334  0.00  0.00    +0.000 A 
ATOM     27  N   UNL     1      -7.730  53.589  52.800  0.00  0.00    +0.000 NA
ATOM     28  C   UNL     1      -9.566  55.155  52.439  0.00  0.00    +0.000 A 
ATOM     29  C   UNL     1      -8.618  52.781  53.428  0.00  0.00    +0.000 A 
ATOM     30  C   UNL     1     -10.444  54.284  53.077  0.00  0.00    +0.000 A 
ATOM     31  C   UNL     1      -9.972  53.073  53.593  0.00  0.00    +0.000 A 
ATOM     32  C   UNL     1     -10.903  52.127  54.288  0.00  0.00    +0.000 C 
ENDBRANCH  23  26
ENDBRANCH   1  23
TORSDOF 6
ENDMDL
