MODEL 1
REMARK VINA RESULT:      -7.8      0.000      0.000
REMARK  Name = 
REMARK  9 active torsions:
REMARK  status: ('A' for Active; 'I' for Inactive)
REMARK    1  A    between atoms: S_1  and  N_4
REMARK    2  A    between atoms: S_1  and  C_5
REMARK    3  A    between atoms: N_10  and  C_13
REMARK    4  A    between atoms: C_16  and  C_19
REMARK    5  A    between atoms: C_19  and  O_23
REMARK    6  A    between atoms: O_23  and  C_26
REMARK    7  A    between atoms: C_24  and  C_27
REMARK    8  A    between atoms: C_24  and  C_28
REMARK    9  A    between atoms: C_26  and  C_29
REMARK                            x       y       z     vdW  Elec       q    Type
REMARK                         _______ _______ _______ _____ _____    ______ ____
ROOT
ATOM      1  C   UNL     1     -10.935  54.398  51.437  0.00  0.00    +0.000 A 
ATOM      2  S   UNL     1     -10.559  53.785  52.978  0.00  0.00    +0.000 S 
ATOM      3  C   UNL     1      -9.828  54.882  50.756  0.00  0.00    +0.000 A 
ATOM      4  C   UNL     1      -8.884  53.885  52.665  0.00  0.00    +0.000 A 
ATOM      5  C   UNL     1      -8.624  54.483  51.446  0.00  0.00    +0.000 A 
ATOM      6  C   UNL     1      -7.834  53.382  53.631  0.00  0.00    +0.000 C 
ATOM      7  C   UNL     1      -7.220  54.736  50.972  0.00  0.00    +0.000 C 
ATOM      8  C   UNL     1      -6.435  53.995  53.309  0.00  0.00    +0.000 C 
ATOM      9  C   UNL     1      -6.189  53.943  51.778  0.00  0.00    +0.000 C 
ATOM     10  C   UNL     1      -5.309  53.194  53.992  0.00  0.00    +0.000 C 
ATOM     11  C   UNL     1      -6.360  55.445  53.833  0.00  0.00    +0.000 C 
ENDROOT
BRANCH   1  15
ATOM     12  N   UNL     1     -14.425  55.214  51.095  0.00  0.00    +0.000 N 
ATOM     13  C   UNL     1     -13.096  55.380  51.455  0.00  0.00    +0.000 C 
ATOM     14  O   UNL     1     -12.708  56.397  52.008  0.00  0.00    +0.000 OA
ATOM     15  N   UNL     1     -12.270  54.332  51.083  0.00  0.00    +0.000 N 
ATOM     16  H   UNL     1     -14.709  54.356  50.702  0.00  0.00    +0.000 HD
ATOM     17  H   UNL     1     -12.624  53.563  50.581  0.00  0.00    +0.000 HD
BRANCH  12  18
ATOM     18  S   UNL     1     -15.560  56.419  51.305  0.00  0.00    +0.000 S 
ATOM     19  O   UNL     1     -15.639  56.740  52.723  0.00  0.00    +0.000 OA
ATOM     20  O   UNL     1     -16.747  55.980  50.602  0.00  0.00    +0.000 OA
BRANCH  18  21
ATOM     21  C   UNL     1     -14.887  57.835  50.422  0.00  0.00    +0.000 A 
ATOM     22  N   UNL     1     -14.349  57.531  49.211  0.00  0.00    +0.000 NA
ATOM     23  C   UNL     1     -14.940  59.107  50.975  0.00  0.00    +0.000 A 
ATOM     24  C   UNL     1     -13.870  58.583  48.506  0.00  0.00    +0.000 A 
ATOM     25  C   UNL     1     -14.418  60.155  50.227  0.00  0.00    +0.000 A 
ATOM     26  C   UNL     1     -13.884  59.894  48.965  0.00  0.00    +0.000 A 
ENDBRANCH  18  21
ENDBRANCH  12  18
ENDBRANCH   1  15
BRANCH   3  27
ATOM     27  C   UNL     1      -9.871  55.735  49.556  0.00  0.00    +0.000 C 
ATOM     28  O   UNL     1      -9.572  56.925  49.567  0.00  0.00    +0.000 OA
BRANCH  27  29
ATOM     29  O   UNL     1     -10.430  55.103  48.485  0.00  0.00    +0.000 OA
BRANCH  29  30
ATOM     30  C   UNL     1     -11.524  55.750  47.830  0.00  0.00    +0.000 C 
ATOM     31  C   UNL     1     -11.710  55.214  46.427  0.00  0.00    +0.000 C 
ENDBRANCH  29  30
ENDBRANCH  27  29
ENDBRANCH   3  27
TORSDOF 6
ENDMDL
MODEL 2
REMARK VINA RESULT:      -7.5      2.796      7.694
REMARK  Name = 
REMARK  9 active torsions:
REMARK  status: ('A' for Active; 'I' for Inactive)
REMARK    1  A    between atoms: S_1  and  N_4
REMARK    2  A    between atoms: S_1  and  C_5
REMARK    3  A    between atoms: N_10  and  C_13
REMARK    4  A    between atoms: C_16  and  C_19
REMARK    5  A    between atoms: C_19  and  O_23
REMARK    6  A    between atoms: O_23  and  C_26
REMARK    7  A    between atoms: C_24  and  C_27
REMARK    8  A    between atoms: C_24  and  C_28
REMARK    9  A    between atoms: C_26  and  C_29
REMARK                            x       y       z     vdW  Elec       q    Type
REMARK                         _______ _______ _______ _____ _____    ______ ____
ROOT
ATOM      1  C   UNL     1     -11.006  54.800  50.112  0.00  0.00    +0.000 A 
ATOM      2  S   UNL     1     -11.714  54.784  51.658  0.00  0.00    +0.000 S 
ATOM      3  C   UNL     1     -11.613  55.692  49.241  0.00  0.00    +0.000 A 
ATOM      4  C   UNL     1     -12.657  56.160  51.296  0.00  0.00    +0.000 A 
ATOM      5  C   UNL     1     -12.510  56.551  49.978  0.00  0.00    +0.000 A 
ATOM      6  C   UNL     1     -13.544  56.841  52.314  0.00  0.00    +0.000 C 
ATOM      7  C   UNL     1     -13.284  57.705  49.404  0.00  0.00    +0.000 C 
ATOM      8  C   UNL     1     -14.600  57.755  51.615  0.00  0.00    +0.000 C 
ATOM      9  C   UNL     1     -13.911  58.577  50.495  0.00  0.00    +0.000 C 
ATOM     10  C   UNL     1     -15.216  58.753  52.616  0.00  0.00    +0.000 C 
ATOM     11  C   UNL     1     -15.749  56.897  51.046  0.00  0.00    +0.000 C 
ENDROOT
BRANCH   1  15
ATOM     12  N   UNL     1      -7.659  53.476  50.014  0.00  0.00    +0.000 N 
ATOM     13  C   UNL     1      -8.672  54.393  50.254  0.00  0.00    +0.000 C 
ATOM     14  O   UNL     1      -8.438  55.485  50.748  0.00  0.00    +0.000 OA
ATOM     15  N   UNL     1      -9.941  53.935  49.940  0.00  0.00    +0.000 N 
ATOM     16  H   UNL     1      -7.880  52.629  49.563  0.00  0.00    +0.000 HD
ATOM     17  H   UNL     1     -10.079  53.020  49.603  0.00  0.00    +0.000 HD
BRANCH  12  18
ATOM     18  S   UNL     1      -6.077  53.760  50.466  0.00  0.00    +0.000 S 
ATOM     19  O   UNL     1      -5.687  55.078  49.985  0.00  0.00    +0.000 OA
ATOM     20  O   UNL     1      -5.326  52.593  50.052  0.00  0.00    +0.000 OA
BRANCH  18  21
ATOM     21  C   UNL     1      -6.116  53.782  52.264  0.00  0.00    +0.000 A 
ATOM     22  N   UNL     1      -5.692  54.950  52.816  0.00  0.00    +0.000 NA
ATOM     23  C   UNL     1      -6.552  52.675  52.979  0.00  0.00    +0.000 A 
ATOM     24  C   UNL     1      -5.748  55.011  54.168  0.00  0.00    +0.000 A 
ATOM     25  C   UNL     1      -6.573  52.772  54.365  0.00  0.00    +0.000 A 
ATOM     26  C   UNL     1      -6.176  53.963  54.973  0.00  0.00    +0.000 A 
ENDBRANCH  18  21
ENDBRANCH  12  18
ENDBRANCH   1  15
BRANCH   3  27
ATOM     27  C   UNL     1     -11.432  55.713  47.780  0.00  0.00    +0.000 C 
ATOM     28  O   UNL     1     -12.364  55.627  46.986  0.00  0.00    +0.000 OA
BRANCH  27  29
ATOM     29  O   UNL     1     -10.118  55.676  47.415  0.00  0.00    +0.000 OA
BRANCH  29  30
ATOM     30  C   UNL     1      -9.726  54.694  46.454  0.00  0.00    +0.000 C 
ATOM     31  C   UNL     1      -8.299  54.919  46.000  0.00  0.00    +0.000 C 
ENDBRANCH  29  30
ENDBRANCH  27  29
ENDBRANCH   3  27
TORSDOF 6
ENDMDL
MODEL 3
REMARK VINA RESULT:      -7.1      3.455      5.875
REMARK  Name = 
REMARK  9 active torsions:
REMARK  status: ('A' for Active; 'I' for Inactive)
REMARK    1  A    between atoms: S_1  and  N_4
REMARK    2  A    between atoms: S_1  and  C_5
REMARK    3  A    between atoms: N_10  and  C_13
REMARK    4  A    between atoms: C_16  and  C_19
REMARK    5  A    between atoms: C_19  and  O_23
REMARK    6  A    between atoms: O_23  and  C_26
REMARK    7  A    between atoms: C_24  and  C_27
REMARK    8  A    between atoms: C_24  and  C_28
REMARK    9  A    between atoms: C_26  and  C_29
REMARK                            x       y       z     vdW  Elec       q    Type
REMARK                         _______ _______ _______ _____ _____    ______ ____
ROOT
ATOM      1  C   UNL     1     -10.780  53.788  47.580  0.00  0.00    +0.000 A 
ATOM      2  S   UNL     1     -11.741  52.721  46.668  0.00  0.00    +0.000 S 
ATOM      3  C   UNL     1      -9.462  53.840  47.151  0.00  0.00    +0.000 A 
ATOM      4  C   UNL     1     -10.505  52.519  45.508  0.00  0.00    +0.000 A 
ATOM      5  C   UNL     1      -9.342  53.170  45.877  0.00  0.00    +0.000 A 
ATOM      6  C   UNL     1     -10.688  51.709  44.243  0.00  0.00    +0.000 C 
ATOM      7  C   UNL     1      -8.093  53.091  45.045  0.00  0.00    +0.000 C 
ATOM      8  C   UNL     1      -9.309  51.326  43.619  0.00  0.00    +0.000 C 
ATOM      9  C   UNL     1      -8.373  52.563  43.635  0.00  0.00    +0.000 C 
ATOM     10  C   UNL     1      -9.471  50.882  42.152  0.00  0.00    +0.000 C 
ATOM     11  C   UNL     1      -8.685  50.149  44.396  0.00  0.00    +0.000 C 
ENDROOT
BRANCH   1  15
ATOM     12  N   UNL     1     -12.688  56.238  49.403  0.00  0.00    +0.000 N 
ATOM     13  C   UNL     1     -12.093  55.626  48.309  0.00  0.00    +0.000 C 
ATOM     14  O   UNL     1     -12.201  56.088  47.184  0.00  0.00    +0.000 OA
ATOM     15  N   UNL     1     -11.434  54.444  48.607  0.00  0.00    +0.000 N 
ATOM     16  H   UNL     1     -12.530  55.865  50.301  0.00  0.00    +0.000 HD
ATOM     17  H   UNL     1     -11.432  54.083  49.522  0.00  0.00    +0.000 HD
BRANCH  12  18
ATOM     18  S   UNL     1     -13.662  57.584  49.247  0.00  0.00    +0.000 S 
ATOM     19  O   UNL     1     -14.722  57.281  48.296  0.00  0.00    +0.000 OA
ATOM     20  O   UNL     1     -12.770  58.698  48.998  0.00  0.00    +0.000 OA
BRANCH  18  21
ATOM     21  C   UNL     1     -14.387  57.811  50.878  0.00  0.00    +0.000 A 
ATOM     22  N   UNL     1     -14.959  56.690  51.394  0.00  0.00    +0.000 NA
ATOM     23  C   UNL     1     -14.338  59.045  51.511  0.00  0.00    +0.000 A 
ATOM     24  C   UNL     1     -15.478  56.821  52.638  0.00  0.00    +0.000 A 
ATOM     25  C   UNL     1     -14.902  59.140  52.778  0.00  0.00    +0.000 A 
ATOM     26  C   UNL     1     -15.472  58.008  53.359  0.00  0.00    +0.000 A 
ENDBRANCH  18  21
ENDBRANCH  12  18
ENDBRANCH   1  15
BRANCH   3  27
ATOM     27  C   UNL     1      -8.341  54.421  47.909  0.00  0.00    +0.000 C 
ATOM     28  O   UNL     1      -7.350  53.778  48.240  0.00  0.00    +0.000 OA
BRANCH  27  29
ATOM     29  O   UNL     1      -8.600  55.690  48.335  0.00  0.00    +0.000 OA
BRANCH  29  30
ATOM     30  C   UNL     1      -8.045  56.094  49.589  0.00  0.00    +0.000 C 
ATOM     31  C   UNL     1      -9.093  56.064  50.681  0.00  0.00    +0.000 C 
ENDBRANCH  29  30
ENDBRANCH  27  29
ENDBRANCH   3  27
TORSDOF 6
ENDMDL
MODEL 4
REMARK VINA RESULT:      -7.1      3.930      7.378
REMARK  Name = 
REMARK  9 active torsions:
REMARK  status: ('A' for Active; 'I' for Inactive)
REMARK    1  A    between atoms: S_1  and  N_4
REMARK    2  A    between atoms: S_1  and  C_5
REMARK    3  A    between atoms: N_10  and  C_13
REMARK    4  A    between atoms: C_16  and  C_19
REMARK    5  A    between atoms: C_19  and  O_23
REMARK    6  A    between atoms: O_23  and  C_26
REMARK    7  A    between atoms: C_24  and  C_27
REMARK    8  A    between atoms: C_24  and  C_28
REMARK    9  A    between atoms: C_26  and  C_29
REMARK                            x       y       z     vdW  Elec       q    Type
REMARK                         _______ _______ _______ _____ _____    ______ ____
ROOT
ATOM      1  C   UNL     1     -11.358  54.632  49.910  0.00  0.00    +0.000 A 
ATOM      2  S   UNL     1     -12.094  54.588  51.443  0.00  0.00    +0.000 S 
ATOM      3  C   UNL     1     -11.828  55.661  49.108  0.00  0.00    +0.000 A 
ATOM      4  C   UNL     1     -12.845  56.098  51.183  0.00  0.00    +0.000 A 
ATOM      5  C   UNL     1     -12.623  56.569  49.902  0.00  0.00    +0.000 A 
ATOM      6  C   UNL     1     -13.659  56.806  52.243  0.00  0.00    +0.000 C 
ATOM      7  C   UNL     1     -13.230  57.854  49.415  0.00  0.00    +0.000 C 
ATOM      8  C   UNL     1     -14.575  57.901  51.609  0.00  0.00    +0.000 C 
ATOM      9  C   UNL     1     -13.763  58.712  50.565  0.00  0.00    +0.000 C 
ATOM     10  C   UNL     1     -15.078  58.888  52.680  0.00  0.00    +0.000 C 
ATOM     11  C   UNL     1     -15.812  57.245  50.961  0.00  0.00    +0.000 C 
ENDROOT
BRANCH   1  15
ATOM     12  N   UNL     1      -9.807  51.550  48.881  0.00  0.00    +0.000 N 
ATOM     13  C   UNL     1     -10.811  52.495  49.036  0.00  0.00    +0.000 C 
ATOM     14  O   UNL     1     -11.932  52.312  48.586  0.00  0.00    +0.000 OA
ATOM     15  N   UNL     1     -10.409  53.653  49.680  0.00  0.00    +0.000 N 
ATOM     16  H   UNL     1      -8.933  51.710  49.306  0.00  0.00    +0.000 HD
ATOM     17  H   UNL     1      -9.475  53.774  49.966  0.00  0.00    +0.000 HD
BRANCH  12  18
ATOM     18  S   UNL     1     -10.031  50.152  47.997  0.00  0.00    +0.000 S 
ATOM     19  O   UNL     1     -11.296  49.551  48.393  0.00  0.00    +0.000 OA
ATOM     20  O   UNL     1      -8.804  49.395  48.127  0.00  0.00    +0.000 OA
BRANCH  18  21
ATOM     21  C   UNL     1     -10.158  50.709  46.291  0.00  0.00    +0.000 A 
ATOM     22  N   UNL     1     -11.414  50.646  45.776  0.00  0.00    +0.000 NA
ATOM     23  C   UNL     1      -9.036  51.158  45.605  0.00  0.00    +0.000 A 
ATOM     24  C   UNL     1     -11.547  51.097  44.506  0.00  0.00    +0.000 A 
ATOM     25  C   UNL     1      -9.215  51.590  44.297  0.00  0.00    +0.000 A 
ATOM     26  C   UNL     1     -10.492  51.572  43.739  0.00  0.00    +0.000 A 
ENDBRANCH  18  21
ENDBRANCH  12  18
ENDBRANCH   1  15
BRANCH   3  27
ATOM     27  C   UNL     1     -11.616  55.774  47.655  0.00  0.00    +0.000 C 
ATOM     28  O   UNL     1     -12.533  55.779  46.841  0.00  0.00    +0.000 OA
BRANCH  27  29
ATOM     29  O   UNL     1     -10.297  55.707  47.313  0.00  0.00    +0.000 OA
BRANCH  29  30
ATOM     30  C   UNL     1      -9.923  54.770  46.300  0.00  0.00    +0.000 C 
ATOM     31  C   UNL     1      -8.442  54.862  45.997  0.00  0.00    +0.000 C 
ENDBRANCH  29  30
ENDBRANCH  27  29
ENDBRANCH   3  27
TORSDOF 6
ENDMDL
MODEL 5
REMARK VINA RESULT:      -7.0      4.041      7.527
REMARK  Name = 
REMARK  9 active torsions:
REMARK  status: ('A' for Active; 'I' for Inactive)
REMARK    1  A    between atoms: S_1  and  N_4
REMARK    2  A    between atoms: S_1  and  C_5
REMARK    3  A    between atoms: N_10  and  C_13
REMARK    4  A    between atoms: C_16  and  C_19
REMARK    5  A    between atoms: C_19  and  O_23
REMARK    6  A    between atoms: O_23  and  C_26
REMARK    7  A    between atoms: C_24  and  C_27
REMARK    8  A    between atoms: C_24  and  C_28
REMARK    9  A    between atoms: C_26  and  C_29
REMARK                            x       y       z     vdW  Elec       q    Type
REMARK                         _______ _______ _______ _____ _____    ______ ____
ROOT
ATOM      1  C   UNL     1      -8.670  54.942  47.204  0.00  0.00    +0.000 A 
ATOM      2  S   UNL     1      -7.458  54.176  46.289  0.00  0.00    +0.000 S 
ATOM      3  C   UNL     1      -9.952  54.670  46.750  0.00  0.00    +0.000 A 
ATOM      4  C   UNL     1      -8.612  53.241  45.448  0.00  0.00    +0.000 A 
ATOM      5  C   UNL     1      -9.905  53.595  45.786  0.00  0.00    +0.000 A 
ATOM      6  C   UNL     1      -8.233  52.170  44.449  0.00  0.00    +0.000 C 
ATOM      7  C   UNL     1     -11.097  52.952  45.135  0.00  0.00    +0.000 C 
ATOM      8  C   UNL     1      -9.442  51.810  43.528  0.00  0.00    +0.000 C 
ATOM      9  C   UNL     1     -10.724  51.668  44.390  0.00  0.00    +0.000 C 
ATOM     10  C   UNL     1      -9.209  50.466  42.811  0.00  0.00    +0.000 C 
ATOM     11  C   UNL     1      -9.621  52.893  42.443  0.00  0.00    +0.000 C 
ENDROOT
BRANCH   1  15
ATOM     12  N   UNL     1      -7.599  55.958  50.488  0.00  0.00    +0.000 N 
ATOM     13  C   UNL     1      -8.015  55.101  49.480  0.00  0.00    +0.000 C 
ATOM     14  O   UNL     1      -8.134  53.901  49.673  0.00  0.00    +0.000 OA
ATOM     15  N   UNL     1      -8.218  55.717  48.256  0.00  0.00    +0.000 N 
ATOM     16  H   UNL     1      -7.570  56.926  50.308  0.00  0.00    +0.000 HD
ATOM     17  H   UNL     1      -8.045  56.679  48.140  0.00  0.00    +0.000 HD
BRANCH  12  18
ATOM     18  S   UNL     1      -7.147  55.403  51.996  0.00  0.00    +0.000 S 
ATOM     19  O   UNL     1      -7.004  56.546  52.887  0.00  0.00    +0.000 OA
ATOM     20  O   UNL     1      -6.022  54.518  51.777  0.00  0.00    +0.000 OA
BRANCH  18  21
ATOM     21  C   UNL     1      -8.538  54.404  52.547  0.00  0.00    +0.000 A 
ATOM     22  N   UNL     1      -8.191  53.173  53.008  0.00  0.00    +0.000 NA
ATOM     23  C   UNL     1      -9.835  54.896  52.487  0.00  0.00    +0.000 A 
ATOM     24  C   UNL     1      -9.213  52.413  53.468  0.00  0.00    +0.000 A 
ATOM     25  C   UNL     1     -10.856  54.075  52.948  0.00  0.00    +0.000 A 
ATOM     26  C   UNL     1     -10.542  52.816  53.459  0.00  0.00    +0.000 A 
ENDBRANCH  18  21
ENDBRANCH  12  18
ENDBRANCH   1  15
BRANCH   3  27
ATOM     27  C   UNL     1     -11.167  55.410  47.132  0.00  0.00    +0.000 C 
ATOM     28  O   UNL     1     -11.885  55.985  46.321  0.00  0.00    +0.000 OA
BRANCH  27  29
ATOM     29  O   UNL     1     -11.309  55.518  48.484  0.00  0.00    +0.000 OA
BRANCH  29  30
ATOM     30  C   UNL     1     -12.403  54.826  49.092  0.00  0.00    +0.000 C 
ATOM     31  C   UNL     1     -12.020  53.402  49.433  0.00  0.00    +0.000 C 
ENDBRANCH  29  30
ENDBRANCH  27  29
ENDBRANCH   3  27
TORSDOF 6
ENDMDL
MODEL 6
REMARK VINA RESULT:      -6.9      3.210      8.127
REMARK  Name = 
REMARK  9 active torsions:
REMARK  status: ('A' for Active; 'I' for Inactive)
REMARK    1  A    between atoms: S_1  and  N_4
REMARK    2  A    between atoms: S_1  and  C_5
REMARK    3  A    between atoms: N_10  and  C_13
REMARK    4  A    between atoms: C_16  and  C_19
REMARK    5  A    between atoms: C_19  and  O_23
REMARK    6  A    between atoms: O_23  and  C_26
REMARK    7  A    between atoms: C_24  and  C_27
REMARK    8  A    between atoms: C_24  and  C_28
REMARK    9  A    between atoms: C_26  and  C_29
REMARK                            x       y       z     vdW  Elec       q    Type
REMARK                         _______ _______ _______ _____ _____    ______ ____
ROOT
ATOM      1  C   UNL     1     -11.177  55.044  50.076  0.00  0.00    +0.000 A 
ATOM      2  S   UNL     1     -11.755  55.001  51.675  0.00  0.00    +0.000 S 
ATOM      3  C   UNL     1     -11.889  55.911  49.261  0.00  0.00    +0.000 A 
ATOM      4  C   UNL     1     -12.777  56.339  51.397  0.00  0.00    +0.000 A 
ATOM      5  C   UNL     1     -12.755  56.735  50.072  0.00  0.00    +0.000 A 
ATOM      6  C   UNL     1     -13.603  56.985  52.486  0.00  0.00    +0.000 C 
ATOM      7  C   UNL     1     -13.617  57.858  49.567  0.00  0.00    +0.000 C 
ATOM      8  C   UNL     1     -14.748  57.857  51.880  0.00  0.00    +0.000 C 
ATOM      9  C   UNL     1     -14.186  58.705  50.708  0.00  0.00    +0.000 C 
ATOM     10  C   UNL     1     -15.317  58.831  52.930  0.00  0.00    +0.000 C 
ATOM     11  C   UNL     1     -15.905  56.954  51.405  0.00  0.00    +0.000 C 
ENDROOT
BRANCH   1  15
ATOM     12  N   UNL     1      -7.801  53.852  49.696  0.00  0.00    +0.000 N 
ATOM     13  C   UNL     1      -8.826  54.729  50.021  0.00  0.00    +0.000 C 
ATOM     14  O   UNL     1      -8.594  55.831  50.494  0.00  0.00    +0.000 OA
ATOM     15  N   UNL     1     -10.098  54.221  49.814  0.00  0.00    +0.000 N 
ATOM     16  H   UNL     1      -8.027  52.996  49.264  0.00  0.00    +0.000 HD
ATOM     17  H   UNL     1     -10.228  53.301  49.490  0.00  0.00    +0.000 HD
BRANCH  12  18
ATOM     18  S   UNL     1      -6.200  54.199  50.013  0.00  0.00    +0.000 S 
ATOM     19  O   UNL     1      -6.020  54.282  51.455  0.00  0.00    +0.000 OA
ATOM     20  O   UNL     1      -5.864  55.336  49.180  0.00  0.00    +0.000 OA
BRANCH  18  21
ATOM     21  C   UNL     1      -5.295  52.773  49.392  0.00  0.00    +0.000 A 
ATOM     22  N   UNL     1      -5.399  52.589  48.049  0.00  0.00    +0.000 NA
ATOM     23  C   UNL     1      -4.567  51.964  50.254  0.00  0.00    +0.000 A 
ATOM     24  C   UNL     1      -4.696  51.546  47.548  0.00  0.00    +0.000 A 
ATOM     25  C   UNL     1      -3.878  50.893  49.700  0.00  0.00    +0.000 A 
ATOM     26  C   UNL     1      -3.931  50.684  48.323  0.00  0.00    +0.000 A 
ENDBRANCH  18  21
ENDBRANCH  12  18
ENDBRANCH   1  15
BRANCH   3  27
ATOM     27  C   UNL     1     -11.830  55.940  47.790  0.00  0.00    +0.000 C 
ATOM     28  O   UNL     1     -12.818  56.099  47.081  0.00  0.00    +0.000 OA
BRANCH  27  29
ATOM     29  O   UNL     1     -10.597  55.610  47.310  0.00  0.00    +0.000 OA
BRANCH  29  30
ATOM     30  C   UNL     1     -10.527  54.597  46.304  0.00  0.00    +0.000 C 
ATOM     31  C   UNL     1      -9.097  54.364  45.867  0.00  0.00    +0.000 C 
ENDBRANCH  29  30
ENDBRANCH  27  29
ENDBRANCH   3  27
TORSDOF 6
ENDMDL
MODEL 7
REMARK VINA RESULT:      -6.7      2.427      3.188
REMARK  Name = 
REMARK  9 active torsions:
REMARK  status: ('A' for Active; 'I' for Inactive)
REMARK    1  A    between atoms: S_1  and  N_4
REMARK    2  A    between atoms: S_1  and  C_5
REMARK    3  A    between atoms: N_10  and  C_13
REMARK    4  A    between atoms: C_16  and  C_19
REMARK    5  A    between atoms: C_19  and  O_23
REMARK    6  A    between atoms: O_23  and  C_26
REMARK    7  A    between atoms: C_24  and  C_27
REMARK    8  A    between atoms: C_24  and  C_28
REMARK    9  A    between atoms: C_26  and  C_29
REMARK                            x       y       z     vdW  Elec       q    Type
REMARK                         _______ _______ _______ _____ _____    ______ ____
ROOT
ATOM      1  C   UNL     1     -10.064  54.889  50.725  0.00  0.00    +0.000 A 
ATOM      2  S   UNL     1      -9.974  54.966  52.422  0.00  0.00    +0.000 S 
ATOM      3  C   UNL     1      -9.611  53.684  50.208  0.00  0.00    +0.000 A 
ATOM      4  C   UNL     1      -9.602  53.304  52.529  0.00  0.00    +0.000 A 
ATOM      5  C   UNL     1      -9.440  52.732  51.281  0.00  0.00    +0.000 A 
ATOM      6  C   UNL     1      -9.462  52.576  53.847  0.00  0.00    +0.000 C 
ATOM      7  C   UNL     1      -9.052  51.290  51.116  0.00  0.00    +0.000 C 
ATOM      8  C   UNL     1      -8.694  51.228  53.664  0.00  0.00    +0.000 C 
ATOM      9  C   UNL     1      -9.234  50.493  52.410  0.00  0.00    +0.000 C 
ATOM     10  C   UNL     1      -8.907  50.302  54.878  0.00  0.00    +0.000 C 
ATOM     11  C   UNL     1      -7.179  51.495  53.541  0.00  0.00    +0.000 C 
ENDROOT
BRANCH   1  15
ATOM     12  N   UNL     1     -12.352  57.260  49.273  0.00  0.00    +0.000 N 
ATOM     13  C   UNL     1     -11.937  56.114  49.937  0.00  0.00    +0.000 C 
ATOM     14  O   UNL     1     -12.741  55.303  50.369  0.00  0.00    +0.000 OA
ATOM     15  N   UNL     1     -10.566  56.019  50.106  0.00  0.00    +0.000 N 
ATOM     16  H   UNL     1     -11.671  57.861  48.890  0.00  0.00    +0.000 HD
ATOM     17  H   UNL     1      -9.967  56.735  49.793  0.00  0.00    +0.000 HD
BRANCH  12  18
ATOM     18  S   UNL     1     -13.964  57.653  49.100  0.00  0.00    +0.000 S 
ATOM     19  O   UNL     1     -14.654  56.524  48.491  0.00  0.00    +0.000 OA
ATOM     20  O   UNL     1     -13.995  58.947  48.452  0.00  0.00    +0.000 OA
BRANCH  18  21
ATOM     21  C   UNL     1     -14.563  57.864  50.784  0.00  0.00    +0.000 A 
ATOM     22  N   UNL     1     -15.250  56.795  51.268  0.00  0.00    +0.000 NA
ATOM     23  C   UNL     1     -14.314  59.037  51.484  0.00  0.00    +0.000 A 
ATOM     24  C   UNL     1     -15.679  56.910  52.548  0.00  0.00    +0.000 A 
ATOM     25  C   UNL     1     -14.790  59.120  52.786  0.00  0.00    +0.000 A 
ATOM     26  C   UNL     1     -15.474  58.036  53.335  0.00  0.00    +0.000 A 
ENDBRANCH  18  21
ENDBRANCH  12  18
ENDBRANCH   1  15
BRANCH   3  27
ATOM     27  C   UNL     1      -9.283  53.432  48.795  0.00  0.00    +0.000 C 
ATOM     28  O   UNL     1      -9.827  52.562  48.124  0.00  0.00    +0.000 OA
BRANCH  27  29
ATOM     29  O   UNL     1      -8.208  54.156  48.371  0.00  0.00    +0.000 OA
BRANCH  29  30
ATOM     30  C   UNL     1      -8.447  55.214  47.439  0.00  0.00    +0.000 C 
ATOM     31  C   UNL     1      -8.176  54.758  46.021  0.00  0.00    +0.000 C 
ENDBRANCH  29  30
ENDBRANCH  27  29
ENDBRANCH   3  27
TORSDOF 6
ENDMDL
MODEL 8
REMARK VINA RESULT:      -6.6      1.219      1.503
REMARK  Name = 
REMARK  9 active torsions:
REMARK  status: ('A' for Active; 'I' for Inactive)
REMARK    1  A    between atoms: S_1  and  N_4
REMARK    2  A    between atoms: S_1  and  C_5
REMARK    3  A    between atoms: N_10  and  C_13
REMARK    4  A    between atoms: C_16  and  C_19
REMARK    5  A    between atoms: C_19  and  O_23
REMARK    6  A    between atoms: O_23  and  C_26
REMARK    7  A    between atoms: C_24  and  C_27
REMARK    8  A    between atoms: C_24  and  C_28
REMARK    9  A    between atoms: C_26  and  C_29
REMARK                            x       y       z     vdW  Elec       q    Type
REMARK                         _______ _______ _______ _____ _____    ______ ____
ROOT
ATOM      1  C   UNL     1     -11.005  53.787  51.371  0.00  0.00    +0.000 A 
ATOM      2  S   UNL     1     -10.313  53.757  52.925  0.00  0.00    +0.000 S 
ATOM      3  C   UNL     1     -10.097  53.498  50.363  0.00  0.00    +0.000 A 
ATOM      4  C   UNL     1      -8.865  53.083  52.323  0.00  0.00    +0.000 A 
ATOM      5  C   UNL     1      -8.876  52.990  50.944  0.00  0.00    +0.000 A 
ATOM      6  C   UNL     1      -7.721  52.658  53.217  0.00  0.00    +0.000 C 
ATOM      7  C   UNL     1      -7.689  52.480  50.176  0.00  0.00    +0.000 C 
ATOM      8  C   UNL     1      -6.397  52.512  52.402  0.00  0.00    +0.000 C 
ATOM      9  C   UNL     1      -6.687  51.756  51.078  0.00  0.00    +0.000 C 
ATOM     10  C   UNL     1      -5.352  51.696  53.188  0.00  0.00    +0.000 C 
ATOM     11  C   UNL     1      -5.790  53.903  52.125  0.00  0.00    +0.000 C 
ENDROOT
BRANCH   1  15
ATOM     12  N   UNL     1     -14.129  55.532  51.770  0.00  0.00    +0.000 N 
ATOM     13  C   UNL     1     -12.758  55.324  51.814  0.00  0.00    +0.000 C 
ATOM     14  O   UNL     1     -11.994  56.194  52.206  0.00  0.00    +0.000 OA
ATOM     15  N   UNL     1     -12.353  54.092  51.328  0.00  0.00    +0.000 N 
ATOM     16  H   UNL     1     -14.715  54.787  51.501  0.00  0.00    +0.000 HD
ATOM     17  H   UNL     1     -13.006  53.453  50.965  0.00  0.00    +0.000 HD
BRANCH  12  18
ATOM     18  S   UNL     1     -14.818  57.002  52.157  0.00  0.00    +0.000 S 
ATOM     19  O   UNL     1     -14.105  57.563  53.296  0.00  0.00    +0.000 OA
ATOM     20  O   UNL     1     -16.244  56.765  52.248  0.00  0.00    +0.000 OA
BRANCH  18  21
ATOM     21  C   UNL     1     -14.521  58.037  50.716  0.00  0.00    +0.000 A 
ATOM     22  N   UNL     1     -14.250  57.342  49.578  0.00  0.00    +0.000 NA
ATOM     23  C   UNL     1     -14.576  59.421  50.811  0.00  0.00    +0.000 A 
ATOM     24  C   UNL     1     -14.061  58.094  48.468  0.00  0.00    +0.000 A 
ATOM     25  C   UNL     1     -14.355  60.154  49.652  0.00  0.00    +0.000 A 
ATOM     26  C   UNL     1     -14.105  59.482  48.456  0.00  0.00    +0.000 A 
ENDBRANCH  18  21
ENDBRANCH  12  18
ENDBRANCH   1  15
BRANCH   3  27
ATOM     27  C   UNL     1     -10.313  53.740  48.926  0.00  0.00    +0.000 C 
ATOM     28  O   UNL     1     -10.073  52.904  48.061  0.00  0.00    +0.000 OA
BRANCH  27  29
ATOM     29  O   UNL     1     -10.648  55.035  48.659  0.00  0.00    +0.000 OA
BRANCH  29  30
ATOM     30  C   UNL     1     -11.896  55.273  48.004  0.00  0.00    +0.000 C 
ATOM     31  C   UNL     1     -11.684  55.637  46.550  0.00  0.00    +0.000 C 
ENDBRANCH  29  30
ENDBRANCH  27  29
ENDBRANCH   3  27
TORSDOF 6
ENDMDL
MODEL 9
REMARK VINA RESULT:      -6.3      4.364      6.595
REMARK  Name = 
REMARK  9 active torsions:
REMARK  status: ('A' for Active; 'I' for Inactive)
REMARK    1  A    between atoms: S_1  and  N_4
REMARK    2  A    between atoms: S_1  and  C_5
REMARK    3  A    between atoms: N_10  and  C_13
REMARK    4  A    between atoms: C_16  and  C_19
REMARK    5  A    between atoms: C_19  and  O_23
REMARK    6  A    between atoms: O_23  and  C_26
REMARK    7  A    between atoms: C_24  and  C_27
REMARK    8  A    between atoms: C_24  and  C_28
REMARK    9  A    between atoms: C_26  and  C_29
REMARK                            x       y       z     vdW  Elec       q    Type
REMARK                         _______ _______ _______ _____ _____    ______ ____
ROOT
ATOM      1  C   UNL     1      -7.244  54.585  48.662  0.00  0.00    +0.000 A 
ATOM      2  S   UNL     1      -5.707  54.146  49.243  0.00  0.00    +0.000 S 
ATOM      3  C   UNL     1      -8.148  54.874  49.673  0.00  0.00    +0.000 A 
ATOM      4  C   UNL     1      -6.121  54.603  50.834  0.00  0.00    +0.000 A 
ATOM      5  C   UNL     1      -7.448  54.978  50.932  0.00  0.00    +0.000 A 
ATOM      6  C   UNL     1      -5.134  54.580  51.980  0.00  0.00    +0.000 C 
ATOM      7  C   UNL     1      -8.065  55.368  52.246  0.00  0.00    +0.000 C 
ATOM      8  C   UNL     1      -5.873  54.603  53.356  0.00  0.00    +0.000 C 
ATOM      9  C   UNL     1      -7.009  55.659  53.314  0.00  0.00    +0.000 C 
ATOM     10  C   UNL     1      -4.910  54.997  54.494  0.00  0.00    +0.000 C 
ATOM     11  C   UNL     1      -6.430  53.202  53.681  0.00  0.00    +0.000 C 
ENDROOT
BRANCH   1  15
ATOM     12  N   UNL     1      -7.837  53.501  45.280  0.00  0.00    +0.000 N 
ATOM     13  C   UNL     1      -7.767  53.417  46.663  0.00  0.00    +0.000 C 
ATOM     14  O   UNL     1      -8.076  52.395  47.255  0.00  0.00    +0.000 OA
ATOM     15  N   UNL     1      -7.377  54.592  47.286  0.00  0.00    +0.000 N 
ATOM     16  H   UNL     1      -7.525  54.323  44.836  0.00  0.00    +0.000 HD
ATOM     17  H   UNL     1      -7.201  55.406  46.763  0.00  0.00    +0.000 HD
BRANCH  12  18
ATOM     18  S   UNL     1      -8.433  52.255  44.343  0.00  0.00    +0.000 S 
ATOM     19  O   UNL     1      -7.640  51.061  44.600  0.00  0.00    +0.000 OA
ATOM     20  O   UNL     1      -8.530  52.777  42.996  0.00  0.00    +0.000 OA
BRANCH  18  21
ATOM     21  C   UNL     1     -10.104  51.988  44.954  0.00  0.00    +0.000 A 
ATOM     22  N   UNL     1     -10.305  50.763  45.509  0.00  0.00    +0.000 NA
ATOM     23  C   UNL     1     -11.068  52.981  44.845  0.00  0.00    +0.000 A 
ATOM     24  C   UNL     1     -11.543  50.547  46.013  0.00  0.00    +0.000 A 
ATOM     25  C   UNL     1     -12.331  52.710  45.356  0.00  0.00    +0.000 A 
ATOM     26  C   UNL     1     -12.573  51.478  45.962  0.00  0.00    +0.000 A 
ENDBRANCH  18  21
ENDBRANCH  12  18
ENDBRANCH   1  15
BRANCH   3  27
ATOM     27  C   UNL     1      -9.607  54.984  49.506  0.00  0.00    +0.000 C 
ATOM     28  O   UNL     1     -10.404  54.229  50.052  0.00  0.00    +0.000 OA
BRANCH  27  29
ATOM     29  O   UNL     1      -9.957  55.903  48.560  0.00  0.00    +0.000 OA
BRANCH  29  30
ATOM     30  C   UNL     1     -10.793  55.463  47.487  0.00  0.00    +0.000 C 
ATOM     31  C   UNL     1     -12.204  55.985  47.649  0.00  0.00    +0.000 C 
ENDBRANCH  29  30
ENDBRANCH  27  29
ENDBRANCH   3  27
TORSDOF 6
ENDMDL
