MODEL 1
REMARK VINA RESULT:      -7.6      0.000      0.000
REMARK  Name = 
REMARK  9 active torsions:
REMARK  status: ('A' for Active; 'I' for Inactive)
REMARK    1  A    between atoms: S_1  and  N_4
REMARK    2  A    between atoms: S_1  and  N_5
REMARK    3  A    between atoms: N_12  and  C_14
REMARK    4  A    between atoms: C_16  and  C_19
REMARK    5  A    between atoms: C_19  and  O_23
REMARK    6  A    between atoms: O_23  and  C_26
REMARK    7  A    between atoms: C_24  and  C_27
REMARK    8  A    between atoms: C_24  and  C_28
REMARK    9  A    between atoms: C_26  and  C_29
REMARK                            x       y       z     vdW  Elec       q    Type
REMARK                         _______ _______ _______ _____ _____    ______ ____
ROOT
ATOM      1  C   UNL     1     -10.999  54.387  51.667  0.00  0.00    +0.000 A 
ATOM      2  S   UNL     1     -10.534  53.782  53.184  0.00  0.00    +0.000 S 
ATOM      3  C   UNL     1      -9.937  54.840  50.906  0.00  0.00    +0.000 A 
ATOM      4  C   UNL     1      -8.880  53.881  52.768  0.00  0.00    +0.000 A 
ATOM      5  C   UNL     1      -8.689  54.452  51.520  0.00  0.00    +0.000 A 
ATOM      6  C   UNL     1      -7.773  53.395  53.674  0.00  0.00    +0.000 C 
ATOM      7  C   UNL     1      -7.318  54.685  50.955  0.00  0.00    +0.000 C 
ATOM      8  C   UNL     1      -6.402  54.022  53.267  0.00  0.00    +0.000 C 
ATOM      9  C   UNL     1      -6.232  53.938  51.730  0.00  0.00    +0.000 C 
ATOM     10  C   UNL     1      -5.234  53.250  53.907  0.00  0.00    +0.000 C 
ATOM     11  C   UNL     1      -6.323  55.486  53.749  0.00  0.00    +0.000 C 
ENDROOT
BRANCH   1  15
ATOM     12  N   UNL     1     -14.467  55.245  51.295  0.00  0.00    +0.000 N 
ATOM     13  C   UNL     1     -13.126  55.407  51.642  0.00  0.00    +0.000 C 
ATOM     14  O   UNL     1     -12.683  56.465  52.081  0.00  0.00    +0.000 OA
ATOM     15  N   UNL     1     -12.348  54.301  51.360  0.00  0.00    +0.000 N 
ATOM     16  H   UNL     1     -14.770  54.375  50.947  0.00  0.00    +0.000 HD
ATOM     17  H   UNL     1     -12.734  53.490  50.959  0.00  0.00    +0.000 HD
BRANCH  12  18
ATOM     18  S   UNL     1     -15.572  56.485  51.453  0.00  0.00    +0.000 S 
ATOM     19  O   UNL     1     -16.728  56.081  50.688  0.00  0.00    +0.000 OA
ATOM     20  O   UNL     1     -15.695  56.833  52.849  0.00  0.00    +0.000 OA
BRANCH  18  21
ATOM     21  N   UNL     1     -14.751  57.697  50.600  0.00  0.00    +0.000 NA
ATOM     22  C   UNL     1     -14.676  57.495  49.134  0.00  0.00    +0.000 C 
ATOM     23  C   UNL     1     -15.056  59.089  51.006  0.00  0.00    +0.000 C 
ATOM     24  C   UNL     1     -13.662  58.452  48.513  0.00  0.00    +0.000 C 
ATOM     25  C   UNL     1     -14.044  60.054  50.388  0.00  0.00    +0.000 C 
ATOM     26  C   UNL     1     -13.978  59.898  48.874  0.00  0.00    +0.000 C 
ENDBRANCH  18  21
ENDBRANCH  12  18
ENDBRANCH   1  15
BRANCH   3  27
ATOM     27  C   UNL     1     -10.121  55.581  49.656  0.00  0.00    +0.000 C 
ATOM     28  O   UNL     1      -9.821  56.763  49.525  0.00  0.00    +0.000 OA
BRANCH  27  29
ATOM     29  O   UNL     1     -10.659  54.809  48.674  0.00  0.00    +0.000 OA
BRANCH  29  30
ATOM     30  C   UNL     1     -11.843  55.295  48.037  0.00  0.00    +0.000 C 
ATOM     31  C   UNL     1     -11.578  55.492  46.559  0.00  0.00    +0.000 C 
ENDBRANCH  29  30
ENDBRANCH  27  29
ENDBRANCH   3  27
TORSDOF 6
ENDMDL
MODEL 2
REMARK VINA RESULT:      -7.4      2.822      7.652
REMARK  Name = 
REMARK  9 active torsions:
REMARK  status: ('A' for Active; 'I' for Inactive)
REMARK    1  A    between atoms: S_1  and  N_4
REMARK    2  A    between atoms: S_1  and  N_5
REMARK    3  A    between atoms: N_12  and  C_14
REMARK    4  A    between atoms: C_16  and  C_19
REMARK    5  A    between atoms: C_19  and  O_23
REMARK    6  A    between atoms: O_23  and  C_26
REMARK    7  A    between atoms: C_24  and  C_27
REMARK    8  A    between atoms: C_24  and  C_28
REMARK    9  A    between atoms: C_26  and  C_29
REMARK                            x       y       z     vdW  Elec       q    Type
REMARK                         _______ _______ _______ _____ _____    ______ ____
ROOT
ATOM      1  C   UNL     1     -11.117  54.868  50.129  0.00  0.00    +0.000 A 
ATOM      2  S   UNL     1     -11.711  54.896  51.720  0.00  0.00    +0.000 S 
ATOM      3  C   UNL     1     -11.775  55.739  49.280  0.00  0.00    +0.000 A 
ATOM      4  C   UNL     1     -12.699  56.247  51.375  0.00  0.00    +0.000 A 
ATOM      5  C   UNL     1     -12.636  56.612  50.040  0.00  0.00    +0.000 A 
ATOM      6  C   UNL     1     -13.532  56.945  52.424  0.00  0.00    +0.000 C 
ATOM      7  C   UNL     1     -13.452  57.745  49.489  0.00  0.00    +0.000 C 
ATOM      8  C   UNL     1     -14.655  57.807  51.763  0.00  0.00    +0.000 C 
ATOM      9  C   UNL     1     -14.057  58.619  50.588  0.00  0.00    +0.000 C 
ATOM     10  C   UNL     1     -15.241  58.811  52.772  0.00  0.00    +0.000 C 
ATOM     11  C   UNL     1     -15.803  56.899  51.276  0.00  0.00    +0.000 C 
ENDROOT
BRANCH   1  15
ATOM     12  N   UNL     1      -7.749  53.630  49.981  0.00  0.00    +0.000 N 
ATOM     13  C   UNL     1      -8.785  54.527  50.237  0.00  0.00    +0.000 C 
ATOM     14  O   UNL     1      -8.599  55.609  50.787  0.00  0.00    +0.000 OA
ATOM     15  N   UNL     1     -10.031  54.038  49.895  0.00  0.00    +0.000 N 
ATOM     16  H   UNL     1      -7.953  52.774  49.539  0.00  0.00    +0.000 HD
ATOM     17  H   UNL     1     -10.142  53.142  49.505  0.00  0.00    +0.000 HD
BRANCH  12  18
ATOM     18  S   UNL     1      -6.170  53.966  50.406  0.00  0.00    +0.000 S 
ATOM     19  O   UNL     1      -5.403  52.807  50.015  0.00  0.00    +0.000 OA
ATOM     20  O   UNL     1      -5.821  55.281  49.922  0.00  0.00    +0.000 OA
BRANCH  18  21
ATOM     21  N   UNL     1      -6.332  53.968  52.093  0.00  0.00    +0.000 NA
ATOM     22  C   UNL     1      -6.830  52.701  52.679  0.00  0.00    +0.000 C 
ATOM     23  C   UNL     1      -5.218  54.588  52.846  0.00  0.00    +0.000 C 
ATOM     24  C   UNL     1      -7.237  52.909  54.135  0.00  0.00    +0.000 C 
ATOM     25  C   UNL     1      -5.619  54.800  54.305  0.00  0.00    +0.000 C 
ATOM     26  C   UNL     1      -6.094  53.503  54.948  0.00  0.00    +0.000 C 
ENDBRANCH  18  21
ENDBRANCH  12  18
ENDBRANCH   1  15
BRANCH   3  27
ATOM     27  C   UNL     1     -11.564  55.736  47.830  0.00  0.00    +0.000 C 
ATOM     28  O   UNL     1     -12.484  55.726  47.018  0.00  0.00    +0.000 OA
BRANCH  27  29
ATOM     29  O   UNL     1     -10.246  55.747  47.501  0.00  0.00    +0.000 OA
BRANCH  29  30
ATOM     30  C   UNL     1      -9.827  54.863  46.458  0.00  0.00    +0.000 C 
ATOM     31  C   UNL     1      -8.326  54.963  46.281  0.00  0.00    +0.000 C 
ENDBRANCH  29  30
ENDBRANCH  27  29
ENDBRANCH   3  27
TORSDOF 6
ENDMDL
MODEL 3
REMARK VINA RESULT:      -7.1      3.562      5.978
REMARK  Name = 
REMARK  9 active torsions:
REMARK  status: ('A' for Active; 'I' for Inactive)
REMARK    1  A    between atoms: S_1  and  N_4
REMARK    2  A    between atoms: S_1  and  N_5
REMARK    3  A    between atoms: N_12  and  C_14
REMARK    4  A    between atoms: C_16  and  C_19
REMARK    5  A    between atoms: C_19  and  O_23
REMARK    6  A    between atoms: O_23  and  C_26
REMARK    7  A    between atoms: C_24  and  C_27
REMARK    8  A    between atoms: C_24  and  C_28
REMARK    9  A    between atoms: C_26  and  C_29
REMARK                            x       y       z     vdW  Elec       q    Type
REMARK                         _______ _______ _______ _____ _____    ______ ____
ROOT
ATOM      1  C   UNL     1     -11.143  53.709  47.501  0.00  0.00    +0.000 A 
ATOM      2  S   UNL     1     -12.066  52.656  46.540  0.00  0.00    +0.000 S 
ATOM      3  C   UNL     1      -9.817  53.786  47.117  0.00  0.00    +0.000 A 
ATOM      4  C   UNL     1     -10.777  52.462  45.435  0.00  0.00    +0.000 A 
ATOM      5  C   UNL     1      -9.633  53.126  45.846  0.00  0.00    +0.000 A 
ATOM      6  C   UNL     1     -10.898  51.655  44.163  0.00  0.00    +0.000 C 
ATOM      7  C   UNL     1      -8.355  53.066  45.061  0.00  0.00    +0.000 C 
ATOM      8  C   UNL     1      -9.490  51.266  43.612  0.00  0.00    +0.000 C 
ATOM      9  C   UNL     1      -8.560  52.505  43.653  0.00  0.00    +0.000 C 
ATOM     10  C   UNL     1      -9.583  50.804  42.146  0.00  0.00    +0.000 C 
ATOM     11  C   UNL     1      -8.897  50.107  44.438  0.00  0.00    +0.000 C 
ENDROOT
BRANCH   1  15
ATOM     12  N   UNL     1     -12.919  56.298  49.246  0.00  0.00    +0.000 N 
ATOM     13  C   UNL     1     -12.227  55.684  48.203  0.00  0.00    +0.000 C 
ATOM     14  O   UNL     1     -12.064  56.224  47.112  0.00  0.00    +0.000 OA
ATOM     15  N   UNL     1     -11.830  54.393  48.492  0.00  0.00    +0.000 N 
ATOM     16  H   UNL     1     -13.021  55.820  50.101  0.00  0.00    +0.000 HD
ATOM     17  H   UNL     1     -12.026  53.978  49.363  0.00  0.00    +0.000 HD
BRANCH  12  18
ATOM     18  S   UNL     1     -13.580  57.822  49.084  0.00  0.00    +0.000 S 
ATOM     19  O   UNL     1     -12.467  58.740  49.137  0.00  0.00    +0.000 OA
ATOM     20  O   UNL     1     -14.488  57.825  47.962  0.00  0.00    +0.000 OA
BRANCH  18  21
ATOM     21  N   UNL     1     -14.430  57.911  50.547  0.00  0.00    +0.000 NA
ATOM     22  C   UNL     1     -14.495  56.645  51.316  0.00  0.00    +0.000 C 
ATOM     23  C   UNL     1     -14.163  59.110  51.375  0.00  0.00    +0.000 C 
ATOM     24  C   UNL     1     -15.532  56.750  52.432  0.00  0.00    +0.000 C 
ATOM     25  C   UNL     1     -15.198  59.222  52.494  0.00  0.00    +0.000 C 
ATOM     26  C   UNL     1     -15.256  57.949  53.329  0.00  0.00    +0.000 C 
ENDBRANCH  18  21
ENDBRANCH  12  18
ENDBRANCH   1  15
BRANCH   3  27
ATOM     27  C   UNL     1      -8.803  54.474  47.918  0.00  0.00    +0.000 C 
ATOM     28  O   UNL     1      -8.754  55.694  48.039  0.00  0.00    +0.000 OA
BRANCH  27  29
ATOM     29  O   UNL     1      -7.934  53.607  48.504  0.00  0.00    +0.000 OA
BRANCH  29  30
ATOM     30  C   UNL     1      -7.801  53.678  49.926  0.00  0.00    +0.000 C 
ATOM     31  C   UNL     1      -8.953  52.944  50.580  0.00  0.00    +0.000 C 
ENDBRANCH  29  30
ENDBRANCH  27  29
ENDBRANCH   3  27
TORSDOF 6
ENDMDL
MODEL 4
REMARK VINA RESULT:      -7.0      4.116      7.542
REMARK  Name = 
REMARK  9 active torsions:
REMARK  status: ('A' for Active; 'I' for Inactive)
REMARK    1  A    between atoms: S_1  and  N_4
REMARK    2  A    between atoms: S_1  and  N_5
REMARK    3  A    between atoms: N_12  and  C_14
REMARK    4  A    between atoms: C_16  and  C_19
REMARK    5  A    between atoms: C_19  and  O_23
REMARK    6  A    between atoms: O_23  and  C_26
REMARK    7  A    between atoms: C_24  and  C_27
REMARK    8  A    between atoms: C_24  and  C_28
REMARK    9  A    between atoms: C_26  and  C_29
REMARK                            x       y       z     vdW  Elec       q    Type
REMARK                         _______ _______ _______ _____ _____    ______ ____
ROOT
ATOM      1  C   UNL     1      -8.685  54.940  47.162  0.00  0.00    +0.000 A 
ATOM      2  S   UNL     1      -7.467  54.177  46.257  0.00  0.00    +0.000 S 
ATOM      3  C   UNL     1      -9.964  54.635  46.732  0.00  0.00    +0.000 A 
ATOM      4  C   UNL     1      -8.618  53.228  45.423  0.00  0.00    +0.000 A 
ATOM      5  C   UNL     1      -9.918  53.557  45.773  0.00  0.00    +0.000 A 
ATOM      6  C   UNL     1      -8.236  52.160  44.424  0.00  0.00    +0.000 C 
ATOM      7  C   UNL     1     -11.104  52.889  45.140  0.00  0.00    +0.000 C 
ATOM      8  C   UNL     1      -9.444  51.802  43.501  0.00  0.00    +0.000 C 
ATOM      9  C   UNL     1     -10.719  51.630  44.363  0.00  0.00    +0.000 C 
ATOM     10  C   UNL     1      -9.196  50.471  42.767  0.00  0.00    +0.000 C 
ATOM     11  C   UNL     1      -9.644  52.901  42.437  0.00  0.00    +0.000 C 
ENDROOT
BRANCH   1  15
ATOM     12  N   UNL     1      -7.585  55.889  50.447  0.00  0.00    +0.000 N 
ATOM     13  C   UNL     1      -8.019  55.047  49.423  0.00  0.00    +0.000 C 
ATOM     14  O   UNL     1      -8.096  53.830  49.559  0.00  0.00    +0.000 OA
ATOM     15  N   UNL     1      -8.260  55.709  48.234  0.00  0.00    +0.000 N 
ATOM     16  H   UNL     1      -7.541  56.859  50.284  0.00  0.00    +0.000 HD
ATOM     17  H   UNL     1      -8.135  56.682  48.153  0.00  0.00    +0.000 HD
BRANCH  12  18
ATOM     18  S   UNL     1      -7.138  55.296  51.941  0.00  0.00    +0.000 S 
ATOM     19  O   UNL     1      -5.988  54.456  51.702  0.00  0.00    +0.000 OA
ATOM     20  O   UNL     1      -7.072  56.389  52.882  0.00  0.00    +0.000 OA
BRANCH  18  21
ATOM     21  N   UNL     1      -8.478  54.308  52.259  0.00  0.00    +0.000 NA
ATOM     22  C   UNL     1      -8.180  53.069  53.017  0.00  0.00    +0.000 C 
ATOM     23  C   UNL     1      -9.705  55.010  52.700  0.00  0.00    +0.000 C 
ATOM     24  C   UNL     1      -9.371  52.115  52.971  0.00  0.00    +0.000 C 
ATOM     25  C   UNL     1     -10.902  54.060  52.656  0.00  0.00    +0.000 C 
ATOM     26  C   UNL     1     -10.641  52.796  53.465  0.00  0.00    +0.000 C 
ENDBRANCH  18  21
ENDBRANCH  12  18
ENDBRANCH   1  15
BRANCH   3  27
ATOM     27  C   UNL     1     -11.151  55.331  47.234  0.00  0.00    +0.000 C 
ATOM     28  O   UNL     1     -11.845  56.064  46.537  0.00  0.00    +0.000 OA
BRANCH  27  29
ATOM     29  O   UNL     1     -11.385  55.067  48.547  0.00  0.00    +0.000 OA
BRANCH  29  30
ATOM     30  C   UNL     1     -12.348  54.053  48.847  0.00  0.00    +0.000 C 
ATOM     31  C   UNL     1     -11.636  52.801  49.315  0.00  0.00    +0.000 C 
ENDBRANCH  29  30
ENDBRANCH  27  29
ENDBRANCH   3  27
TORSDOF 6
ENDMDL
MODEL 5
REMARK VINA RESULT:      -7.0      2.069      2.430
REMARK  Name = 
REMARK  9 active torsions:
REMARK  status: ('A' for Active; 'I' for Inactive)
REMARK    1  A    between atoms: S_1  and  N_4
REMARK    2  A    between atoms: S_1  and  N_5
REMARK    3  A    between atoms: N_12  and  C_14
REMARK    4  A    between atoms: C_16  and  C_19
REMARK    5  A    between atoms: C_19  and  O_23
REMARK    6  A    between atoms: O_23  and  C_26
REMARK    7  A    between atoms: C_24  and  C_27
REMARK    8  A    between atoms: C_24  and  C_28
REMARK    9  A    between atoms: C_26  and  C_29
REMARK                            x       y       z     vdW  Elec       q    Type
REMARK                         _______ _______ _______ _____ _____    ______ ____
ROOT
ATOM      1  C   UNL     1     -11.356  53.360  50.439  0.00  0.00    +0.000 A 
ATOM      2  S   UNL     1     -10.767  52.196  51.527  0.00  0.00    +0.000 S 
ATOM      3  C   UNL     1     -10.475  53.652  49.414  0.00  0.00    +0.000 A 
ATOM      4  C   UNL     1      -9.423  51.872  50.522  0.00  0.00    +0.000 A 
ATOM      5  C   UNL     1      -9.385  52.705  49.416  0.00  0.00    +0.000 A 
ATOM      6  C   UNL     1      -8.409  50.793  50.827  0.00  0.00    +0.000 C 
ATOM      7  C   UNL     1      -8.272  52.639  48.411  0.00  0.00    +0.000 C 
ATOM      8  C   UNL     1      -7.086  51.030  50.032  0.00  0.00    +0.000 C 
ATOM      9  C   UNL     1      -7.423  51.376  48.561  0.00  0.00    +0.000 C 
ATOM     10  C   UNL     1      -6.217  49.759  50.023  0.00  0.00    +0.000 C 
ATOM     11  C   UNL     1      -6.267  52.160  50.689  0.00  0.00    +0.000 C 
ENDROOT
BRANCH   1  15
ATOM     12  N   UNL     1     -14.089  55.431  51.508  0.00  0.00    +0.000 N 
ATOM     13  C   UNL     1     -12.765  55.034  51.321  0.00  0.00    +0.000 C 
ATOM     14  O   UNL     1     -11.813  55.742  51.637  0.00  0.00    +0.000 OA
ATOM     15  N   UNL     1     -12.643  53.820  50.672  0.00  0.00    +0.000 N 
ATOM     16  H   UNL     1     -14.815  54.824  51.235  0.00  0.00    +0.000 HD
ATOM     17  H   UNL     1     -13.433  53.307  50.388  0.00  0.00    +0.000 HD
BRANCH  12  18
ATOM     18  S   UNL     1     -14.476  56.908  52.180  0.00  0.00    +0.000 S 
ATOM     19  O   UNL     1     -15.904  56.882  52.389  0.00  0.00    +0.000 OA
ATOM     20  O   UNL     1     -13.574  57.180  53.274  0.00  0.00    +0.000 OA
BRANCH  18  21
ATOM     21  N   UNL     1     -14.137  57.911  50.857  0.00  0.00    +0.000 NA
ATOM     22  C   UNL     1     -14.530  57.365  49.536  0.00  0.00    +0.000 C 
ATOM     23  C   UNL     1     -14.455  59.347  51.039  0.00  0.00    +0.000 C 
ATOM     24  C   UNL     1     -13.904  58.185  48.411  0.00  0.00    +0.000 C 
ATOM     25  C   UNL     1     -13.830  60.173  49.916  0.00  0.00    +0.000 C 
ATOM     26  C   UNL     1     -14.253  59.661  48.544  0.00  0.00    +0.000 C 
ENDBRANCH  18  21
ENDBRANCH  12  18
ENDBRANCH   1  15
BRANCH   3  27
ATOM     27  C   UNL     1     -10.689  54.761  48.482  0.00  0.00    +0.000 C 
ATOM     28  O   UNL     1      -9.929  55.720  48.393  0.00  0.00    +0.000 OA
BRANCH  27  29
ATOM     29  O   UNL     1     -11.816  54.600  47.739  0.00  0.00    +0.000 OA
BRANCH  29  30
ATOM     30  C   UNL     1     -11.817  55.164  46.425  0.00  0.00    +0.000 C 
ATOM     31  C   UNL     1     -11.508  54.083  45.409  0.00  0.00    +0.000 C 
ENDBRANCH  29  30
ENDBRANCH  27  29
ENDBRANCH   3  27
TORSDOF 6
ENDMDL
MODEL 6
REMARK VINA RESULT:      -6.8      2.412      3.735
REMARK  Name = 
REMARK  9 active torsions:
REMARK  status: ('A' for Active; 'I' for Inactive)
REMARK    1  A    between atoms: S_1  and  N_4
REMARK    2  A    between atoms: S_1  and  N_5
REMARK    3  A    between atoms: N_12  and  C_14
REMARK    4  A    between atoms: C_16  and  C_19
REMARK    5  A    between atoms: C_19  and  O_23
REMARK    6  A    between atoms: O_23  and  C_26
REMARK    7  A    between atoms: C_24  and  C_27
REMARK    8  A    between atoms: C_24  and  C_28
REMARK    9  A    between atoms: C_26  and  C_29
REMARK                            x       y       z     vdW  Elec       q    Type
REMARK                         _______ _______ _______ _____ _____    ______ ____
ROOT
ATOM      1  C   UNL     1     -11.271  53.596  50.143  0.00  0.00    +0.000 A 
ATOM      2  S   UNL     1     -10.910  53.828  48.500  0.00  0.00    +0.000 S 
ATOM      3  C   UNL     1     -10.195  53.146  50.886  0.00  0.00    +0.000 A 
ATOM      4  C   UNL     1      -9.244  53.570  48.783  0.00  0.00    +0.000 A 
ATOM      5  C   UNL     1      -8.986  53.226  50.100  0.00  0.00    +0.000 A 
ATOM      6  C   UNL     1      -8.195  53.710  47.704  0.00  0.00    +0.000 C 
ATOM      7  C   UNL     1      -7.600  52.907  50.580  0.00  0.00    +0.000 C 
ATOM      8  C   UNL     1      -6.876  52.978  48.111  0.00  0.00    +0.000 C 
ATOM      9  C   UNL     1      -6.524  53.328  49.578  0.00  0.00    +0.000 C 
ATOM     10  C   UNL     1      -5.701  53.437  47.229  0.00  0.00    +0.000 C 
ATOM     11  C   UNL     1      -7.037  51.455  47.932  0.00  0.00    +0.000 C 
ENDROOT
BRANCH   1  15
ATOM     12  N   UNL     1     -14.039  55.432  51.509  0.00  0.00    +0.000 N 
ATOM     13  C   UNL     1     -12.719  55.164  51.148  0.00  0.00    +0.000 C 
ATOM     14  O   UNL     1     -11.817  55.984  51.291  0.00  0.00    +0.000 OA
ATOM     15  N   UNL     1     -12.555  53.934  50.541  0.00  0.00    +0.000 N 
ATOM     16  H   UNL     1     -14.725  54.738  51.371  0.00  0.00    +0.000 HD
ATOM     17  H   UNL     1     -13.316  53.326  50.398  0.00  0.00    +0.000 HD
BRANCH  12  18
ATOM     18  S   UNL     1     -14.490  56.899  52.165  0.00  0.00    +0.000 S 
ATOM     19  O   UNL     1     -15.921  56.827  52.339  0.00  0.00    +0.000 OA
ATOM     20  O   UNL     1     -13.624  57.202  53.280  0.00  0.00    +0.000 OA
BRANCH  18  21
ATOM     21  N   UNL     1     -14.151  57.908  50.847  0.00  0.00    +0.000 NA
ATOM     22  C   UNL     1     -14.612  57.402  49.532  0.00  0.00    +0.000 C 
ATOM     23  C   UNL     1     -14.397  59.352  51.062  0.00  0.00    +0.000 C 
ATOM     24  C   UNL     1     -13.988  58.212  48.399  0.00  0.00    +0.000 C 
ATOM     25  C   UNL     1     -13.773  60.170  49.931  0.00  0.00    +0.000 C 
ATOM     26  C   UNL     1     -14.265  59.700  48.567  0.00  0.00    +0.000 C 
ENDBRANCH  18  21
ENDBRANCH  12  18
ENDBRANCH   1  15
BRANCH   3  27
ATOM     27  C   UNL     1     -10.328  52.691  52.271  0.00  0.00    +0.000 C 
ATOM     28  O   UNL     1     -11.231  51.953  52.653  0.00  0.00    +0.000 OA
BRANCH  27  29
ATOM     29  O   UNL     1      -9.342  53.179  53.071  0.00  0.00    +0.000 OA
BRANCH  29  30
ATOM     30  C   UNL     1      -9.515  54.502  53.585  0.00  0.00    +0.000 C 
ATOM     31  C   UNL     1      -8.165  55.175  53.717  0.00  0.00    +0.000 C 
ENDBRANCH  29  30
ENDBRANCH  27  29
ENDBRANCH   3  27
TORSDOF 6
ENDMDL
MODEL 7
REMARK VINA RESULT:      -6.8      2.553      4.365
REMARK  Name = 
REMARK  9 active torsions:
REMARK  status: ('A' for Active; 'I' for Inactive)
REMARK    1  A    between atoms: S_1  and  N_4
REMARK    2  A    between atoms: S_1  and  N_5
REMARK    3  A    between atoms: N_12  and  C_14
REMARK    4  A    between atoms: C_16  and  C_19
REMARK    5  A    between atoms: C_19  and  O_23
REMARK    6  A    between atoms: O_23  and  C_26
REMARK    7  A    between atoms: C_24  and  C_27
REMARK    8  A    between atoms: C_24  and  C_28
REMARK    9  A    between atoms: C_26  and  C_29
REMARK                            x       y       z     vdW  Elec       q    Type
REMARK                         _______ _______ _______ _____ _____    ______ ____
ROOT
ATOM      1  C   UNL     1      -8.857  54.338  50.642  0.00  0.00    +0.000 A 
ATOM      2  S   UNL     1      -8.727  52.860  49.815  0.00  0.00    +0.000 S 
ATOM      3  C   UNL     1      -7.642  54.971  50.832  0.00  0.00    +0.000 A 
ATOM      4  C   UNL     1      -7.077  53.143  49.475  0.00  0.00    +0.000 A 
ATOM      5  C   UNL     1      -6.616  54.311  50.061  0.00  0.00    +0.000 A 
ATOM      6  C   UNL     1      -6.240  52.213  48.628  0.00  0.00    +0.000 C 
ATOM      7  C   UNL     1      -5.185  54.748  49.940  0.00  0.00    +0.000 C 
ATOM      8  C   UNL     1      -4.717  52.454  48.871  0.00  0.00    +0.000 C 
ATOM      9  C   UNL     1      -4.428  53.976  48.860  0.00  0.00    +0.000 C 
ATOM     10  C   UNL     1      -3.875  51.813  47.754  0.00  0.00    +0.000 C 
ATOM     11  C   UNL     1      -4.286  51.824  50.211  0.00  0.00    +0.000 C 
ENDROOT
BRANCH   1  15
ATOM     12  N   UNL     1     -12.049  55.978  50.478  0.00  0.00    +0.000 N 
ATOM     13  C   UNL     1     -10.758  55.622  50.088  0.00  0.00    +0.000 C 
ATOM     14  O   UNL     1     -10.263  55.994  49.027  0.00  0.00    +0.000 OA
ATOM     15  N   UNL     1     -10.141  54.749  50.964  0.00  0.00    +0.000 N 
ATOM     16  H   UNL     1     -12.397  55.651  51.339  0.00  0.00    +0.000 HD
ATOM     17  H   UNL     1     -10.594  54.433  51.779  0.00  0.00    +0.000 HD
BRANCH  12  18
ATOM     18  S   UNL     1     -13.020  56.942  49.523  0.00  0.00    +0.000 S 
ATOM     19  O   UNL     1     -12.180  58.030  49.081  0.00  0.00    +0.000 OA
ATOM     20  O   UNL     1     -13.716  56.112  48.568  0.00  0.00    +0.000 OA
BRANCH  18  21
ATOM     21  N   UNL     1     -14.084  57.521  50.707  0.00  0.00    +0.000 NA
ATOM     22  C   UNL     1     -14.098  56.750  51.973  0.00  0.00    +0.000 C 
ATOM     23  C   UNL     1     -14.104  58.991  50.891  0.00  0.00    +0.000 C 
ATOM     24  C   UNL     1     -15.295  57.151  52.831  0.00  0.00    +0.000 C 
ATOM     25  C   UNL     1     -15.301  59.400  51.749  0.00  0.00    +0.000 C 
ATOM     26  C   UNL     1     -15.317  58.654  53.078  0.00  0.00    +0.000 C 
ENDBRANCH  18  21
ENDBRANCH  12  18
ENDBRANCH   1  15
BRANCH   3  27
ATOM     27  C   UNL     1      -7.493  56.150  51.688  0.00  0.00    +0.000 C 
ATOM     28  O   UNL     1      -7.418  57.294  51.249  0.00  0.00    +0.000 OA
BRANCH  27  29
ATOM     29  O   UNL     1      -7.449  55.827  53.007  0.00  0.00    +0.000 OA
BRANCH  29  30
ATOM     30  C   UNL     1      -6.182  55.432  53.540  0.00  0.00    +0.000 C 
ATOM     31  C   UNL     1      -6.396  54.586  54.778  0.00  0.00    +0.000 C 
ENDBRANCH  29  30
ENDBRANCH  27  29
ENDBRANCH   3  27
TORSDOF 6
ENDMDL
MODEL 8
REMARK VINA RESULT:      -6.8      2.410      3.170
REMARK  Name = 
REMARK  9 active torsions:
REMARK  status: ('A' for Active; 'I' for Inactive)
REMARK    1  A    between atoms: S_1  and  N_4
REMARK    2  A    between atoms: S_1  and  N_5
REMARK    3  A    between atoms: N_12  and  C_14
REMARK    4  A    between atoms: C_16  and  C_19
REMARK    5  A    between atoms: C_19  and  O_23
REMARK    6  A    between atoms: O_23  and  C_26
REMARK    7  A    between atoms: C_24  and  C_27
REMARK    8  A    between atoms: C_24  and  C_28
REMARK    9  A    between atoms: C_26  and  C_29
REMARK                            x       y       z     vdW  Elec       q    Type
REMARK                         _______ _______ _______ _____ _____    ______ ____
ROOT
ATOM      1  C   UNL     1      -9.866  54.809  50.911  0.00  0.00    +0.000 A 
ATOM      2  S   UNL     1      -9.973  54.899  52.603  0.00  0.00    +0.000 S 
ATOM      3  C   UNL     1      -9.340  53.614  50.454  0.00  0.00    +0.000 A 
ATOM      4  C   UNL     1      -9.549  53.251  52.763  0.00  0.00    +0.000 A 
ATOM      5  C   UNL     1      -9.246  52.670  51.542  0.00  0.00    +0.000 A 
ATOM      6  C   UNL     1      -9.516  52.535  54.093  0.00  0.00    +0.000 C 
ATOM      7  C   UNL     1      -8.802  51.240  51.432  0.00  0.00    +0.000 C 
ATOM      8  C   UNL     1      -8.667  51.227  54.002  0.00  0.00    +0.000 C 
ATOM      9  C   UNL     1      -9.050  50.451  52.718  0.00  0.00    +0.000 C 
ATOM     10  C   UNL     1      -8.948  50.307  55.204  0.00  0.00    +0.000 C 
ATOM     11  C   UNL     1      -7.162  51.569  54.009  0.00  0.00    +0.000 C 
ENDROOT
BRANCH   1  15
ATOM     12  N   UNL     1     -12.153  57.094  49.345  0.00  0.00    +0.000 N 
ATOM     13  C   UNL     1     -11.734  55.968  50.054  0.00  0.00    +0.000 C 
ATOM     14  O   UNL     1     -12.524  55.172  50.553  0.00  0.00    +0.000 OA
ATOM     15  N   UNL     1     -10.363  55.895  50.207  0.00  0.00    +0.000 N 
ATOM     16  H   UNL     1     -11.477  57.701  48.966  0.00  0.00    +0.000 HD
ATOM     17  H   UNL     1      -9.767  56.585  49.835  0.00  0.00    +0.000 HD
BRANCH  12  18
ATOM     18  S   UNL     1     -13.771  57.440  49.125  0.00  0.00    +0.000 S 
ATOM     19  O   UNL     1     -13.809  58.706  48.432  0.00  0.00    +0.000 OA
ATOM     20  O   UNL     1     -14.432  56.279  48.578  0.00  0.00    +0.000 OA
BRANCH  18  21
ATOM     21  N   UNL     1     -14.224  57.687  50.738  0.00  0.00    +0.000 NA
ATOM     22  C   UNL     1     -14.195  59.098  51.191  0.00  0.00    +0.000 C 
ATOM     23  C   UNL     1     -15.408  56.926  51.198  0.00  0.00    +0.000 C 
ATOM     24  C   UNL     1     -14.306  59.175  52.712  0.00  0.00    +0.000 C 
ATOM     25  C   UNL     1     -15.524  56.997  52.721  0.00  0.00    +0.000 C 
ATOM     26  C   UNL     1     -15.542  58.439  53.212  0.00  0.00    +0.000 C 
ENDBRANCH  18  21
ENDBRANCH  12  18
ENDBRANCH   1  15
BRANCH   3  27
ATOM     27  C   UNL     1      -8.974  53.398  49.053  0.00  0.00    +0.000 C 
ATOM     28  O   UNL     1      -7.820  53.209  48.681  0.00  0.00    +0.000 OA
BRANCH  27  29
ATOM     29  O   UNL     1     -10.054  53.432  48.227  0.00  0.00    +0.000 OA
BRANCH  29  30
ATOM     30  C   UNL     1      -9.822  53.797  46.864  0.00  0.00    +0.000 C 
ATOM     31  C   UNL     1      -9.724  55.305  46.754  0.00  0.00    +0.000 C 
ENDBRANCH  29  30
ENDBRANCH  27  29
ENDBRANCH   3  27
TORSDOF 6
ENDMDL
MODEL 9
REMARK VINA RESULT:      -6.7      3.624      5.916
REMARK  Name = 
REMARK  9 active torsions:
REMARK  status: ('A' for Active; 'I' for Inactive)
REMARK    1  A    between atoms: S_1  and  N_4
REMARK    2  A    between atoms: S_1  and  N_5
REMARK    3  A    between atoms: N_12  and  C_14
REMARK    4  A    between atoms: C_16  and  C_19
REMARK    5  A    between atoms: C_19  and  O_23
REMARK    6  A    between atoms: O_23  and  C_26
REMARK    7  A    between atoms: C_24  and  C_27
REMARK    8  A    between atoms: C_24  and  C_28
REMARK    9  A    between atoms: C_26  and  C_29
REMARK                            x       y       z     vdW  Elec       q    Type
REMARK                         _______ _______ _______ _____ _____    ______ ____
ROOT
ATOM      1  C   UNL     1     -10.400  54.397  46.904  0.00  0.00    +0.000 A 
ATOM      2  S   UNL     1     -11.475  53.871  45.698  0.00  0.00    +0.000 S 
ATOM      3  C   UNL     1      -9.202  53.707  46.912  0.00  0.00    +0.000 A 
ATOM      4  C   UNL     1     -10.274  52.876  44.999  0.00  0.00    +0.000 A 
ATOM      5  C   UNL     1      -9.099  52.883  45.731  0.00  0.00    +0.000 A 
ATOM      6  C   UNL     1     -10.495  52.091  43.726  0.00  0.00    +0.000 C 
ATOM      7  C   UNL     1      -7.914  52.050  45.338  0.00  0.00    +0.000 C 
ATOM      8  C   UNL     1      -9.443  50.945  43.588  0.00  0.00    +0.000 C 
ATOM      9  C   UNL     1      -8.034  51.496  43.918  0.00  0.00    +0.000 C 
ATOM     10  C   UNL     1      -9.405  50.407  42.146  0.00  0.00    +0.000 C 
ATOM     11  C   UNL     1      -9.807  49.773  44.522  0.00  0.00    +0.000 C 
ENDROOT
BRANCH   1  15
ATOM     12  N   UNL     1     -12.044  56.313  49.458  0.00  0.00    +0.000 N 
ATOM     13  C   UNL     1     -11.674  55.185  48.726  0.00  0.00    +0.000 C 
ATOM     14  O   UNL     1     -12.017  54.050  49.046  0.00  0.00    +0.000 OA
ATOM     15  N   UNL     1     -10.823  55.468  47.676  0.00  0.00    +0.000 N 
ATOM     16  H   UNL     1     -11.740  57.201  49.159  0.00  0.00    +0.000 HD
ATOM     17  H   UNL     1     -10.529  56.388  47.485  0.00  0.00    +0.000 HD
BRANCH  12  18
ATOM     18  S   UNL     1     -12.986  56.199  50.831  0.00  0.00    +0.000 S 
ATOM     19  O   UNL     1     -14.027  55.250  50.515  0.00  0.00    +0.000 OA
ATOM     20  O   UNL     1     -12.129  56.000  51.976  0.00  0.00    +0.000 OA
BRANCH  18  21
ATOM     21  N   UNL     1     -13.652  57.757  50.840  0.00  0.00    +0.000 NA
ATOM     22  C   UNL     1     -13.540  58.497  49.560  0.00  0.00    +0.000 C 
ATOM     23  C   UNL     1     -14.969  57.890  51.505  0.00  0.00    +0.000 C 
ATOM     24  C   UNL     1     -13.874  59.972  49.764  0.00  0.00    +0.000 C 
ATOM     25  C   UNL     1     -15.309  59.365  51.714  0.00  0.00    +0.000 C 
ATOM     26  C   UNL     1     -15.246  60.143  50.405  0.00  0.00    +0.000 C 
ENDBRANCH  18  21
ENDBRANCH  12  18
ENDBRANCH   1  15
BRANCH   3  27
ATOM     27  C   UNL     1      -8.214  53.856  47.983  0.00  0.00    +0.000 C 
ATOM     28  O   UNL     1      -7.095  54.326  47.805  0.00  0.00    +0.000 OA
BRANCH  27  29
ATOM     29  O   UNL     1      -8.683  53.416  49.181  0.00  0.00    +0.000 OA
BRANCH  29  30
ATOM     30  C   UNL     1      -8.347  54.188  50.337  0.00  0.00    +0.000 C 
ATOM     31  C   UNL     1      -7.405  53.396  51.219  0.00  0.00    +0.000 C 
ENDBRANCH  29  30
ENDBRANCH  27  29
ENDBRANCH   3  27
TORSDOF 6
ENDMDL
