MODEL 1
REMARK VINA RESULT:      -7.8      0.000      0.000
REMARK  Name = 
REMARK  9 active torsions:
REMARK  status: ('A' for Active; 'I' for Inactive)
REMARK    1  A    between atoms: S_1  and  N_4
REMARK    2  A    between atoms: S_1  and  C_5
REMARK    3  A    between atoms: N_10  and  C_13
REMARK    4  A    between atoms: C_16  and  C_19
REMARK    5  A    between atoms: C_19  and  O_23
REMARK    6  A    between atoms: O_23  and  C_26
REMARK    7  A    between atoms: C_24  and  C_27
REMARK    8  A    between atoms: C_24  and  C_28
REMARK    9  A    between atoms: C_26  and  C_29
REMARK                            x       y       z     vdW  Elec       q    Type
REMARK                         _______ _______ _______ _____ _____    ______ ____
ROOT
ATOM      1  C   UNL     1     -10.905  54.439  51.539  0.00  0.00    +0.000 A 
ATOM      2  S   UNL     1     -10.488  53.787  53.053  0.00  0.00    +0.000 S 
ATOM      3  C   UNL     1      -9.819  54.933  50.838  0.00  0.00    +0.000 A 
ATOM      4  C   UNL     1      -8.823  53.906  52.698  0.00  0.00    +0.000 A 
ATOM      5  C   UNL     1      -8.588  54.535  51.485  0.00  0.00    +0.000 A 
ATOM      6  C   UNL     1      -7.753  53.376  53.621  0.00  0.00    +0.000 C 
ATOM      7  C   UNL     1      -7.197  54.802  50.990  0.00  0.00    +0.000 C 
ATOM      8  C   UNL     1      -6.368  54.018  53.300  0.00  0.00    +0.000 C 
ATOM      9  C   UNL     1      -6.140  54.015  51.767  0.00  0.00    +0.000 C 
ATOM     10  C   UNL     1      -5.232  53.205  53.945  0.00  0.00    +0.000 C 
ATOM     11  C   UNL     1      -6.306  55.453  53.863  0.00  0.00    +0.000 C 
ENDROOT
BRANCH   1  15
ATOM     12  N   UNL     1     -14.390  55.230  51.113  0.00  0.00    +0.000 N 
ATOM     13  C   UNL     1     -13.078  55.382  51.555  0.00  0.00    +0.000 C 
ATOM     14  O   UNL     1     -12.701  56.406  52.111  0.00  0.00    +0.000 OA
ATOM     15  N   UNL     1     -12.244  54.339  51.199  0.00  0.00    +0.000 N 
ATOM     16  H   UNL     1     -14.631  54.393  50.657  0.00  0.00    +0.000 HD
ATOM     17  H   UNL     1     -12.591  53.552  50.722  0.00  0.00    +0.000 HD
BRANCH  12  18
ATOM     18  S   UNL     1     -15.574  56.384  51.310  0.00  0.00    +0.000 S 
ATOM     19  O   UNL     1     -15.739  56.719  52.706  0.00  0.00    +0.000 OA
ATOM     20  O   UNL     1     -16.698  55.899  50.532  0.00  0.00    +0.000 OA
BRANCH  18  21
ATOM     21  C   UNL     1     -14.915  57.801  50.455  0.00  0.00    +0.000 A 
ATOM     22  C   UNL     1     -14.827  59.032  51.114  0.00  0.00    +0.000 A 
ATOM     23  C   UNL     1     -14.404  57.656  49.163  0.00  0.00    +0.000 A 
ATOM     24  C   UNL     1     -14.250  60.123  50.464  0.00  0.00    +0.000 A 
ATOM     25  C   UNL     1     -13.828  58.753  48.518  0.00  0.00    +0.000 A 
ATOM     26  C   UNL     1     -13.754  59.986  49.168  0.00  0.00    +0.000 A 
ENDBRANCH  18  21
ENDBRANCH  12  18
ENDBRANCH   1  15
BRANCH   3  27
ATOM     27  C   UNL     1      -9.962  55.730  49.616  0.00  0.00    +0.000 C 
ATOM     28  O   UNL     1      -9.559  56.883  49.517  0.00  0.00    +0.000 OA
BRANCH  27  29
ATOM     29  O   UNL     1     -10.580  55.039  48.619  0.00  0.00    +0.000 OA
BRANCH  29  30
ATOM     30  C   UNL     1     -11.664  55.690  47.949  0.00  0.00    +0.000 C 
ATOM     31  C   UNL     1     -11.591  55.395  46.465  0.00  0.00    +0.000 C 
ENDBRANCH  29  30
ENDBRANCH  27  29
ENDBRANCH   3  27
TORSDOF 6
ENDMDL
MODEL 2
REMARK VINA RESULT:      -7.5      2.516      7.675
REMARK  Name = 
REMARK  9 active torsions:
REMARK  status: ('A' for Active; 'I' for Inactive)
REMARK    1  A    between atoms: S_1  and  N_4
REMARK    2  A    between atoms: S_1  and  C_5
REMARK    3  A    between atoms: N_10  and  C_13
REMARK    4  A    between atoms: C_16  and  C_19
REMARK    5  A    between atoms: C_19  and  O_23
REMARK    6  A    between atoms: O_23  and  C_26
REMARK    7  A    between atoms: C_24  and  C_27
REMARK    8  A    between atoms: C_24  and  C_28
REMARK    9  A    between atoms: C_26  and  C_29
REMARK                            x       y       z     vdW  Elec       q    Type
REMARK                         _______ _______ _______ _____ _____    ______ ____
ROOT
ATOM      1  C   UNL     1     -11.210  54.892  50.136  0.00  0.00    +0.000 A 
ATOM      2  S   UNL     1     -11.805  54.907  51.729  0.00  0.00    +0.000 S 
ATOM      3  C   UNL     1     -11.870  55.771  49.296  0.00  0.00    +0.000 A 
ATOM      4  C   UNL     1     -12.777  56.271  51.402  0.00  0.00    +0.000 A 
ATOM      5  C   UNL     1     -12.729  56.643  50.067  0.00  0.00    +0.000 A 
ATOM      6  C   UNL     1     -13.585  56.971  52.468  0.00  0.00    +0.000 C 
ATOM      7  C   UNL     1     -13.546  57.783  49.535  0.00  0.00    +0.000 C 
ATOM      8  C   UNL     1     -14.707  57.850  51.834  0.00  0.00    +0.000 C 
ATOM      9  C   UNL     1     -14.122  58.659  50.649  0.00  0.00    +0.000 C 
ATOM     10  C   UNL     1     -15.254  58.854  52.864  0.00  0.00    +0.000 C 
ATOM     11  C   UNL     1     -15.878  56.960  51.368  0.00  0.00    +0.000 C 
ENDROOT
BRANCH   1  15
ATOM     12  N   UNL     1      -7.852  53.602  50.042  0.00  0.00    +0.000 N 
ATOM     13  C   UNL     1      -8.870  54.533  50.226  0.00  0.00    +0.000 C 
ATOM     14  O   UNL     1      -8.655  55.633  50.722  0.00  0.00    +0.000 OA
ATOM     15  N   UNL     1     -10.129  54.054  49.916  0.00  0.00    +0.000 N 
ATOM     16  H   UNL     1      -8.088  52.728  49.655  0.00  0.00    +0.000 HD
ATOM     17  H   UNL     1     -10.252  53.149  49.551  0.00  0.00    +0.000 HD
BRANCH  12  18
ATOM     18  S   UNL     1      -6.258  53.879  50.437  0.00  0.00    +0.000 S 
ATOM     19  O   UNL     1      -5.838  55.189  49.995  0.00  0.00    +0.000 OA
ATOM     20  O   UNL     1      -5.554  52.692  49.994  0.00  0.00    +0.000 OA
BRANCH  18  21
ATOM     21  C   UNL     1      -6.266  53.851  52.218  0.00  0.00    +0.000 A 
ATOM     22  C   UNL     1      -6.528  52.654  52.894  0.00  0.00    +0.000 A 
ATOM     23  C   UNL     1      -5.922  55.002  52.932  0.00  0.00    +0.000 A 
ATOM     24  C   UNL     1      -6.469  52.622  54.287  0.00  0.00    +0.000 A 
ATOM     25  C   UNL     1      -5.865  54.961  54.328  0.00  0.00    +0.000 A 
ATOM     26  C   UNL     1      -6.142  53.772  55.003  0.00  0.00    +0.000 A 
ENDBRANCH  18  21
ENDBRANCH  12  18
ENDBRANCH   1  15
BRANCH   3  27
ATOM     27  C   UNL     1     -11.676  55.775  47.844  0.00  0.00    +0.000 C 
ATOM     28  O   UNL     1     -12.605  55.785  47.044  0.00  0.00    +0.000 OA
BRANCH  27  29
ATOM     29  O   UNL     1     -10.359  55.773  47.499  0.00  0.00    +0.000 OA
BRANCH  29  30
ATOM     30  C   UNL     1      -9.957  54.873  46.462  0.00  0.00    +0.000 C 
ATOM     31  C   UNL     1      -8.457  54.959  46.272  0.00  0.00    +0.000 C 
ENDBRANCH  29  30
ENDBRANCH  27  29
ENDBRANCH   3  27
TORSDOF 6
ENDMDL
MODEL 3
REMARK VINA RESULT:      -7.2      3.801      7.407
REMARK  Name = 
REMARK  9 active torsions:
REMARK  status: ('A' for Active; 'I' for Inactive)
REMARK    1  A    between atoms: S_1  and  N_4
REMARK    2  A    between atoms: S_1  and  C_5
REMARK    3  A    between atoms: N_10  and  C_13
REMARK    4  A    between atoms: C_16  and  C_19
REMARK    5  A    between atoms: C_19  and  O_23
REMARK    6  A    between atoms: O_23  and  C_26
REMARK    7  A    between atoms: C_24  and  C_27
REMARK    8  A    between atoms: C_24  and  C_28
REMARK    9  A    between atoms: C_26  and  C_29
REMARK                            x       y       z     vdW  Elec       q    Type
REMARK                         _______ _______ _______ _____ _____    ______ ____
ROOT
ATOM      1  C   UNL     1     -11.498  54.802  49.967  0.00  0.00    +0.000 A 
ATOM      2  S   UNL     1     -12.156  54.749  51.534  0.00  0.00    +0.000 S 
ATOM      3  C   UNL     1     -12.045  55.797  49.176  0.00  0.00    +0.000 A 
ATOM      4  C   UNL     1     -12.993  56.215  51.282  0.00  0.00    +0.000 A 
ATOM      5  C   UNL     1     -12.858  56.681  49.983  0.00  0.00    +0.000 A 
ATOM      6  C   UNL     1     -13.782  56.901  52.370  0.00  0.00    +0.000 C 
ATOM      7  C   UNL     1     -13.551  57.925  49.514  0.00  0.00    +0.000 C 
ATOM      8  C   UNL     1     -14.798  57.921  51.768  0.00  0.00    +0.000 C 
ATOM      9  C   UNL     1     -14.097  58.762  50.672  0.00  0.00    +0.000 C 
ATOM     10  C   UNL     1     -15.300  58.889  52.854  0.00  0.00    +0.000 C 
ATOM     11  C   UNL     1     -16.019  57.175  51.193  0.00  0.00    +0.000 C 
ENDROOT
BRANCH   1  15
ATOM     12  N   UNL     1      -9.713  51.922  48.753  0.00  0.00    +0.000 N 
ATOM     13  C   UNL     1     -10.804  52.745  49.017  0.00  0.00    +0.000 C 
ATOM     14  O   UNL     1     -11.916  52.505  48.562  0.00  0.00    +0.000 OA
ATOM     15  N   UNL     1     -10.484  53.891  49.720  0.00  0.00    +0.000 N 
ATOM     16  H   UNL     1      -8.841  52.174  49.131  0.00  0.00    +0.000 HD
ATOM     17  H   UNL     1      -9.566  54.053  50.035  0.00  0.00    +0.000 HD
BRANCH  12  18
ATOM     18  S   UNL     1      -9.797  50.535  47.835  0.00  0.00    +0.000 S 
ATOM     19  O   UNL     1     -11.045  49.842  48.062  0.00  0.00    +0.000 OA
ATOM     20  O   UNL     1      -8.531  49.864  48.059  0.00  0.00    +0.000 OA
BRANCH  18  21
ATOM     21  C   UNL     1      -9.779  51.148  46.163  0.00  0.00    +0.000 A 
ATOM     22  C   UNL     1     -10.985  51.437  45.515  0.00  0.00    +0.000 A 
ATOM     23  C   UNL     1      -8.560  51.424  45.538  0.00  0.00    +0.000 A 
ATOM     24  C   UNL     1     -10.965  51.978  44.229  0.00  0.00    +0.000 A 
ATOM     25  C   UNL     1      -8.548  51.966  44.250  0.00  0.00    +0.000 A 
ATOM     26  C   UNL     1      -9.751  52.240  43.596  0.00  0.00    +0.000 A 
ENDBRANCH  18  21
ENDBRANCH  12  18
ENDBRANCH   1  15
BRANCH   3  27
ATOM     27  C   UNL     1     -11.790  55.893  47.736  0.00  0.00    +0.000 C 
ATOM     28  O   UNL     1     -12.683  56.000  46.904  0.00  0.00    +0.000 OA
BRANCH  27  29
ATOM     29  O   UNL     1     -10.461  55.857  47.444  0.00  0.00    +0.000 OA
BRANCH  29  30
ATOM     30  C   UNL     1     -10.050  54.994  46.379  0.00  0.00    +0.000 C 
ATOM     31  C   UNL     1      -8.552  55.107  46.186  0.00  0.00    +0.000 C 
ENDBRANCH  29  30
ENDBRANCH  27  29
ENDBRANCH   3  27
TORSDOF 6
ENDMDL
MODEL 4
REMARK VINA RESULT:      -7.0      2.370      3.041
REMARK  Name = 
REMARK  9 active torsions:
REMARK  status: ('A' for Active; 'I' for Inactive)
REMARK    1  A    between atoms: S_1  and  N_4
REMARK    2  A    between atoms: S_1  and  C_5
REMARK    3  A    between atoms: N_10  and  C_13
REMARK    4  A    between atoms: C_16  and  C_19
REMARK    5  A    between atoms: C_19  and  O_23
REMARK    6  A    between atoms: O_23  and  C_26
REMARK    7  A    between atoms: C_24  and  C_27
REMARK    8  A    between atoms: C_24  and  C_28
REMARK    9  A    between atoms: C_26  and  C_29
REMARK                            x       y       z     vdW  Elec       q    Type
REMARK                         _______ _______ _______ _____ _____    ______ ____
ROOT
ATOM      1  C   UNL     1      -8.331  55.712  49.929  0.00  0.00    +0.000 A 
ATOM      2  S   UNL     1      -7.866  55.964  51.546  0.00  0.00    +0.000 S 
ATOM      3  C   UNL     1      -7.608  54.714  49.301  0.00  0.00    +0.000 A 
ATOM      4  C   UNL     1      -6.876  54.573  51.526  0.00  0.00    +0.000 A 
ATOM      5  C   UNL     1      -6.818  53.988  50.270  0.00  0.00    +0.000 A 
ATOM      6  C   UNL     1      -6.160  54.065  52.753  0.00  0.00    +0.000 C 
ATOM      7  C   UNL     1      -5.964  52.785  49.999  0.00  0.00    +0.000 C 
ATOM      8  C   UNL     1      -4.993  53.105  52.363  0.00  0.00    +0.000 C 
ATOM      9  C   UNL     1      -5.483  52.108  51.284  0.00  0.00    +0.000 C 
ATOM     10  C   UNL     1      -4.535  52.288  53.585  0.00  0.00    +0.000 C 
ATOM     11  C   UNL     1      -3.786  53.919  51.854  0.00  0.00    +0.000 C 
ENDROOT
BRANCH   1  15
ATOM     12  N   UNL     1     -11.665  56.829  49.161  0.00  0.00    +0.000 N 
ATOM     13  C   UNL     1     -10.658  55.952  49.556  0.00  0.00    +0.000 C 
ATOM     14  O   UNL     1     -10.913  54.846  50.018  0.00  0.00    +0.000 OA
ATOM     15  N   UNL     1      -9.388  56.492  49.490  0.00  0.00    +0.000 N 
ATOM     16  H   UNL     1     -11.401  57.711  48.814  0.00  0.00    +0.000 HD
ATOM     17  H   UNL     1      -9.240  57.401  49.141  0.00  0.00    +0.000 HD
BRANCH  12  18
ATOM     18  S   UNL     1     -13.290  56.473  49.243  0.00  0.00    +0.000 S 
ATOM     19  O   UNL     1     -13.496  55.076  49.545  0.00  0.00    +0.000 OA
ATOM     20  O   UNL     1     -13.858  57.059  48.044  0.00  0.00    +0.000 OA
BRANCH  18  21
ATOM     21  C   UNL     1     -13.855  57.447  50.623  0.00  0.00    +0.000 A 
ATOM     22  C   UNL     1     -14.499  58.668  50.395  0.00  0.00    +0.000 A 
ATOM     23  C   UNL     1     -13.733  56.947  51.922  0.00  0.00    +0.000 A 
ATOM     24  C   UNL     1     -14.999  59.397  51.475  0.00  0.00    +0.000 A 
ATOM     25  C   UNL     1     -14.235  57.683  52.998  0.00  0.00    +0.000 A 
ATOM     26  C   UNL     1     -14.865  58.908  52.773  0.00  0.00    +0.000 A 
ENDBRANCH  18  21
ENDBRANCH  12  18
ENDBRANCH   1  15
BRANCH   3  27
ATOM     27  C   UNL     1      -7.685  54.471  47.857  0.00  0.00    +0.000 C 
ATOM     28  O   UNL     1      -6.731  54.621  47.102  0.00  0.00    +0.000 OA
BRANCH  27  29
ATOM     29  O   UNL     1      -8.922  54.059  47.468  0.00  0.00    +0.000 OA
BRANCH  29  30
ATOM     30  C   UNL     1      -9.469  54.659  46.290  0.00  0.00    +0.000 C 
ATOM     31  C   UNL     1      -9.586  53.614  45.199  0.00  0.00    +0.000 C 
ENDBRANCH  29  30
ENDBRANCH  27  29
ENDBRANCH   3  27
TORSDOF 6
ENDMDL
MODEL 5
REMARK VINA RESULT:      -7.0      2.511      4.307
REMARK  Name = 
REMARK  9 active torsions:
REMARK  status: ('A' for Active; 'I' for Inactive)
REMARK    1  A    between atoms: S_1  and  N_4
REMARK    2  A    between atoms: S_1  and  C_5
REMARK    3  A    between atoms: N_10  and  C_13
REMARK    4  A    between atoms: C_16  and  C_19
REMARK    5  A    between atoms: C_19  and  O_23
REMARK    6  A    between atoms: O_23  and  C_26
REMARK    7  A    between atoms: C_24  and  C_27
REMARK    8  A    between atoms: C_24  and  C_28
REMARK    9  A    between atoms: C_26  and  C_29
REMARK                            x       y       z     vdW  Elec       q    Type
REMARK                         _______ _______ _______ _____ _____    ______ ____
ROOT
ATOM      1  C   UNL     1      -8.652  53.837  51.598  0.00  0.00    +0.000 A 
ATOM      2  S   UNL     1      -8.721  52.211  51.105  0.00  0.00    +0.000 S 
ATOM      3  C   UNL     1      -7.368  54.354  51.606  0.00  0.00    +0.000 A 
ATOM      4  C   UNL     1      -7.079  52.235  50.639  0.00  0.00    +0.000 A 
ATOM      5  C   UNL     1      -6.460  53.435  50.955  0.00  0.00    +0.000 A 
ATOM      6  C   UNL     1      -6.407  51.066  49.961  0.00  0.00    +0.000 C 
ATOM      7  C   UNL     1      -5.002  53.665  50.690  0.00  0.00    +0.000 C 
ATOM      8  C   UNL     1      -4.855  51.168  50.077  0.00  0.00    +0.000 C 
ATOM      9  C   UNL     1      -4.405  52.614  49.751  0.00  0.00    +0.000 C 
ATOM     10  C   UNL     1      -4.174  50.226  49.067  0.00  0.00    +0.000 C 
ATOM     11  C   UNL     1      -4.401  50.755  51.492  0.00  0.00    +0.000 C 
ENDROOT
BRANCH   1  15
ATOM     12  N   UNL     1     -11.762  55.599  51.176  0.00  0.00    +0.000 N 
ATOM     13  C   UNL     1     -10.506  55.101  50.838  0.00  0.00    +0.000 C 
ATOM     14  O   UNL     1     -10.071  55.174  49.694  0.00  0.00    +0.000 OA
ATOM     15  N   UNL     1      -9.877  54.426  51.866  0.00  0.00    +0.000 N 
ATOM     16  H   UNL     1     -12.066  55.496  52.105  0.00  0.00    +0.000 HD
ATOM     17  H   UNL     1     -10.286  54.367  52.760  0.00  0.00    +0.000 HD
BRANCH  12  18
ATOM     18  S   UNL     1     -12.779  56.358  50.098  0.00  0.00    +0.000 S 
ATOM     19  O   UNL     1     -13.674  55.409  49.477  0.00  0.00    +0.000 OA
ATOM     20  O   UNL     1     -11.909  57.187  49.286  0.00  0.00    +0.000 OA
BRANCH  18  21
ATOM     21  C   UNL     1     -13.732  57.451  51.132  0.00  0.00    +0.000 A 
ATOM     22  C   UNL     1     -14.304  58.605  50.584  0.00  0.00    +0.000 A 
ATOM     23  C   UNL     1     -13.979  57.107  52.463  0.00  0.00    +0.000 A 
ATOM     24  C   UNL     1     -15.103  59.424  51.381  0.00  0.00    +0.000 A 
ATOM     25  C   UNL     1     -14.780  57.933  53.256  0.00  0.00    +0.000 A 
ATOM     26  C   UNL     1     -15.339  59.092  52.714  0.00  0.00    +0.000 A 
ENDBRANCH  18  21
ENDBRANCH  12  18
ENDBRANCH   1  15
BRANCH   3  27
ATOM     27  C   UNL     1      -7.043  55.655  52.195  0.00  0.00    +0.000 C 
ATOM     28  O   UNL     1      -7.440  56.718  51.731  0.00  0.00    +0.000 OA
BRANCH  27  29
ATOM     29  O   UNL     1      -6.268  55.539  53.307  0.00  0.00    +0.000 OA
BRANCH  29  30
ATOM     30  C   UNL     1      -6.879  54.979  54.474  0.00  0.00    +0.000 C 
ATOM     31  C   UNL     1      -6.086  53.771  54.929  0.00  0.00    +0.000 C 
ENDBRANCH  29  30
ENDBRANCH  27  29
ENDBRANCH   3  27
TORSDOF 6
ENDMDL
MODEL 6
REMARK VINA RESULT:      -6.9      2.386      3.545
REMARK  Name = 
REMARK  9 active torsions:
REMARK  status: ('A' for Active; 'I' for Inactive)
REMARK    1  A    between atoms: S_1  and  N_4
REMARK    2  A    between atoms: S_1  and  C_5
REMARK    3  A    between atoms: N_10  and  C_13
REMARK    4  A    between atoms: C_16  and  C_19
REMARK    5  A    between atoms: C_19  and  O_23
REMARK    6  A    between atoms: O_23  and  C_26
REMARK    7  A    between atoms: C_24  and  C_27
REMARK    8  A    between atoms: C_24  and  C_28
REMARK    9  A    between atoms: C_26  and  C_29
REMARK                            x       y       z     vdW  Elec       q    Type
REMARK                         _______ _______ _______ _____ _____    ______ ____
ROOT
ATOM      1  C   UNL     1      -9.834  54.844  51.162  0.00  0.00    +0.000 A 
ATOM      2  S   UNL     1     -10.242  54.801  52.812  0.00  0.00    +0.000 S 
ATOM      3  C   UNL     1      -9.070  53.763  50.758  0.00  0.00    +0.000 A 
ATOM      4  C   UNL     1      -9.637  53.213  52.969  0.00  0.00    +0.000 A 
ATOM      5  C   UNL     1      -9.034  52.763  51.803  0.00  0.00    +0.000 A 
ATOM      6  C   UNL     1      -9.760  52.415  54.243  0.00  0.00    +0.000 C 
ATOM      7  C   UNL     1      -8.381  51.416  51.721  0.00  0.00    +0.000 C 
ATOM      8  C   UNL     1      -8.742  51.233  54.265  0.00  0.00    +0.000 C 
ATOM      9  C   UNL     1      -8.759  50.510  52.895  0.00  0.00    +0.000 C 
ATOM     10  C   UNL     1      -9.129  50.206  55.343  0.00  0.00    +0.000 C 
ATOM     11  C   UNL     1      -7.329  51.757  54.593  0.00  0.00    +0.000 C 
ENDROOT
BRANCH   1  15
ATOM     12  N   UNL     1     -12.170  57.043  49.531  0.00  0.00    +0.000 N 
ATOM     13  C   UNL     1     -11.716  55.902  50.188  0.00  0.00    +0.000 C 
ATOM     14  O   UNL     1     -12.489  55.036  50.581  0.00  0.00    +0.000 OA
ATOM     15  N   UNL     1     -10.360  55.909  50.450  0.00  0.00    +0.000 N 
ATOM     16  H   UNL     1     -11.505  57.713  49.254  0.00  0.00    +0.000 HD
ATOM     17  H   UNL     1      -9.787  56.648  50.140  0.00  0.00    +0.000 HD
BRANCH  12  18
ATOM     18  S   UNL     1     -13.772  57.341  49.188  0.00  0.00    +0.000 S 
ATOM     19  O   UNL     1     -14.412  56.162  48.651  0.00  0.00    +0.000 OA
ATOM     20  O   UNL     1     -13.766  58.582  48.437  0.00  0.00    +0.000 OA
BRANCH  18  21
ATOM     21  C   UNL     1     -14.475  57.697  50.786  0.00  0.00    +0.000 A 
ATOM     22  C   UNL     1     -15.164  56.696  51.481  0.00  0.00    +0.000 A 
ATOM     23  C   UNL     1     -14.258  58.944  51.378  0.00  0.00    +0.000 A 
ATOM     24  C   UNL     1     -15.656  56.959  52.760  0.00  0.00    +0.000 A 
ATOM     25  C   UNL     1     -14.754  59.199  52.659  0.00  0.00    +0.000 A 
ATOM     26  C   UNL     1     -15.455  58.207  53.347  0.00  0.00    +0.000 A 
ENDBRANCH  18  21
ENDBRANCH  12  18
ENDBRANCH   1  15
BRANCH   3  27
ATOM     27  C   UNL     1      -8.426  53.697  49.444  0.00  0.00    +0.000 C 
ATOM     28  O   UNL     1      -9.052  53.707  48.390  0.00  0.00    +0.000 OA
BRANCH  27  29
ATOM     29  O   UNL     1      -7.069  53.634  49.536  0.00  0.00    +0.000 OA
BRANCH  29  30
ATOM     30  C   UNL     1      -6.400  54.765  50.102  0.00  0.00    +0.000 C 
ATOM     31  C   UNL     1      -5.165  55.082  49.285  0.00  0.00    +0.000 C 
ENDBRANCH  29  30
ENDBRANCH  27  29
ENDBRANCH   3  27
TORSDOF 6
ENDMDL
MODEL 7
REMARK VINA RESULT:      -6.8      3.033      4.330
REMARK  Name = 
REMARK  9 active torsions:
REMARK  status: ('A' for Active; 'I' for Inactive)
REMARK    1  A    between atoms: S_1  and  N_4
REMARK    2  A    between atoms: S_1  and  C_5
REMARK    3  A    between atoms: N_10  and  C_13
REMARK    4  A    between atoms: C_16  and  C_19
REMARK    5  A    between atoms: C_19  and  O_23
REMARK    6  A    between atoms: O_23  and  C_26
REMARK    7  A    between atoms: C_24  and  C_27
REMARK    8  A    between atoms: C_24  and  C_28
REMARK    9  A    between atoms: C_26  and  C_29
REMARK                            x       y       z     vdW  Elec       q    Type
REMARK                         _______ _______ _______ _____ _____    ______ ____
ROOT
ATOM      1  C   UNL     1      -8.303  55.328  49.146  0.00  0.00    +0.000 A 
ATOM      2  S   UNL     1      -7.932  54.772  47.583  0.00  0.00    +0.000 S 
ATOM      3  C   UNL     1      -7.462  54.822  50.122  0.00  0.00    +0.000 A 
ATOM      4  C   UNL     1      -6.483  54.055  48.131  0.00  0.00    +0.000 A 
ATOM      5  C   UNL     1      -6.340  54.147  49.507  0.00  0.00    +0.000 A 
ATOM      6  C   UNL     1      -5.491  53.405  47.199  0.00  0.00    +0.000 C 
ATOM      7  C   UNL     1      -5.170  53.538  50.222  0.00  0.00    +0.000 C 
ATOM      8  C   UNL     1      -4.535  52.448  47.976  0.00  0.00    +0.000 C 
ATOM      9  C   UNL     1      -4.040  53.148  49.267  0.00  0.00    +0.000 C 
ATOM     10  C   UNL     1      -3.300  52.107  47.123  0.00  0.00    +0.000 C 
ATOM     11  C   UNL     1      -5.262  51.129  48.309  0.00  0.00    +0.000 C 
ENDROOT
BRANCH   1  15
ATOM     12  N   UNL     1     -11.618  56.722  49.277  0.00  0.00    +0.000 N 
ATOM     13  C   UNL     1     -10.634  55.749  49.123  0.00  0.00    +0.000 C 
ATOM     14  O   UNL     1     -10.914  54.560  49.022  0.00  0.00    +0.000 OA
ATOM     15  N   UNL     1      -9.345  56.238  49.219  0.00  0.00    +0.000 N 
ATOM     16  H   UNL     1     -11.333  57.658  49.371  0.00  0.00    +0.000 HD
ATOM     17  H   UNL     1      -9.174  57.200  49.334  0.00  0.00    +0.000 HD
BRANCH  12  18
ATOM     18  S   UNL     1     -13.251  56.392  49.311  0.00  0.00    +0.000 S 
ATOM     19  O   UNL     1     -13.490  55.012  49.665  0.00  0.00    +0.000 OA
ATOM     20  O   UNL     1     -13.764  56.933  48.068  0.00  0.00    +0.000 OA
BRANCH  18  21
ATOM     21  C   UNL     1     -13.852  57.433  50.625  0.00  0.00    +0.000 A 
ATOM     22  C   UNL     1     -14.363  58.702  50.329  0.00  0.00    +0.000 A 
ATOM     23  C   UNL     1     -13.895  56.945  51.934  0.00  0.00    +0.000 A 
ATOM     24  C   UNL     1     -14.894  59.488  51.352  0.00  0.00    +0.000 A 
ATOM     25  C   UNL     1     -14.428  57.738  52.953  0.00  0.00    +0.000 A 
ATOM     26  C   UNL     1     -14.924  59.010  52.661  0.00  0.00    +0.000 A 
ENDBRANCH  18  21
ENDBRANCH  12  18
ENDBRANCH   1  15
BRANCH   3  27
ATOM     27  C   UNL     1      -7.722  54.990  51.554  0.00  0.00    +0.000 C 
ATOM     28  O   UNL     1      -7.039  55.705  52.279  0.00  0.00    +0.000 OA
BRANCH  27  29
ATOM     29  O   UNL     1      -8.801  54.273  51.971  0.00  0.00    +0.000 OA
BRANCH  29  30
ATOM     30  C   UNL     1      -9.827  54.985  52.669  0.00  0.00    +0.000 C 
ATOM     31  C   UNL     1     -11.152  54.273  52.483  0.00  0.00    +0.000 C 
ENDBRANCH  29  30
ENDBRANCH  27  29
ENDBRANCH   3  27
TORSDOF 6
ENDMDL
MODEL 8
REMARK VINA RESULT:      -6.8      3.598      5.725
REMARK  Name = 
REMARK  9 active torsions:
REMARK  status: ('A' for Active; 'I' for Inactive)
REMARK    1  A    between atoms: S_1  and  N_4
REMARK    2  A    between atoms: S_1  and  C_5
REMARK    3  A    between atoms: N_10  and  C_13
REMARK    4  A    between atoms: C_16  and  C_19
REMARK    5  A    between atoms: C_19  and  O_23
REMARK    6  A    between atoms: O_23  and  C_26
REMARK    7  A    between atoms: C_24  and  C_27
REMARK    8  A    between atoms: C_24  and  C_28
REMARK    9  A    between atoms: C_26  and  C_29
REMARK                            x       y       z     vdW  Elec       q    Type
REMARK                         _______ _______ _______ _____ _____    ______ ____
ROOT
ATOM      1  C   UNL     1     -10.818  53.313  47.972  0.00  0.00    +0.000 A 
ATOM      2  S   UNL     1     -11.776  52.282  47.017  0.00  0.00    +0.000 S 
ATOM      3  C   UNL     1      -9.478  53.289  47.629  0.00  0.00    +0.000 A 
ATOM      4  C   UNL     1     -10.474  51.981  45.954  0.00  0.00    +0.000 A 
ATOM      5  C   UNL     1      -9.297  52.573  46.385  0.00  0.00    +0.000 A 
ATOM      6  C   UNL     1     -10.621  51.159  44.697  0.00  0.00    +0.000 C 
ATOM      7  C   UNL     1      -8.007  52.399  45.640  0.00  0.00    +0.000 C 
ATOM      8  C   UNL     1      -9.233  50.660  44.189  0.00  0.00    +0.000 C 
ATOM      9  C   UNL     1      -8.215  51.827  44.237  0.00  0.00    +0.000 C 
ATOM     10  C   UNL     1      -9.332  50.182  42.729  0.00  0.00    +0.000 C 
ATOM     11  C   UNL     1      -8.751  49.472  45.047  0.00  0.00    +0.000 C 
ENDROOT
BRANCH   1  15
ATOM     12  N   UNL     1     -12.715  55.958  49.508  0.00  0.00    +0.000 N 
ATOM     13  C   UNL     1     -11.971  55.306  48.528  0.00  0.00    +0.000 C 
ATOM     14  O   UNL     1     -11.845  55.770  47.400  0.00  0.00    +0.000 OA
ATOM     15  N   UNL     1     -11.510  54.061  48.910  0.00  0.00    +0.000 N 
ATOM     16  H   UNL     1     -12.795  55.529  50.389  0.00  0.00    +0.000 HD
ATOM     17  H   UNL     1     -11.667  53.719  49.820  0.00  0.00    +0.000 HD
BRANCH  12  18
ATOM     18  S   UNL     1     -13.476  57.421  49.276  0.00  0.00    +0.000 S 
ATOM     19  O   UNL     1     -14.526  57.304  48.290  0.00  0.00    +0.000 OA
ATOM     20  O   UNL     1     -12.399  58.374  49.095  0.00  0.00    +0.000 OA
BRANCH  18  21
ATOM     21  C   UNL     1     -14.214  57.756  50.862  0.00  0.00    +0.000 A 
ATOM     22  C   UNL     1     -14.437  59.079  51.259  0.00  0.00    +0.000 A 
ATOM     23  C   UNL     1     -14.650  56.697  51.662  0.00  0.00    +0.000 A 
ATOM     24  C   UNL     1     -15.075  59.336  52.473  0.00  0.00    +0.000 A 
ATOM     25  C   UNL     1     -15.288  56.963  52.877  0.00  0.00    +0.000 A 
ATOM     26  C   UNL     1     -15.497  58.282  53.282  0.00  0.00    +0.000 A 
ENDBRANCH  18  21
ENDBRANCH  12  18
ENDBRANCH   1  15
BRANCH   3  27
ATOM     27  C   UNL     1      -8.441  53.926  48.446  0.00  0.00    +0.000 C 
ATOM     28  O   UNL     1      -7.533  53.300  48.982  0.00  0.00    +0.000 OA
BRANCH  27  29
ATOM     29  O   UNL     1      -8.604  55.274  48.528  0.00  0.00    +0.000 OA
BRANCH  29  30
ATOM     30  C   UNL     1      -8.068  55.928  49.683  0.00  0.00    +0.000 C 
ATOM     31  C   UNL     1      -9.068  55.849  50.818  0.00  0.00    +0.000 C 
ENDBRANCH  29  30
ENDBRANCH  27  29
ENDBRANCH   3  27
TORSDOF 6
ENDMDL
MODEL 9
REMARK VINA RESULT:      -6.7      3.354      4.292
REMARK  Name = 
REMARK  9 active torsions:
REMARK  status: ('A' for Active; 'I' for Inactive)
REMARK    1  A    between atoms: S_1  and  N_4
REMARK    2  A    between atoms: S_1  and  C_5
REMARK    3  A    between atoms: N_10  and  C_13
REMARK    4  A    between atoms: C_16  and  C_19
REMARK    5  A    between atoms: C_19  and  O_23
REMARK    6  A    between atoms: O_23  and  C_26
REMARK    7  A    between atoms: C_24  and  C_27
REMARK    8  A    between atoms: C_24  and  C_28
REMARK    9  A    between atoms: C_26  and  C_29
REMARK                            x       y       z     vdW  Elec       q    Type
REMARK                         _______ _______ _______ _____ _____    ______ ____
ROOT
ATOM      1  C   UNL     1      -8.345  54.936  48.259  0.00  0.00    +0.000 A 
ATOM      2  S   UNL     1      -7.020  55.114  49.310  0.00  0.00    +0.000 S 
ATOM      3  C   UNL     1      -8.187  53.906  47.349  0.00  0.00    +0.000 A 
ATOM      4  C   UNL     1      -6.322  53.660  48.752  0.00  0.00    +0.000 A 
ATOM      5  C   UNL     1      -7.037  53.104  47.702  0.00  0.00    +0.000 A 
ATOM      6  C   UNL     1      -5.069  53.073  49.354  0.00  0.00    +0.000 C 
ATOM      7  C   UNL     1      -6.581  51.852  47.013  0.00  0.00    +0.000 C 
ATOM      8  C   UNL     1      -4.409  52.046  48.383  0.00  0.00    +0.000 C 
ATOM      9  C   UNL     1      -5.499  51.111  47.801  0.00  0.00    +0.000 C 
ATOM     10  C   UNL     1      -3.391  51.169  49.134  0.00  0.00    +0.000 C 
ATOM     11  C   UNL     1      -3.659  52.787  47.257  0.00  0.00    +0.000 C 
ENDROOT
BRANCH   1  15
ATOM     12  N   UNL     1     -11.397  56.322  49.569  0.00  0.00    +0.000 N 
ATOM     13  C   UNL     1     -10.411  55.368  49.336  0.00  0.00    +0.000 C 
ATOM     14  O   UNL     1     -10.404  54.293  49.924  0.00  0.00    +0.000 OA
ATOM     15  N   UNL     1      -9.405  55.797  48.492  0.00  0.00    +0.000 N 
ATOM     16  H   UNL     1     -11.342  57.174  49.080  0.00  0.00    +0.000 HD
ATOM     17  H   UNL     1      -9.441  56.686  48.070  0.00  0.00    +0.000 HD
BRANCH  12  18
ATOM     18  S   UNL     1     -12.666  56.106  50.626  0.00  0.00    +0.000 S 
ATOM     19  O   UNL     1     -12.185  55.912  51.975  0.00  0.00    +0.000 OA
ATOM     20  O   UNL     1     -13.509  55.109  49.995  0.00  0.00    +0.000 OA
BRANCH  18  21
ATOM     21  C   UNL     1     -13.536  57.658  50.546  0.00  0.00    +0.000 A 
ATOM     22  C   UNL     1     -13.352  58.502  49.445  0.00  0.00    +0.000 A 
ATOM     23  C   UNL     1     -14.466  57.984  51.536  0.00  0.00    +0.000 A 
ATOM     24  C   UNL     1     -14.085  59.686  49.354  0.00  0.00    +0.000 A 
ATOM     25  C   UNL     1     -15.196  59.172  51.438  0.00  0.00    +0.000 A 
ATOM     26  C   UNL     1     -15.003  60.022  50.348  0.00  0.00    +0.000 A 
ENDBRANCH  18  21
ENDBRANCH  12  18
ENDBRANCH   1  15
BRANCH   3  27
ATOM     27  C   UNL     1      -9.096  53.706  46.217  0.00  0.00    +0.000 C 
ATOM     28  O   UNL     1     -10.295  53.488  46.351  0.00  0.00    +0.000 OA
BRANCH  27  29
ATOM     29  O   UNL     1      -8.457  53.798  45.019  0.00  0.00    +0.000 OA
BRANCH  29  30
ATOM     30  C   UNL     1      -9.028  53.085  43.917  0.00  0.00    +0.000 C 
ATOM     31  C   UNL     1      -8.358  51.733  43.788  0.00  0.00    +0.000 C 
ENDBRANCH  29  30
ENDBRANCH  27  29
ENDBRANCH   3  27
TORSDOF 6
ENDMDL
