MODEL 1
REMARK VINA RESULT:      -7.8      0.000      0.000
REMARK  Name = 
REMARK  9 active torsions:
REMARK  status: ('A' for Active; 'I' for Inactive)
REMARK    1  A    between atoms: S_1  and  N_4
REMARK    2  A    between atoms: S_1  and  C_5
REMARK    3  A    between atoms: N_10  and  C_13
REMARK    4  A    between atoms: C_16  and  C_19
REMARK    5  A    between atoms: C_19  and  O_23
REMARK    6  A    between atoms: O_23  and  C_26
REMARK    7  A    between atoms: C_24  and  C_27
REMARK    8  A    between atoms: C_24  and  C_28
REMARK    9  A    between atoms: C_26  and  C_29
REMARK                            x       y       z     vdW  Elec       q    Type
REMARK                         _______ _______ _______ _____ _____    ______ ____
ROOT
ATOM      1  C   UNL     1     -10.917  54.410  51.451  0.00  0.00    +0.000 A 
ATOM      2  S   UNL     1     -10.541  53.819  52.999  0.00  0.00    +0.000 S 
ATOM      3  C   UNL     1      -9.816  54.892  50.761  0.00  0.00    +0.000 A 
ATOM      4  C   UNL     1      -8.869  53.917  52.679  0.00  0.00    +0.000 A 
ATOM      5  C   UNL     1      -8.606  54.492  51.447  0.00  0.00    +0.000 A 
ATOM      6  C   UNL     1      -7.826  53.424  53.652  0.00  0.00    +0.000 C 
ATOM      7  C   UNL     1      -7.202  54.725  50.966  0.00  0.00    +0.000 C 
ATOM      8  C   UNL     1      -6.423  54.021  53.322  0.00  0.00    +0.000 C 
ATOM      9  C   UNL     1      -6.174  53.941  51.792  0.00  0.00    +0.000 C 
ATOM     10  C   UNL     1      -5.317  53.216  54.029  0.00  0.00    +0.000 C 
ATOM     11  C   UNL     1      -6.336  55.479  53.820  0.00  0.00    +0.000 C 
ENDROOT
BRANCH   1  15
ATOM     12  N   UNL     1     -14.409  55.190  51.131  0.00  0.00    +0.000 N 
ATOM     13  C   UNL     1     -13.078  55.372  51.478  0.00  0.00    +0.000 C 
ATOM     14  O   UNL     1     -12.696  56.398  52.020  0.00  0.00    +0.000 OA
ATOM     15  N   UNL     1     -12.253  54.329  51.105  0.00  0.00    +0.000 N 
ATOM     16  H   UNL     1     -14.693  54.320  50.771  0.00  0.00    +0.000 HD
ATOM     17  H   UNL     1     -12.604  53.555  50.610  0.00  0.00    +0.000 HD
BRANCH  12  18
ATOM     18  S   UNL     1     -15.544  56.404  51.306  0.00  0.00    +0.000 S 
ATOM     19  O   UNL     1     -15.684  56.706  52.715  0.00  0.00    +0.000 OA
ATOM     20  O   UNL     1     -16.701  55.974  50.543  0.00  0.00    +0.000 OA
BRANCH  18  21
ATOM     21  C   UNL     1     -14.823  57.817  50.470  0.00  0.00    +0.000 A 
ATOM     22  N   UNL     1     -14.392  57.566  49.200  0.00  0.00    +0.000 NA
ATOM     23  C   UNL     1     -14.725  59.043  51.116  0.00  0.00    +0.000 A 
ATOM     24  C   UNL     1     -13.866  58.623  48.546  0.00  0.00    +0.000 A 
ATOM     25  C   UNL     1     -14.157  60.096  50.409  0.00  0.00    +0.000 A 
ATOM     26  C   UNL     1     -13.727  59.890  49.100  0.00  0.00    +0.000 A 
ENDBRANCH  18  21
ENDBRANCH  12  18
ENDBRANCH   1  15
BRANCH   3  27
ATOM     27  C   UNL     1      -9.871  55.729  49.551  0.00  0.00    +0.000 C 
ATOM     28  O   UNL     1      -9.544  56.911  49.533  0.00  0.00    +0.000 OA
BRANCH  27  29
ATOM     29  O   UNL     1     -10.475  55.091  48.506  0.00  0.00    +0.000 OA
BRANCH  29  30
ATOM     30  C   UNL     1     -11.579  55.742  47.870  0.00  0.00    +0.000 C 
ATOM     31  C   UNL     1     -11.677  55.342  46.412  0.00  0.00    +0.000 C 
ENDBRANCH  29  30
ENDBRANCH  27  29
ENDBRANCH   3  27
TORSDOF 6
ENDMDL
MODEL 2
REMARK VINA RESULT:      -7.5      2.724      7.642
REMARK  Name = 
REMARK  9 active torsions:
REMARK  status: ('A' for Active; 'I' for Inactive)
REMARK    1  A    between atoms: S_1  and  N_4
REMARK    2  A    between atoms: S_1  and  C_5
REMARK    3  A    between atoms: N_10  and  C_13
REMARK    4  A    between atoms: C_16  and  C_19
REMARK    5  A    between atoms: C_19  and  O_23
REMARK    6  A    between atoms: O_23  and  C_26
REMARK    7  A    between atoms: C_24  and  C_27
REMARK    8  A    between atoms: C_24  and  C_28
REMARK    9  A    between atoms: C_26  and  C_29
REMARK                            x       y       z     vdW  Elec       q    Type
REMARK                         _______ _______ _______ _____ _____    ______ ____
ROOT
ATOM      1  C   UNL     1     -11.095  54.914  50.178  0.00  0.00    +0.000 A 
ATOM      2  S   UNL     1     -11.770  54.907  51.737  0.00  0.00    +0.000 S 
ATOM      3  C   UNL     1     -11.726  55.788  49.306  0.00  0.00    +0.000 A 
ATOM      4  C   UNL     1     -12.727  56.273  51.378  0.00  0.00    +0.000 A 
ATOM      5  C   UNL     1     -12.607  56.660  50.054  0.00  0.00    +0.000 A 
ATOM      6  C   UNL     1     -13.592  56.952  52.411  0.00  0.00    +0.000 C 
ATOM      7  C   UNL     1     -13.390  57.812  49.493  0.00  0.00    +0.000 C 
ATOM      8  C   UNL     1     -14.664  57.862  51.734  0.00  0.00    +0.000 C 
ATOM      9  C   UNL     1     -14.001  58.684  50.597  0.00  0.00    +0.000 C 
ATOM     10  C   UNL     1     -15.252  58.851  52.758  0.00  0.00    +0.000 C 
ATOM     11  C   UNL     1     -15.823  57.001  51.191  0.00  0.00    +0.000 C 
ENDROOT
BRANCH   1  15
ATOM     12  N   UNL     1      -7.743  53.633  50.020  0.00  0.00    +0.000 N 
ATOM     13  C   UNL     1      -8.760  54.544  50.264  0.00  0.00    +0.000 C 
ATOM     14  O   UNL     1      -8.525  55.653  50.717  0.00  0.00    +0.000 OA
ATOM     15  N   UNL     1     -10.026  54.056  50.002  0.00  0.00    +0.000 N 
ATOM     16  H   UNL     1      -7.962  52.780  49.579  0.00  0.00    +0.000 HD
ATOM     17  H   UNL     1     -10.162  53.129  49.701  0.00  0.00    +0.000 HD
BRANCH  12  18
ATOM     18  S   UNL     1      -6.157  53.937  50.452  0.00  0.00    +0.000 S 
ATOM     19  O   UNL     1      -5.807  55.271  50.010  0.00  0.00    +0.000 OA
ATOM     20  O   UNL     1      -5.395  52.797  49.978  0.00  0.00    +0.000 OA
BRANCH  18  21
ATOM     21  C   UNL     1      -6.164  53.893  52.244  0.00  0.00    +0.000 A 
ATOM     22  N   UNL     1      -5.861  55.080  52.843  0.00  0.00    +0.000 NA
ATOM     23  C   UNL     1      -6.451  52.711  52.918  0.00  0.00    +0.000 A 
ATOM     24  C   UNL     1      -5.882  55.072  54.193  0.00  0.00    +0.000 A 
ATOM     25  C   UNL     1      -6.440  52.748  54.307  0.00  0.00    +0.000 A 
ATOM     26  C   UNL     1      -6.160  53.947  54.960  0.00  0.00    +0.000 A 
ENDBRANCH  18  21
ENDBRANCH  12  18
ENDBRANCH   1  15
BRANCH   3  27
ATOM     27  C   UNL     1     -11.569  55.788  47.842  0.00  0.00    +0.000 C 
ATOM     28  O   UNL     1     -12.508  55.670  47.063  0.00  0.00    +0.000 OA
BRANCH  27  29
ATOM     29  O   UNL     1     -10.258  55.771  47.461  0.00  0.00    +0.000 OA
BRANCH  29  30
ATOM     30  C   UNL     1      -9.848  54.782  46.513  0.00  0.00    +0.000 C 
ATOM     31  C   UNL     1      -8.358  54.866  46.252  0.00  0.00    +0.000 C 
ENDBRANCH  29  30
ENDBRANCH  27  29
ENDBRANCH   3  27
TORSDOF 6
ENDMDL
MODEL 3
REMARK VINA RESULT:      -7.3      3.283      8.181
REMARK  Name = 
REMARK  9 active torsions:
REMARK  status: ('A' for Active; 'I' for Inactive)
REMARK    1  A    between atoms: S_1  and  N_4
REMARK    2  A    between atoms: S_1  and  C_5
REMARK    3  A    between atoms: N_10  and  C_13
REMARK    4  A    between atoms: C_16  and  C_19
REMARK    5  A    between atoms: C_19  and  O_23
REMARK    6  A    between atoms: O_23  and  C_26
REMARK    7  A    between atoms: C_24  and  C_27
REMARK    8  A    between atoms: C_24  and  C_28
REMARK    9  A    between atoms: C_26  and  C_29
REMARK                            x       y       z     vdW  Elec       q    Type
REMARK                         _______ _______ _______ _____ _____    ______ ____
ROOT
ATOM      1  C   UNL     1     -10.853  54.953  50.411  0.00  0.00    +0.000 A 
ATOM      2  S   UNL     1     -11.481  55.027  51.988  0.00  0.00    +0.000 S 
ATOM      3  C   UNL     1     -11.577  55.696  49.493  0.00  0.00    +0.000 A 
ATOM      4  C   UNL     1     -12.556  56.276  51.550  0.00  0.00    +0.000 A 
ATOM      5  C   UNL     1     -12.505  56.556  50.195  0.00  0.00    +0.000 A 
ATOM      6  C   UNL     1     -13.445  56.971  52.552  0.00  0.00    +0.000 C 
ATOM      7  C   UNL     1     -13.395  57.590  49.567  0.00  0.00    +0.000 C 
ATOM      8  C   UNL     1     -14.606  57.731  51.840  0.00  0.00    +0.000 C 
ATOM      9  C   UNL     1     -14.045  58.502  50.616  0.00  0.00    +0.000 C 
ATOM     10  C   UNL     1     -15.245  58.754  52.798  0.00  0.00    +0.000 C 
ATOM     11  C   UNL     1     -15.706  56.737  51.411  0.00  0.00    +0.000 C 
ENDROOT
BRANCH   1  15
ATOM     12  N   UNL     1      -7.414  53.949  50.140  0.00  0.00    +0.000 N 
ATOM     13  C   UNL     1      -8.493  54.799  50.335  0.00  0.00    +0.000 C 
ATOM     14  O   UNL     1      -8.333  55.983  50.587  0.00  0.00    +0.000 OA
ATOM     15  N   UNL     1      -9.722  54.171  50.271  0.00  0.00    +0.000 N 
ATOM     16  H   UNL     1      -7.583  53.021  49.858  0.00  0.00    +0.000 HD
ATOM     17  H   UNL     1      -9.790  53.199  50.131  0.00  0.00    +0.000 HD
BRANCH  12  18
ATOM     18  S   UNL     1      -5.837  54.452  50.369  0.00  0.00    +0.000 S 
ATOM     19  O   UNL     1      -5.600  54.595  51.790  0.00  0.00    +0.000 OA
ATOM     20  O   UNL     1      -5.655  55.590  49.489  0.00  0.00    +0.000 OA
BRANCH  18  21
ATOM     21  C   UNL     1      -4.840  53.101  49.739  0.00  0.00    +0.000 A 
ATOM     22  N   UNL     1      -4.359  52.255  50.696  0.00  0.00    +0.000 NA
ATOM     23  C   UNL     1      -4.597  52.980  48.376  0.00  0.00    +0.000 A 
ATOM     24  C   UNL     1      -3.624  51.220  50.240  0.00  0.00    +0.000 A 
ATOM     25  C   UNL     1      -3.817  51.910  47.956  0.00  0.00    +0.000 A 
ATOM     26  C   UNL     1      -3.327  51.007  48.898  0.00  0.00    +0.000 A 
ENDBRANCH  18  21
ENDBRANCH  12  18
ENDBRANCH   1  15
BRANCH   3  27
ATOM     27  C   UNL     1     -11.461  55.583  48.029  0.00  0.00    +0.000 C 
ATOM     28  O   UNL     1     -12.368  55.180  47.310  0.00  0.00    +0.000 OA
BRANCH  27  29
ATOM     29  O   UNL     1     -10.191  55.820  47.590  0.00  0.00    +0.000 OA
BRANCH  29  30
ATOM     30  C   UNL     1      -9.656  54.955  46.584  0.00  0.00    +0.000 C 
ATOM     31  C   UNL     1      -8.148  54.864  46.693  0.00  0.00    +0.000 C 
ENDBRANCH  29  30
ENDBRANCH  27  29
ENDBRANCH   3  27
TORSDOF 6
ENDMDL
MODEL 4
REMARK VINA RESULT:      -7.1      2.415      3.109
REMARK  Name = 
REMARK  9 active torsions:
REMARK  status: ('A' for Active; 'I' for Inactive)
REMARK    1  A    between atoms: S_1  and  N_4
REMARK    2  A    between atoms: S_1  and  C_5
REMARK    3  A    between atoms: N_10  and  C_13
REMARK    4  A    between atoms: C_16  and  C_19
REMARK    5  A    between atoms: C_19  and  O_23
REMARK    6  A    between atoms: O_23  and  C_26
REMARK    7  A    between atoms: C_24  and  C_27
REMARK    8  A    between atoms: C_24  and  C_28
REMARK    9  A    between atoms: C_26  and  C_29
REMARK                            x       y       z     vdW  Elec       q    Type
REMARK                         _______ _______ _______ _____ _____    ______ ____
ROOT
ATOM      1  C   UNL     1      -9.984  54.935  50.631  0.00  0.00    +0.000 A 
ATOM      2  S   UNL     1      -9.858  54.971  52.325  0.00  0.00    +0.000 S 
ATOM      3  C   UNL     1      -9.554  53.744  50.070  0.00  0.00    +0.000 A 
ATOM      4  C   UNL     1      -9.505  53.303  52.379  0.00  0.00    +0.000 A 
ATOM      5  C   UNL     1      -9.383  52.755  51.114  0.00  0.00    +0.000 A 
ATOM      6  C   UNL     1      -9.350  52.548  53.676  0.00  0.00    +0.000 C 
ATOM      7  C   UNL     1      -9.031  51.310  50.909  0.00  0.00    +0.000 C 
ATOM      8  C   UNL     1      -8.614  51.191  53.451  0.00  0.00    +0.000 C 
ATOM      9  C   UNL     1      -9.196  50.490  52.194  0.00  0.00    +0.000 C 
ATOM     10  C   UNL     1      -8.825  50.259  54.659  0.00  0.00    +0.000 C 
ATOM     11  C   UNL     1      -7.097  51.429  53.298  0.00  0.00    +0.000 C 
ENDROOT
BRANCH   1  15
ATOM     12  N   UNL     1     -12.271  57.326  49.231  0.00  0.00    +0.000 N 
ATOM     13  C   UNL     1     -11.853  56.155  49.848  0.00  0.00    +0.000 C 
ATOM     14  O   UNL     1     -12.652  55.303  50.201  0.00  0.00    +0.000 OA
ATOM     15  N   UNL     1     -10.490  56.088  50.061  0.00  0.00    +0.000 N 
ATOM     16  H   UNL     1     -11.594  57.951  48.887  0.00  0.00    +0.000 HD
ATOM     17  H   UNL     1      -9.900  56.836  49.815  0.00  0.00    +0.000 HD
BRANCH  12  18
ATOM     18  S   UNL     1     -13.889  57.707  49.055  0.00  0.00    +0.000 S 
ATOM     19  O   UNL     1     -14.552  56.606  48.389  0.00  0.00    +0.000 OA
ATOM     20  O   UNL     1     -13.919  59.032  48.465  0.00  0.00    +0.000 OA
BRANCH  18  21
ATOM     21  C   UNL     1     -14.504  57.835  50.735  0.00  0.00    +0.000 A 
ATOM     22  N   UNL     1     -14.138  58.975  51.389  0.00  0.00    +0.000 NA
ATOM     23  C   UNL     1     -15.278  56.818  51.281  0.00  0.00    +0.000 A 
ATOM     24  C   UNL     1     -14.609  59.100  52.647  0.00  0.00    +0.000 A 
ATOM     25  C   UNL     1     -15.723  56.983  52.587  0.00  0.00    +0.000 A 
ATOM     26  C   UNL     1     -15.394  58.144  53.283  0.00  0.00    +0.000 A 
ENDBRANCH  18  21
ENDBRANCH  12  18
ENDBRANCH   1  15
BRANCH   3  27
ATOM     27  C   UNL     1      -9.261  53.534  48.642  0.00  0.00    +0.000 C 
ATOM     28  O   UNL     1      -8.129  53.360  48.205  0.00  0.00    +0.000 OA
BRANCH  27  29
ATOM     29  O   UNL     1     -10.360  53.718  47.855  0.00  0.00    +0.000 OA
BRANCH  29  30
ATOM     30  C   UNL     1     -10.287  54.702  46.819  0.00  0.00    +0.000 C 
ATOM     31  C   UNL     1     -11.671  55.090  46.341  0.00  0.00    +0.000 C 
ENDBRANCH  29  30
ENDBRANCH  27  29
ENDBRANCH   3  27
TORSDOF 6
ENDMDL
MODEL 5
REMARK VINA RESULT:      -6.9      3.204      8.111
REMARK  Name = 
REMARK  9 active torsions:
REMARK  status: ('A' for Active; 'I' for Inactive)
REMARK    1  A    between atoms: S_1  and  N_4
REMARK    2  A    between atoms: S_1  and  C_5
REMARK    3  A    between atoms: N_10  and  C_13
REMARK    4  A    between atoms: C_16  and  C_19
REMARK    5  A    between atoms: C_19  and  O_23
REMARK    6  A    between atoms: O_23  and  C_26
REMARK    7  A    between atoms: C_24  and  C_27
REMARK    8  A    between atoms: C_24  and  C_28
REMARK    9  A    between atoms: C_26  and  C_29
REMARK                            x       y       z     vdW  Elec       q    Type
REMARK                         _______ _______ _______ _____ _____    ______ ____
ROOT
ATOM      1  C   UNL     1     -10.931  55.009  50.378  0.00  0.00    +0.000 A 
ATOM      2  S   UNL     1     -11.501  55.093  51.977  0.00  0.00    +0.000 S 
ATOM      3  C   UNL     1     -11.694  55.740  49.481  0.00  0.00    +0.000 A 
ATOM      4  C   UNL     1     -12.598  56.334  51.568  0.00  0.00    +0.000 A 
ATOM      5  C   UNL     1     -12.599  56.602  50.210  0.00  0.00    +0.000 A 
ATOM      6  C   UNL     1     -13.453  57.033  52.596  0.00  0.00    +0.000 C 
ATOM      7  C   UNL     1     -13.517  57.626  49.607  0.00  0.00    +0.000 C 
ATOM      8  C   UNL     1     -14.644  57.782  51.921  0.00  0.00    +0.000 C 
ATOM      9  C   UNL     1     -14.132  58.544  50.670  0.00  0.00    +0.000 C 
ATOM     10  C   UNL     1     -15.251  58.810  52.893  0.00  0.00    +0.000 C 
ATOM     11  C   UNL     1     -15.754  56.779  51.542  0.00  0.00    +0.000 C 
ENDROOT
BRANCH   1  15
ATOM     12  N   UNL     1      -7.495  54.004  50.091  0.00  0.00    +0.000 N 
ATOM     13  C   UNL     1      -8.572  54.846  50.326  0.00  0.00    +0.000 C 
ATOM     14  O   UNL     1      -8.409  56.009  50.660  0.00  0.00    +0.000 OA
ATOM     15  N   UNL     1      -9.803  54.231  50.203  0.00  0.00    +0.000 N 
ATOM     16  H   UNL     1      -7.664  53.098  49.746  0.00  0.00    +0.000 HD
ATOM     17  H   UNL     1      -9.873  53.271  49.997  0.00  0.00    +0.000 HD
BRANCH  12  18
ATOM     18  S   UNL     1      -5.918  54.480  50.377  0.00  0.00    +0.000 S 
ATOM     19  O   UNL     1      -5.728  54.610  51.806  0.00  0.00    +0.000 OA
ATOM     20  O   UNL     1      -5.689  55.622  49.512  0.00  0.00    +0.000 OA
BRANCH  18  21
ATOM     21  C   UNL     1      -4.921  53.118  49.772  0.00  0.00    +0.000 A 
ATOM     22  N   UNL     1      -4.755  53.093  48.418  0.00  0.00    +0.000 NA
ATOM     23  C   UNL     1      -4.395  52.183  50.655  0.00  0.00    +0.000 A 
ATOM     24  C   UNL     1      -3.990  52.088  47.945  0.00  0.00    +0.000 A 
ATOM     25  C   UNL     1      -3.631  51.154  50.119  0.00  0.00    +0.000 A 
ATOM     26  C   UNL     1      -3.414  51.106  48.743  0.00  0.00    +0.000 A 
ENDBRANCH  18  21
ENDBRANCH  12  18
ENDBRANCH   1  15
BRANCH   3  27
ATOM     27  C   UNL     1     -11.631  55.615  48.015  0.00  0.00    +0.000 C 
ATOM     28  O   UNL     1     -12.341  56.261  47.252  0.00  0.00    +0.000 OA
BRANCH  27  29
ATOM     29  O   UNL     1     -10.820  54.592  47.615  0.00  0.00    +0.000 OA
BRANCH  29  30
ATOM     30  C   UNL     1     -11.382  53.577  46.779  0.00  0.00    +0.000 C 
ATOM     31  C   UNL     1     -12.188  52.587  47.594  0.00  0.00    +0.000 C 
ENDBRANCH  29  30
ENDBRANCH  27  29
ENDBRANCH   3  27
TORSDOF 6
ENDMDL
MODEL 6
REMARK VINA RESULT:      -6.8      2.301      2.980
REMARK  Name = 
REMARK  9 active torsions:
REMARK  status: ('A' for Active; 'I' for Inactive)
REMARK    1  A    between atoms: S_1  and  N_4
REMARK    2  A    between atoms: S_1  and  C_5
REMARK    3  A    between atoms: N_10  and  C_13
REMARK    4  A    between atoms: C_16  and  C_19
REMARK    5  A    between atoms: C_19  and  O_23
REMARK    6  A    between atoms: O_23  and  C_26
REMARK    7  A    between atoms: C_24  and  C_27
REMARK    8  A    between atoms: C_24  and  C_28
REMARK    9  A    between atoms: C_26  and  C_29
REMARK                            x       y       z     vdW  Elec       q    Type
REMARK                         _______ _______ _______ _____ _____    ______ ____
ROOT
ATOM      1  C   UNL     1      -8.429  55.729  49.923  0.00  0.00    +0.000 A 
ATOM      2  S   UNL     1      -7.898  56.057  51.504  0.00  0.00    +0.000 S 
ATOM      3  C   UNL     1      -7.724  54.710  49.304  0.00  0.00    +0.000 A 
ATOM      4  C   UNL     1      -6.917  54.661  51.511  0.00  0.00    +0.000 A 
ATOM      5  C   UNL     1      -6.918  54.017  50.286  0.00  0.00    +0.000 A 
ATOM      6  C   UNL     1      -6.151  54.214  52.732  0.00  0.00    +0.000 C 
ATOM      7  C   UNL     1      -6.092  52.788  50.038  0.00  0.00    +0.000 C 
ATOM      8  C   UNL     1      -5.026  53.203  52.349  0.00  0.00    +0.000 C 
ATOM      9  C   UNL     1      -5.586  52.162  51.344  0.00  0.00    +0.000 C 
ATOM     10  C   UNL     1      -4.537  52.447  53.599  0.00  0.00    +0.000 C 
ATOM     11  C   UNL     1      -3.819  53.955  51.751  0.00  0.00    +0.000 C 
ENDROOT
BRANCH   1  15
ATOM     12  N   UNL     1     -11.732  56.829  49.039  0.00  0.00    +0.000 N 
ATOM     13  C   UNL     1     -10.748  55.988  49.539  0.00  0.00    +0.000 C 
ATOM     14  O   UNL     1     -11.026  54.901  50.020  0.00  0.00    +0.000 OA
ATOM     15  N   UNL     1      -9.475  56.520  49.485  0.00  0.00    +0.000 N 
ATOM     16  H   UNL     1     -11.464  57.661  48.586  0.00  0.00    +0.000 HD
ATOM     17  H   UNL     1      -9.318  57.430  49.147  0.00  0.00    +0.000 HD
BRANCH  12  18
ATOM     18  S   UNL     1     -13.359  56.475  49.185  0.00  0.00    +0.000 S 
ATOM     19  O   UNL     1     -13.499  55.066  49.487  0.00  0.00    +0.000 OA
ATOM     20  O   UNL     1     -13.989  57.025  47.999  0.00  0.00    +0.000 OA
BRANCH  18  21
ATOM     21  C   UNL     1     -13.903  57.437  50.597  0.00  0.00    +0.000 A 
ATOM     22  N   UNL     1     -13.613  56.882  51.808  0.00  0.00    +0.000 NA
ATOM     23  C   UNL     1     -14.574  58.641  50.413  0.00  0.00    +0.000 A 
ATOM     24  C   UNL     1     -13.996  57.601  52.884  0.00  0.00    +0.000 A 
ATOM     25  C   UNL     1     -14.966  59.335  51.551  0.00  0.00    +0.000 A 
ATOM     26  C   UNL     1     -14.667  58.816  52.809  0.00  0.00    +0.000 A 
ENDBRANCH  18  21
ENDBRANCH  12  18
ENDBRANCH   1  15
BRANCH   3  27
ATOM     27  C   UNL     1      -7.749  54.415  47.861  0.00  0.00    +0.000 C 
ATOM     28  O   UNL     1      -6.801  54.627  47.113  0.00  0.00    +0.000 OA
BRANCH  27  29
ATOM     29  O   UNL     1      -8.988  54.038  47.429  0.00  0.00    +0.000 OA
BRANCH  29  30
ATOM     30  C   UNL     1      -9.523  54.689  46.274  0.00  0.00    +0.000 C 
ATOM     31  C   UNL     1     -10.048  53.678  45.275  0.00  0.00    +0.000 C 
ENDBRANCH  29  30
ENDBRANCH  27  29
ENDBRANCH   3  27
TORSDOF 6
ENDMDL
MODEL 7
REMARK VINA RESULT:      -6.8      2.758      4.188
REMARK  Name = 
REMARK  9 active torsions:
REMARK  status: ('A' for Active; 'I' for Inactive)
REMARK    1  A    between atoms: S_1  and  N_4
REMARK    2  A    between atoms: S_1  and  C_5
REMARK    3  A    between atoms: N_10  and  C_13
REMARK    4  A    between atoms: C_16  and  C_19
REMARK    5  A    between atoms: C_19  and  O_23
REMARK    6  A    between atoms: O_23  and  C_26
REMARK    7  A    between atoms: C_24  and  C_27
REMARK    8  A    between atoms: C_24  and  C_28
REMARK    9  A    between atoms: C_26  and  C_29
REMARK                            x       y       z     vdW  Elec       q    Type
REMARK                         _______ _______ _______ _____ _____    ______ ____
ROOT
ATOM      1  C   UNL     1      -8.744  55.804  49.288  0.00  0.00    +0.000 A 
ATOM      2  S   UNL     1      -8.409  55.095  47.780  0.00  0.00    +0.000 S 
ATOM      3  C   UNL     1      -7.841  55.448  50.277  0.00  0.00    +0.000 A 
ATOM      4  C   UNL     1      -6.896  54.534  48.329  0.00  0.00    +0.000 A 
ATOM      5  C   UNL     1      -6.699  54.795  49.675  0.00  0.00    +0.000 A 
ATOM      6  C   UNL     1      -5.911  53.835  47.423  0.00  0.00    +0.000 C 
ATOM      7  C   UNL     1      -5.457  54.353  50.393  0.00  0.00    +0.000 C 
ATOM      8  C   UNL     1      -4.842  53.057  48.250  0.00  0.00    +0.000 C 
ATOM      9  C   UNL     1      -4.343  53.947  49.419  0.00  0.00    +0.000 C 
ATOM     10  C   UNL     1      -3.631  52.706  47.366  0.00  0.00    +0.000 C 
ATOM     11  C   UNL     1      -5.439  51.735  48.778  0.00  0.00    +0.000 C 
ENDROOT
BRANCH   1  15
ATOM     12  N   UNL     1     -12.160  56.914  49.328  0.00  0.00    +0.000 N 
ATOM     13  C   UNL     1     -11.098  56.020  49.352  0.00  0.00    +0.000 C 
ATOM     14  O   UNL     1     -11.282  54.818  49.449  0.00  0.00    +0.000 OA
ATOM     15  N   UNL     1      -9.856  56.624  49.312  0.00  0.00    +0.000 N 
ATOM     16  H   UNL     1     -11.977  57.867  49.167  0.00  0.00    +0.000 HD
ATOM     17  H   UNL     1      -9.767  57.603  49.302  0.00  0.00    +0.000 HD
BRANCH  12  18
ATOM     18  S   UNL     1     -13.739  56.420  49.567  0.00  0.00    +0.000 S 
ATOM     19  O   UNL     1     -13.729  55.042  50.010  0.00  0.00    +0.000 OA
ATOM     20  O   UNL     1     -14.451  56.784  48.356  0.00  0.00    +0.000 OA
BRANCH  18  21
ATOM     21  C   UNL     1     -14.339  57.463  50.896  0.00  0.00    +0.000 A 
ATOM     22  N   UNL     1     -14.667  58.732  50.520  0.00  0.00    +0.000 NA
ATOM     23  C   UNL     1     -14.430  56.969  52.192  0.00  0.00    +0.000 A 
ATOM     24  C   UNL     1     -15.141  59.526  51.502  0.00  0.00    +0.000 A 
ATOM     25  C   UNL     1     -14.904  57.830  53.174  0.00  0.00    +0.000 A 
ATOM     26  C   UNL     1     -15.276  59.128  52.828  0.00  0.00    +0.000 A 
ENDBRANCH  18  21
ENDBRANCH  12  18
ENDBRANCH   1  15
BRANCH   3  27
ATOM     27  C   UNL     1      -8.042  55.652  51.722  0.00  0.00    +0.000 C 
ATOM     28  O   UNL     1      -7.202  56.165  52.453  0.00  0.00    +0.000 OA
BRANCH  27  29
ATOM     29  O   UNL     1      -9.187  55.064  52.175  0.00  0.00    +0.000 OA
BRANCH  29  30
ATOM     30  C   UNL     1      -9.241  53.634  52.204  0.00  0.00    +0.000 C 
ATOM     31  C   UNL     1      -8.487  53.087  53.398  0.00  0.00    +0.000 C 
ENDBRANCH  29  30
ENDBRANCH  27  29
ENDBRANCH   3  27
TORSDOF 6
ENDMDL
MODEL 8
REMARK VINA RESULT:      -6.7      1.608      1.839
REMARK  Name = 
REMARK  9 active torsions:
REMARK  status: ('A' for Active; 'I' for Inactive)
REMARK    1  A    between atoms: S_1  and  N_4
REMARK    2  A    between atoms: S_1  and  C_5
REMARK    3  A    between atoms: N_10  and  C_13
REMARK    4  A    between atoms: C_16  and  C_19
REMARK    5  A    between atoms: C_19  and  O_23
REMARK    6  A    between atoms: O_23  and  C_26
REMARK    7  A    between atoms: C_24  and  C_27
REMARK    8  A    between atoms: C_24  and  C_28
REMARK    9  A    between atoms: C_26  and  C_29
REMARK                            x       y       z     vdW  Elec       q    Type
REMARK                         _______ _______ _______ _____ _____    ______ ____
ROOT
ATOM      1  C   UNL     1     -11.126  53.493  50.912  0.00  0.00    +0.000 A 
ATOM      2  S   UNL     1     -10.460  52.821  52.323  0.00  0.00    +0.000 S 
ATOM      3  C   UNL     1     -10.215  53.616  49.875  0.00  0.00    +0.000 A 
ATOM      4  C   UNL     1      -9.024  52.407  51.501  0.00  0.00    +0.000 A 
ATOM      5  C   UNL     1      -9.017  52.871  50.196  0.00  0.00    +0.000 A 
ATOM      6  C   UNL     1      -7.910  51.626  52.155  0.00  0.00    +0.000 C 
ATOM      7  C   UNL     1      -7.837  52.666  49.290  0.00  0.00    +0.000 C 
ATOM      8  C   UNL     1      -6.579  51.769  51.355  0.00  0.00    +0.000 C 
ATOM      9  C   UNL     1      -6.868  51.611  49.838  0.00  0.00    +0.000 C 
ATOM     10  C   UNL     1      -5.583  50.669  51.769  0.00  0.00    +0.000 C 
ATOM     11  C   UNL     1      -5.924  53.134  51.654  0.00  0.00    +0.000 C 
ENDROOT
BRANCH   1  15
ATOM     12  N   UNL     1     -14.161  55.283  51.612  0.00  0.00    +0.000 N 
ATOM     13  C   UNL     1     -12.795  55.055  51.519  0.00  0.00    +0.000 C 
ATOM     14  O   UNL     1     -11.985  55.913  51.831  0.00  0.00    +0.000 OA
ATOM     15  N   UNL     1     -12.467  53.819  50.999  0.00  0.00    +0.000 N 
ATOM     16  H   UNL     1     -14.782  54.542  51.429  0.00  0.00    +0.000 HD
ATOM     17  H   UNL     1     -13.163  53.191  50.700  0.00  0.00    +0.000 HD
BRANCH  12  18
ATOM     18  S   UNL     1     -14.784  56.778  52.025  0.00  0.00    +0.000 S 
ATOM     19  O   UNL     1     -14.049  57.285  53.165  0.00  0.00    +0.000 OA
ATOM     20  O   UNL     1     -16.220  56.594  52.115  0.00  0.00    +0.000 OA
BRANCH  18  21
ATOM     21  C   UNL     1     -14.448  57.813  50.600  0.00  0.00    +0.000 A 
ATOM     22  N   UNL     1     -14.457  57.156  49.405  0.00  0.00    +0.000 NA
ATOM     23  C   UNL     1     -14.192  59.170  50.759  0.00  0.00    +0.000 A 
ATOM     24  C   UNL     1     -14.226  57.922  48.318  0.00  0.00    +0.000 A 
ATOM     25  C   UNL     1     -13.940  59.914  49.613  0.00  0.00    +0.000 A 
ATOM     26  C   UNL     1     -13.965  59.286  48.369  0.00  0.00    +0.000 A 
ENDBRANCH  18  21
ENDBRANCH  12  18
ENDBRANCH   1  15
BRANCH   3  27
ATOM     27  C   UNL     1     -10.414  54.426  48.661  0.00  0.00    +0.000 C 
ATOM     28  O   UNL     1      -9.705  55.380  48.363  0.00  0.00    +0.000 OA
BRANCH  27  29
ATOM     29  O   UNL     1     -11.564  54.099  48.002  0.00  0.00    +0.000 OA
BRANCH  29  30
ATOM     30  C   UNL     1     -11.466  53.218  46.879  0.00  0.00    +0.000 C 
ATOM     31  C   UNL     1     -11.635  53.975  45.578  0.00  0.00    +0.000 C 
ENDBRANCH  29  30
ENDBRANCH  27  29
ENDBRANCH   3  27
TORSDOF 6
ENDMDL
MODEL 9
REMARK VINA RESULT:      -6.7      3.141      3.954
REMARK  Name = 
REMARK  9 active torsions:
REMARK  status: ('A' for Active; 'I' for Inactive)
REMARK    1  A    between atoms: S_1  and  N_4
REMARK    2  A    between atoms: S_1  and  C_5
REMARK    3  A    between atoms: N_10  and  C_13
REMARK    4  A    between atoms: C_16  and  C_19
REMARK    5  A    between atoms: C_19  and  O_23
REMARK    6  A    between atoms: O_23  and  C_26
REMARK    7  A    between atoms: C_24  and  C_27
REMARK    8  A    between atoms: C_24  and  C_28
REMARK    9  A    between atoms: C_26  and  C_29
REMARK                            x       y       z     vdW  Elec       q    Type
REMARK                         _______ _______ _______ _____ _____    ______ ____
ROOT
ATOM      1  C   UNL     1      -8.236  54.824  48.678  0.00  0.00    +0.000 A 
ATOM      2  S   UNL     1      -7.179  54.360  49.925  0.00  0.00    +0.000 S 
ATOM      3  C   UNL     1      -8.003  54.164  47.482  0.00  0.00    +0.000 A 
ATOM      4  C   UNL     1      -6.578  53.064  48.993  0.00  0.00    +0.000 A 
ATOM      5  C   UNL     1      -7.103  53.054  47.712  0.00  0.00    +0.000 A 
ATOM      6  C   UNL     1      -5.586  52.064  49.537  0.00  0.00    +0.000 C 
ATOM      7  C   UNL     1      -6.687  52.032  46.694  0.00  0.00    +0.000 C 
ATOM      8  C   UNL     1      -4.888  51.281  48.383  0.00  0.00    +0.000 C 
ATOM      9  C   UNL     1      -5.949  50.849  47.335  0.00  0.00    +0.000 C 
ATOM     10  C   UNL     1      -4.212  50.010  48.929  0.00  0.00    +0.000 C 
ATOM     11  C   UNL     1      -3.795  52.155  47.734  0.00  0.00    +0.000 C 
ENDROOT
BRANCH   1  15
ATOM     12  N   UNL     1     -11.261  56.377  49.834  0.00  0.00    +0.000 N 
ATOM     13  C   UNL     1     -10.370  55.352  49.550  0.00  0.00    +0.000 C 
ATOM     14  O   UNL     1     -10.641  54.188  49.796  0.00  0.00    +0.000 OA
ATOM     15  N   UNL     1      -9.166  55.784  49.030  0.00  0.00    +0.000 N 
ATOM     16  H   UNL     1     -11.042  57.293  49.548  0.00  0.00    +0.000 HD
ATOM     17  H   UNL     1      -8.976  56.743  48.915  0.00  0.00    +0.000 HD
BRANCH  12  18
ATOM     18  S   UNL     1     -12.695  56.105  50.649  0.00  0.00    +0.000 S 
ATOM     19  O   UNL     1     -12.392  55.838  52.040  0.00  0.00    +0.000 OA
ATOM     20  O   UNL     1     -13.412  55.118  49.864  0.00  0.00    +0.000 OA
BRANCH  18  21
ATOM     21  C   UNL     1     -13.582  57.658  50.528  0.00  0.00    +0.000 A 
ATOM     22  N   UNL     1     -13.324  58.374  49.396  0.00  0.00    +0.000 NA
ATOM     23  C   UNL     1     -14.443  58.059  51.543  0.00  0.00    +0.000 A 
ATOM     24  C   UNL     1     -13.999  59.536  49.276  0.00  0.00    +0.000 A 
ATOM     25  C   UNL     1     -15.099  59.274  51.385  0.00  0.00    +0.000 A 
ATOM     26  C   UNL     1     -14.884  60.024  50.231  0.00  0.00    +0.000 A 
ENDBRANCH  18  21
ENDBRANCH  12  18
ENDBRANCH   1  15
BRANCH   3  27
ATOM     27  C   UNL     1      -8.541  54.566  46.172  0.00  0.00    +0.000 C 
ATOM     28  O   UNL     1      -7.842  54.976  45.252  0.00  0.00    +0.000 OA
BRANCH  27  29
ATOM     29  O   UNL     1      -9.906  54.585  46.155  0.00  0.00    +0.000 OA
BRANCH  29  30
ATOM     30  C   UNL     1     -10.595  53.331  46.150  0.00  0.00    +0.000 C 
ATOM     31  C   UNL     1     -11.605  53.272  45.023  0.00  0.00    +0.000 C 
ENDBRANCH  29  30
ENDBRANCH  27  29
ENDBRANCH   3  27
TORSDOF 6
ENDMDL
