MODEL 1
REMARK VINA RESULT:      -7.9      0.000      0.000
REMARK  Name = 
REMARK  9 active torsions:
REMARK  status: ('A' for Active; 'I' for Inactive)
REMARK    1  A    between atoms: S_1  and  N_4
REMARK    2  A    between atoms: S_1  and  C_5
REMARK    3  A    between atoms: N_10  and  C_13
REMARK    4  A    between atoms: C_16  and  C_20
REMARK    5  A    between atoms: C_20  and  O_24
REMARK    6  A    between atoms: O_24  and  C_27
REMARK    7  A    between atoms: C_25  and  C_28
REMARK    8  A    between atoms: C_25  and  C_29
REMARK    9  A    between atoms: C_27  and  C_30
REMARK                            x       y       z     vdW  Elec       q    Type
REMARK                         _______ _______ _______ _____ _____    ______ ____
ROOT
ATOM      1  N   UNL     1     -14.400  55.184  51.160  0.00  0.00    +0.000 N 
ATOM      2  C   UNL     1     -13.098  55.299  51.624  0.00  0.00    +0.000 C 
ATOM      3  O   UNL     1     -12.723  56.298  52.224  0.00  0.00    +0.000 OA
ATOM      4  N   UNL     1     -12.283  54.256  51.245  0.00  0.00    +0.000 N 
ATOM      5  H   UNL     1     -14.653  54.355  50.693  0.00  0.00    +0.000 HD
ATOM      6  H   UNL     1     -12.644  53.487  50.746  0.00  0.00    +0.000 HD
ENDROOT
BRANCH   4   7
ATOM      7  C   UNL     1     -10.943  54.317  51.582  0.00  0.00    +0.000 A 
ATOM      8  S   UNL     1     -10.538  53.602  53.069  0.00  0.00    +0.000 S 
ATOM      9  C   UNL     1      -9.851  54.816  50.893  0.00  0.00    +0.000 A 
ATOM     10  C   UNL     1      -8.873  53.699  52.712  0.00  0.00    +0.000 A 
ATOM     11  C   UNL     1      -8.630  54.368  51.525  0.00  0.00    +0.000 A 
ATOM     12  C   UNL     1      -7.814  53.112  53.611  0.00  0.00    +0.000 C 
ATOM     13  C   UNL     1      -7.234  54.626  51.034  0.00  0.00    +0.000 C 
ATOM     14  C   UNL     1      -6.417  53.736  53.310  0.00  0.00    +0.000 C 
ATOM     15  C   UNL     1      -6.192  53.787  51.778  0.00  0.00    +0.000 C 
ATOM     16  C   UNL     1      -5.296  52.875  53.920  0.00  0.00    +0.000 C 
ATOM     17  C   UNL     1      -6.325  55.147  53.927  0.00  0.00    +0.000 C 
BRANCH   9  18
ATOM     18  C   UNL     1      -9.983  55.664  49.707  0.00  0.00    +0.000 C 
ATOM     19  O   UNL     1      -9.560  56.814  49.654  0.00  0.00    +0.000 OA
BRANCH  18  20
ATOM     20  O   UNL     1     -10.622  55.028  48.688  0.00  0.00    +0.000 OA
BRANCH  20  21
ATOM     21  C   UNL     1     -11.682  55.737  48.040  0.00  0.00    +0.000 C 
ATOM     22  C   UNL     1     -11.645  55.455  46.552  0.00  0.00    +0.000 C 
ENDBRANCH  20  21
ENDBRANCH  18  20
ENDBRANCH   9  18
ENDBRANCH   4   7
BRANCH   1  23
ATOM     23  S   UNL     1     -15.560  56.365  51.348  0.00  0.00    +0.000 S 
ATOM     24  O   UNL     1     -15.838  56.541  52.755  0.00  0.00    +0.000 OA
ATOM     25  O   UNL     1     -16.618  56.010  50.424  0.00  0.00    +0.000 OA
BRANCH  23  26
ATOM     26  C   UNL     1     -14.803  57.848  50.708  0.00  0.00    +0.000 A 
ATOM     27  C   UNL     1     -14.645  58.960  51.543  0.00  0.00    +0.000 A 
ATOM     28  C   UNL     1     -14.340  57.874  49.385  0.00  0.00    +0.000 A 
ATOM     29  C   UNL     1     -14.037  60.114  51.042  0.00  0.00    +0.000 A 
ATOM     30  C   UNL     1     -13.728  59.030  48.895  0.00  0.00    +0.000 A 
ATOM     31  C   UNL     1     -13.583  60.138  49.719  0.00  0.00    +0.000 A 
ATOM     32  F   UNL     1     -13.005  61.250  49.244  0.00  0.00    +0.000 F 
ENDBRANCH  23  26
ENDBRANCH   1  23
TORSDOF 6
ENDMDL
MODEL 2
REMARK VINA RESULT:      -7.5      4.325      7.712
REMARK  Name = 
REMARK  9 active torsions:
REMARK  status: ('A' for Active; 'I' for Inactive)
REMARK    1  A    between atoms: S_1  and  N_4
REMARK    2  A    between atoms: S_1  and  C_5
REMARK    3  A    between atoms: N_10  and  C_13
REMARK    4  A    between atoms: C_16  and  C_20
REMARK    5  A    between atoms: C_20  and  O_24
REMARK    6  A    between atoms: O_24  and  C_27
REMARK    7  A    between atoms: C_25  and  C_28
REMARK    8  A    between atoms: C_25  and  C_29
REMARK    9  A    between atoms: C_27  and  C_30
REMARK                            x       y       z     vdW  Elec       q    Type
REMARK                         _______ _______ _______ _____ _____    ______ ____
ROOT
ATOM      1  N   UNL     1      -9.658  51.754  48.622  0.00  0.00    +0.000 N 
ATOM      2  C   UNL     1     -10.736  52.588  48.881  0.00  0.00    +0.000 C 
ATOM      3  O   UNL     1     -11.837  52.375  48.389  0.00  0.00    +0.000 OA
ATOM      4  N   UNL     1     -10.408  53.698  49.627  0.00  0.00    +0.000 N 
ATOM      5  H   UNL     1      -8.797  51.964  49.051  0.00  0.00    +0.000 HD
ATOM      6  H   UNL     1      -9.496  53.820  49.980  0.00  0.00    +0.000 HD
ENDROOT
BRANCH   4   7
ATOM      7  C   UNL     1     -11.393  54.639  49.866  0.00  0.00    +0.000 A 
ATOM      8  S   UNL     1     -12.072  54.594  51.423  0.00  0.00    +0.000 S 
ATOM      9  C   UNL     1     -11.893  55.658  49.075  0.00  0.00    +0.000 A 
ATOM     10  C   UNL     1     -12.853  56.089  51.173  0.00  0.00    +0.000 A 
ATOM     11  C   UNL     1     -12.686  56.558  49.882  0.00  0.00    +0.000 A 
ATOM     12  C   UNL     1     -13.631  56.792  52.258  0.00  0.00    +0.000 C 
ATOM     13  C   UNL     1     -13.332  57.830  49.412  0.00  0.00    +0.000 C 
ATOM     14  C   UNL     1     -14.603  57.850  51.653  0.00  0.00    +0.000 C 
ATOM     15  C   UNL     1     -13.861  58.676  50.573  0.00  0.00    +0.000 C 
ATOM     16  C   UNL     1     -15.085  58.826  52.741  0.00  0.00    +0.000 C 
ATOM     17  C   UNL     1     -15.841  57.151  51.057  0.00  0.00    +0.000 C 
BRANCH   9  18
ATOM     18  C   UNL     1     -11.620  55.752  47.639  0.00  0.00    +0.000 C 
ATOM     19  O   UNL     1     -12.503  55.850  46.793  0.00  0.00    +0.000 OA
BRANCH  18  20
ATOM     20  O   UNL     1     -10.288  55.717  47.365  0.00  0.00    +0.000 OA
BRANCH  20  21
ATOM     21  C   UNL     1      -9.871  54.910  46.259  0.00  0.00    +0.000 C 
ATOM     22  C   UNL     1      -8.361  54.946  46.147  0.00  0.00    +0.000 C 
ENDBRANCH  20  21
ENDBRANCH  18  20
ENDBRANCH   9  18
ENDBRANCH   4   7
BRANCH   1  23
ATOM     23  S   UNL     1      -9.735  50.419  47.629  0.00  0.00    +0.000 S 
ATOM     24  O   UNL     1     -10.992  49.737  47.844  0.00  0.00    +0.000 OA
ATOM     25  O   UNL     1      -8.477  49.728  47.821  0.00  0.00    +0.000 OA
BRANCH  23  26
ATOM     26  C   UNL     1      -9.702  51.083  45.974  0.00  0.00    +0.000 A 
ATOM     27  C   UNL     1     -10.905  51.401  45.332  0.00  0.00    +0.000 A 
ATOM     28  C   UNL     1      -8.471  51.318  45.346  0.00  0.00    +0.000 A 
ATOM     29  C   UNL     1     -10.873  51.937  44.042  0.00  0.00    +0.000 A 
ATOM     30  C   UNL     1      -8.449  51.859  44.058  0.00  0.00    +0.000 A 
ATOM     31  C   UNL     1      -9.642  52.161  43.416  0.00  0.00    +0.000 A 
ATOM     32  F   UNL     1      -9.619  52.671  42.176  0.00  0.00    +0.000 F 
ENDBRANCH  23  26
ENDBRANCH   1  23
TORSDOF 6
ENDMDL
MODEL 3
REMARK VINA RESULT:      -7.4      3.307      7.746
REMARK  Name = 
REMARK  9 active torsions:
REMARK  status: ('A' for Active; 'I' for Inactive)
REMARK    1  A    between atoms: S_1  and  N_4
REMARK    2  A    between atoms: S_1  and  C_5
REMARK    3  A    between atoms: N_10  and  C_13
REMARK    4  A    between atoms: C_16  and  C_20
REMARK    5  A    between atoms: C_20  and  O_24
REMARK    6  A    between atoms: O_24  and  C_27
REMARK    7  A    between atoms: C_25  and  C_28
REMARK    8  A    between atoms: C_25  and  C_29
REMARK    9  A    between atoms: C_27  and  C_30
REMARK                            x       y       z     vdW  Elec       q    Type
REMARK                         _______ _______ _______ _____ _____    ______ ____
ROOT
ATOM      1  N   UNL     1      -8.213  52.989  49.593  0.00  0.00    +0.000 N 
ATOM      2  C   UNL     1      -9.115  54.029  49.761  0.00  0.00    +0.000 C 
ATOM      3  O   UNL     1      -8.746  55.138  50.126  0.00  0.00    +0.000 OA
ATOM      4  N   UNL     1     -10.430  53.654  49.592  0.00  0.00    +0.000 N 
ATOM      5  H   UNL     1      -8.562  52.120  49.288  0.00  0.00    +0.000 HD
ATOM      6  H   UNL     1     -10.662  52.738  49.314  0.00  0.00    +0.000 HD
ENDROOT
BRANCH   4   7
ATOM      7  C   UNL     1     -11.414  54.597  49.824  0.00  0.00    +0.000 A 
ATOM      8  S   UNL     1     -12.047  54.606  51.401  0.00  0.00    +0.000 S 
ATOM      9  C   UNL     1     -11.946  55.580  49.009  0.00  0.00    +0.000 A 
ATOM     10  C   UNL     1     -12.847  56.086  51.117  0.00  0.00    +0.000 A 
ATOM     11  C   UNL     1     -12.722  56.506  49.805  0.00  0.00    +0.000 A 
ATOM     12  C   UNL     1     -13.598  56.825  52.197  0.00  0.00    +0.000 C 
ATOM     13  C   UNL     1     -13.392  57.754  49.305  0.00  0.00    +0.000 C 
ATOM     14  C   UNL     1     -14.596  57.852  51.581  0.00  0.00    +0.000 C 
ATOM     15  C   UNL     1     -13.894  58.640  50.448  0.00  0.00    +0.000 C 
ATOM     16  C   UNL     1     -15.054  58.866  52.645  0.00  0.00    +0.000 C 
ATOM     17  C   UNL     1     -15.846  57.121  51.050  0.00  0.00    +0.000 C 
BRANCH   9  18
ATOM     18  C   UNL     1     -11.717  55.620  47.563  0.00  0.00    +0.000 C 
ATOM     19  O   UNL     1     -12.624  55.585  46.739  0.00  0.00    +0.000 OA
BRANCH  18  20
ATOM     20  O   UNL     1     -10.394  55.701  47.254  0.00  0.00    +0.000 OA
BRANCH  20  21
ATOM     21  C   UNL     1      -9.898  54.787  46.271  0.00  0.00    +0.000 C 
ATOM     22  C   UNL     1      -8.391  54.907  46.183  0.00  0.00    +0.000 C 
ENDBRANCH  20  21
ENDBRANCH  18  20
ENDBRANCH   9  18
ENDBRANCH   4   7
BRANCH   1  23
ATOM     23  S   UNL     1      -6.578  53.123  49.876  0.00  0.00    +0.000 S 
ATOM     24  O   UNL     1      -6.054  54.240  49.122  0.00  0.00    +0.000 OA
ATOM     25  O   UNL     1      -6.047  51.790  49.686  0.00  0.00    +0.000 OA
BRANCH  23  26
ATOM     26  C   UNL     1      -6.448  53.478  51.619  0.00  0.00    +0.000 A 
ATOM     27  C   UNL     1      -7.074  52.635  52.545  0.00  0.00    +0.000 A 
ATOM     28  C   UNL     1      -5.688  54.575  52.048  0.00  0.00    +0.000 A 
ATOM     29  C   UNL     1      -6.955  52.907  53.910  0.00  0.00    +0.000 A 
ATOM     30  C   UNL     1      -5.571  54.836  53.416  0.00  0.00    +0.000 A 
ATOM     31  C   UNL     1      -6.203  54.008  54.334  0.00  0.00    +0.000 A 
ATOM     32  F   UNL     1      -6.097  54.266  55.645  0.00  0.00    +0.000 F 
ENDBRANCH  23  26
ENDBRANCH   1  23
TORSDOF 6
ENDMDL
MODEL 4
REMARK VINA RESULT:      -7.4      2.586      3.264
REMARK  Name = 
REMARK  9 active torsions:
REMARK  status: ('A' for Active; 'I' for Inactive)
REMARK    1  A    between atoms: S_1  and  N_4
REMARK    2  A    between atoms: S_1  and  C_5
REMARK    3  A    between atoms: N_10  and  C_13
REMARK    4  A    between atoms: C_16  and  C_20
REMARK    5  A    between atoms: C_20  and  O_24
REMARK    6  A    between atoms: O_24  and  C_27
REMARK    7  A    between atoms: C_25  and  C_28
REMARK    8  A    between atoms: C_25  and  C_29
REMARK    9  A    between atoms: C_27  and  C_30
REMARK                            x       y       z     vdW  Elec       q    Type
REMARK                         _______ _______ _______ _____ _____    ______ ____
ROOT
ATOM      1  N   UNL     1     -12.346  57.222  49.158  0.00  0.00    +0.000 N 
ATOM      2  C   UNL     1     -11.917  56.030  49.723  0.00  0.00    +0.000 C 
ATOM      3  O   UNL     1     -12.715  55.200  50.138  0.00  0.00    +0.000 OA
ATOM      4  N   UNL     1     -10.549  55.945  49.862  0.00  0.00    +0.000 N 
ATOM      5  H   UNL     1     -11.662  57.850  48.830  0.00  0.00    +0.000 HD
ATOM      6  H   UNL     1      -9.961  56.658  49.522  0.00  0.00    +0.000 HD
ENDROOT
BRANCH   4   7
ATOM      7  C   UNL     1     -10.024  54.834  50.496  0.00  0.00    +0.000 A 
ATOM      8  S   UNL     1      -9.838  54.982  52.178  0.00  0.00    +0.000 S 
ATOM      9  C   UNL     1      -9.667  53.589  50.008  0.00  0.00    +0.000 A 
ATOM     10  C   UNL     1      -9.533  53.311  52.335  0.00  0.00    +0.000 A 
ATOM     11  C   UNL     1      -9.464  52.673  51.109  0.00  0.00    +0.000 A 
ATOM     12  C   UNL     1      -9.361  52.638  53.674  0.00  0.00    +0.000 C 
ATOM     13  C   UNL     1      -9.147  51.210  50.994  0.00  0.00    +0.000 C 
ATOM     14  C   UNL     1      -8.643  51.262  53.520  0.00  0.00    +0.000 C 
ATOM     15  C   UNL     1      -9.267  50.483  52.336  0.00  0.00    +0.000 C 
ATOM     16  C   UNL     1      -8.826  50.412  54.790  0.00  0.00    +0.000 C 
ATOM     17  C   UNL     1      -7.131  51.477  53.303  0.00  0.00    +0.000 C 
BRANCH   9  18
ATOM     18  C   UNL     1      -9.533  53.308  48.577  0.00  0.00    +0.000 C 
ATOM     19  O   UNL     1      -8.462  53.046  48.041  0.00  0.00    +0.000 OA
BRANCH  18  20
ATOM     20  O   UNL     1     -10.727  53.371  47.927  0.00  0.00    +0.000 OA
BRANCH  20  21
ATOM     21  C   UNL     1     -10.693  53.693  46.533  0.00  0.00    +0.000 C 
ATOM     22  C   UNL     1     -11.535  54.926  46.277  0.00  0.00    +0.000 C 
ENDBRANCH  20  21
ENDBRANCH  18  20
ENDBRANCH   9  18
ENDBRANCH   4   7
BRANCH   1  23
ATOM     23  S   UNL     1     -13.947  57.652  49.001  0.00  0.00    +0.000 S 
ATOM     24  O   UNL     1     -14.671  56.572  48.369  0.00  0.00    +0.000 OA
ATOM     25  O   UNL     1     -13.931  58.975  48.413  0.00  0.00    +0.000 OA
BRANCH  23  26
ATOM     26  C   UNL     1     -14.528  57.848  50.676  0.00  0.00    +0.000 A 
ATOM     27  C   UNL     1     -15.246  56.811  51.285  0.00  0.00    +0.000 A 
ATOM     28  C   UNL     1     -14.229  59.022  51.380  0.00  0.00    +0.000 A 
ATOM     29  C   UNL     1     -15.685  56.963  52.603  0.00  0.00    +0.000 A 
ATOM     30  C   UNL     1     -14.668  59.162  52.699  0.00  0.00    +0.000 A 
ATOM     31  C   UNL     1     -15.391  58.140  53.299  0.00  0.00    +0.000 A 
ATOM     32  F   UNL     1     -15.820  58.281  54.562  0.00  0.00    +0.000 F 
ENDBRANCH  23  26
ENDBRANCH   1  23
TORSDOF 6
ENDMDL
MODEL 5
REMARK VINA RESULT:      -7.1      4.433      7.642
REMARK  Name = 
REMARK  9 active torsions:
REMARK  status: ('A' for Active; 'I' for Inactive)
REMARK    1  A    between atoms: S_1  and  N_4
REMARK    2  A    between atoms: S_1  and  C_5
REMARK    3  A    between atoms: N_10  and  C_13
REMARK    4  A    between atoms: C_16  and  C_20
REMARK    5  A    between atoms: C_20  and  O_24
REMARK    6  A    between atoms: O_24  and  C_27
REMARK    7  A    between atoms: C_25  and  C_28
REMARK    8  A    between atoms: C_25  and  C_29
REMARK    9  A    between atoms: C_27  and  C_30
REMARK                            x       y       z     vdW  Elec       q    Type
REMARK                         _______ _______ _______ _____ _____    ______ ____
ROOT
ATOM      1  N   UNL     1      -7.595  55.993  50.326  0.00  0.00    +0.000 N 
ATOM      2  C   UNL     1      -8.104  55.137  49.360  0.00  0.00    +0.000 C 
ATOM      3  O   UNL     1      -8.221  53.937  49.571  0.00  0.00    +0.000 OA
ATOM      4  N   UNL     1      -8.340  55.750  48.149  0.00  0.00    +0.000 N 
ATOM      5  H   UNL     1      -7.532  56.951  50.108  0.00  0.00    +0.000 HD
ATOM      6  H   UNL     1      -8.209  56.720  48.038  0.00  0.00    +0.000 HD
ENDROOT
BRANCH   4   7
ATOM      7  C   UNL     1      -8.765  54.966  47.091  0.00  0.00    +0.000 A 
ATOM      8  S   UNL     1      -7.525  54.209  46.209  0.00  0.00    +0.000 S 
ATOM      9  C   UNL     1     -10.035  54.642  46.649  0.00  0.00    +0.000 A 
ATOM     10  C   UNL     1      -8.651  53.224  45.390  0.00  0.00    +0.000 A 
ATOM     11  C   UNL     1      -9.959  53.547  45.706  0.00  0.00    +0.000 A 
ATOM     12  C   UNL     1      -8.233  52.133  44.436  0.00  0.00    +0.000 C 
ATOM     13  C   UNL     1     -11.124  52.852  45.062  0.00  0.00    +0.000 C 
ATOM     14  C   UNL     1      -9.412  51.728  43.499  0.00  0.00    +0.000 C 
ATOM     15  C   UNL     1     -10.707  51.571  44.335  0.00  0.00    +0.000 C 
ATOM     16  C   UNL     1      -9.125  50.375  42.822  0.00  0.00    +0.000 C 
ATOM     17  C   UNL     1      -9.596  52.786  42.393  0.00  0.00    +0.000 C 
BRANCH   9  18
ATOM     18  C   UNL     1     -11.237  55.341  47.109  0.00  0.00    +0.000 C 
ATOM     19  O   UNL     1     -11.970  55.978  46.361  0.00  0.00    +0.000 OA
BRANCH  18  20
ATOM     20  O   UNL     1     -11.435  55.197  48.447  0.00  0.00    +0.000 OA
BRANCH  20  21
ATOM     21  C   UNL     1     -12.383  54.208  48.862  0.00  0.00    +0.000 C 
ATOM     22  C   UNL     1     -11.659  53.072  49.555  0.00  0.00    +0.000 C 
ENDBRANCH  20  21
ENDBRANCH  18  20
ENDBRANCH   9  18
ENDBRANCH   4   7
BRANCH   1  23
ATOM     23  S   UNL     1      -7.087  55.495  51.831  0.00  0.00    +0.000 S 
ATOM     24  O   UNL     1      -6.915  56.651  52.682  0.00  0.00    +0.000 OA
ATOM     25  O   UNL     1      -5.984  54.591  51.582  0.00  0.00    +0.000 OA
BRANCH  23  26
ATOM     26  C   UNL     1      -8.428  54.500  52.456  0.00  0.00    +0.000 A 
ATOM     27  C   UNL     1      -8.165  53.219  52.957  0.00  0.00    +0.000 A 
ATOM     28  C   UNL     1      -9.729  55.022  52.473  0.00  0.00    +0.000 A 
ATOM     29  C   UNL     1      -9.217  52.450  53.461  0.00  0.00    +0.000 A 
ATOM     30  C   UNL     1     -10.773  54.247  52.984  0.00  0.00    +0.000 A 
ATOM     31  C   UNL     1     -10.514  52.972  53.469  0.00  0.00    +0.000 A 
ATOM     32  F   UNL     1     -11.519  52.226  53.949  0.00  0.00    +0.000 F 
ENDBRANCH  23  26
ENDBRANCH   1  23
TORSDOF 6
ENDMDL
MODEL 6
REMARK VINA RESULT:      -7.0      2.541      3.152
REMARK  Name = 
REMARK  9 active torsions:
REMARK  status: ('A' for Active; 'I' for Inactive)
REMARK    1  A    between atoms: S_1  and  N_4
REMARK    2  A    between atoms: S_1  and  C_5
REMARK    3  A    between atoms: N_10  and  C_13
REMARK    4  A    between atoms: C_16  and  C_20
REMARK    5  A    between atoms: C_20  and  O_24
REMARK    6  A    between atoms: O_24  and  C_27
REMARK    7  A    between atoms: C_25  and  C_28
REMARK    8  A    between atoms: C_25  and  C_29
REMARK    9  A    between atoms: C_27  and  C_30
REMARK                            x       y       z     vdW  Elec       q    Type
REMARK                         _______ _______ _______ _____ _____    ______ ____
ROOT
ATOM      1  N   UNL     1     -11.590  56.830  49.051  0.00  0.00    +0.000 N 
ATOM      2  C   UNL     1     -10.585  55.965  49.458  0.00  0.00    +0.000 C 
ATOM      3  O   UNL     1     -10.839  54.828  49.836  0.00  0.00    +0.000 OA
ATOM      4  N   UNL     1      -9.337  56.548  49.498  0.00  0.00    +0.000 N 
ATOM      5  H   UNL     1     -11.331  57.730  48.747  0.00  0.00    +0.000 HD
ATOM      6  H   UNL     1      -9.202  57.475  49.196  0.00  0.00    +0.000 HD
ENDROOT
BRANCH   4   7
ATOM      7  C   UNL     1      -8.279  55.796  49.975  0.00  0.00    +0.000 A 
ATOM      8  S   UNL     1      -8.004  55.916  51.648  0.00  0.00    +0.000 S 
ATOM      9  C   UNL     1      -7.427  54.912  49.337  0.00  0.00    +0.000 A 
ATOM     10  C   UNL     1      -6.923  54.597  51.608  0.00  0.00    +0.000 A 
ATOM     11  C   UNL     1      -6.692  54.147  50.320  0.00  0.00    +0.000 A 
ATOM     12  C   UNL     1      -6.305  54.015  52.855  0.00  0.00    +0.000 C 
ATOM     13  C   UNL     1      -5.729  53.031  50.032  0.00  0.00    +0.000 C 
ATOM     14  C   UNL     1      -5.039  53.172  52.510  0.00  0.00    +0.000 C 
ATOM     15  C   UNL     1      -5.340  52.260  51.296  0.00  0.00    +0.000 C 
ATOM     16  C   UNL     1      -4.653  52.267  53.694  0.00  0.00    +0.000 C 
ATOM     17  C   UNL     1      -3.847  54.106  52.216  0.00  0.00    +0.000 C 
BRANCH   9  18
ATOM     18  C   UNL     1      -7.333  54.816  47.879  0.00  0.00    +0.000 C 
ATOM     19  O   UNL     1      -6.329  54.419  47.296  0.00  0.00    +0.000 OA
BRANCH  18  20
ATOM     20  O   UNL     1      -8.478  55.214  47.262  0.00  0.00    +0.000 OA
BRANCH  20  21
ATOM     21  C   UNL     1      -9.018  54.341  46.265  0.00  0.00    +0.000 C 
ATOM     22  C   UNL     1      -9.678  53.154  46.935  0.00  0.00    +0.000 C 
ENDBRANCH  20  21
ENDBRANCH  18  20
ENDBRANCH   9  18
ENDBRANCH   4   7
BRANCH   1  23
ATOM     23  S   UNL     1     -13.208  56.436  49.047  0.00  0.00    +0.000 S 
ATOM     24  O   UNL     1     -13.355  55.023  49.312  0.00  0.00    +0.000 OA
ATOM     25  O   UNL     1     -13.739  57.019  47.832  0.00  0.00    +0.000 OA
BRANCH  23  26
ATOM     26  C   UNL     1     -13.903  57.365  50.401  0.00  0.00    +0.000 A 
ATOM     27  C   UNL     1     -14.011  56.770  51.665  0.00  0.00    +0.000 A 
ATOM     28  C   UNL     1     -14.301  58.693  50.199  0.00  0.00    +0.000 A 
ATOM     29  C   UNL     1     -14.541  57.508  52.727  0.00  0.00    +0.000 A 
ATOM     30  C   UNL     1     -14.825  59.424  51.268  0.00  0.00    +0.000 A 
ATOM     31  C   UNL     1     -14.944  58.831  52.517  0.00  0.00    +0.000 A 
ATOM     32  F   UNL     1     -15.456  59.530  53.540  0.00  0.00    +0.000 F 
ENDBRANCH  23  26
ENDBRANCH   1  23
TORSDOF 6
ENDMDL
MODEL 7
REMARK VINA RESULT:      -6.9      3.834      7.650
REMARK  Name = 
REMARK  9 active torsions:
REMARK  status: ('A' for Active; 'I' for Inactive)
REMARK    1  A    between atoms: S_1  and  N_4
REMARK    2  A    between atoms: S_1  and  C_5
REMARK    3  A    between atoms: N_10  and  C_13
REMARK    4  A    between atoms: C_16  and  C_20
REMARK    5  A    between atoms: C_20  and  O_24
REMARK    6  A    between atoms: O_24  and  C_27
REMARK    7  A    between atoms: C_25  and  C_28
REMARK    8  A    between atoms: C_25  and  C_29
REMARK    9  A    between atoms: C_27  and  C_30
REMARK                            x       y       z     vdW  Elec       q    Type
REMARK                         _______ _______ _______ _____ _____    ______ ____
ROOT
ATOM      1  N   UNL     1      -8.170  53.392  49.477  0.00  0.00    +0.000 N 
ATOM      2  C   UNL     1      -9.289  54.210  49.530  0.00  0.00    +0.000 C 
ATOM      3  O   UNL     1      -9.361  55.233  48.862  0.00  0.00    +0.000 OA
ATOM      4  N   UNL     1     -10.217  53.815  50.470  0.00  0.00    +0.000 N 
ATOM      5  H   UNL     1      -8.167  52.575  50.027  0.00  0.00    +0.000 HD
ATOM      6  H   UNL     1     -10.091  52.988  50.989  0.00  0.00    +0.000 HD
ENDROOT
BRANCH   4   7
ATOM      7  C   UNL     1     -11.330  54.613  50.664  0.00  0.00    +0.000 A 
ATOM      8  S   UNL     1     -11.527  55.203  52.246  0.00  0.00    +0.000 S 
ATOM      9  C   UNL     1     -12.294  55.065  49.781  0.00  0.00    +0.000 A 
ATOM     10  C   UNL     1     -12.742  56.286  51.736  0.00  0.00    +0.000 A 
ATOM     11  C   UNL     1     -13.067  56.119  50.401  0.00  0.00    +0.000 A 
ATOM     12  C   UNL     1     -13.370  57.298  52.662  0.00  0.00    +0.000 C 
ATOM     13  C   UNL     1     -14.153  56.922  49.744  0.00  0.00    +0.000 C 
ATOM     14  C   UNL     1     -14.730  57.807  52.094  0.00  0.00    +0.000 C 
ATOM     15  C   UNL     1     -14.574  58.129  50.587  0.00  0.00    +0.000 C 
ATOM     16  C   UNL     1     -15.165  59.100  52.808  0.00  0.00    +0.000 C 
ATOM     17  C   UNL     1     -15.827  56.746  52.319  0.00  0.00    +0.000 C 
BRANCH   9  18
ATOM     18  C   UNL     1     -12.453  54.517  48.433  0.00  0.00    +0.000 C 
ATOM     19  O   UNL     1     -12.531  55.217  47.429  0.00  0.00    +0.000 OA
BRANCH  18  20
ATOM     20  O   UNL     1     -12.501  53.157  48.433  0.00  0.00    +0.000 OA
BRANCH  20  21
ATOM     21  C   UNL     1     -11.806  52.480  47.381  0.00  0.00    +0.000 C 
ATOM     22  C   UNL     1     -11.189  51.207  47.921  0.00  0.00    +0.000 C 
ENDBRANCH  20  21
ENDBRANCH  18  20
ENDBRANCH   9  18
ENDBRANCH   4   7
BRANCH   1  23
ATOM     23  S   UNL     1      -6.832  53.710  48.538  0.00  0.00    +0.000 S 
ATOM     24  O   UNL     1      -5.828  52.699  48.781  0.00  0.00    +0.000 OA
ATOM     25  O   UNL     1      -6.538  55.111  48.755  0.00  0.00    +0.000 OA
BRANCH  23  26
ATOM     26  C   UNL     1      -7.415  53.568  46.858  0.00  0.00    +0.000 A 
ATOM     27  C   UNL     1      -7.852  52.327  46.379  0.00  0.00    +0.000 A 
ATOM     28  C   UNL     1      -7.466  54.708  46.044  0.00  0.00    +0.000 A 
ATOM     29  C   UNL     1      -8.323  52.225  45.068  0.00  0.00    +0.000 A 
ATOM     30  C   UNL     1      -7.944  54.597  44.735  0.00  0.00    +0.000 A 
ATOM     31  C   UNL     1      -8.364  53.363  44.257  0.00  0.00    +0.000 A 
ATOM     32  F   UNL     1      -8.813  53.256  42.998  0.00  0.00    +0.000 F 
ENDBRANCH  23  26
ENDBRANCH   1  23
TORSDOF 6
ENDMDL
MODEL 8
REMARK VINA RESULT:      -6.5      3.807      8.417
REMARK  Name = 
REMARK  9 active torsions:
REMARK  status: ('A' for Active; 'I' for Inactive)
REMARK    1  A    between atoms: S_1  and  N_4
REMARK    2  A    between atoms: S_1  and  C_5
REMARK    3  A    between atoms: N_10  and  C_13
REMARK    4  A    between atoms: C_16  and  C_20
REMARK    5  A    between atoms: C_20  and  O_24
REMARK    6  A    between atoms: O_24  and  C_27
REMARK    7  A    between atoms: C_25  and  C_28
REMARK    8  A    between atoms: C_25  and  C_29
REMARK    9  A    between atoms: C_27  and  C_30
REMARK                            x       y       z     vdW  Elec       q    Type
REMARK                         _______ _______ _______ _____ _____    ______ ____
ROOT
ATOM      1  N   UNL     1      -7.789  53.361  50.084  0.00  0.00    +0.000 N 
ATOM      2  C   UNL     1      -8.813  54.297  50.099  0.00  0.00    +0.000 C 
ATOM      3  O   UNL     1      -8.576  55.498  50.097  0.00  0.00    +0.000 OA
ATOM      4  N   UNL     1     -10.067  53.741  50.229  0.00  0.00    +0.000 N 
ATOM      5  H   UNL     1      -8.034  52.407  50.075  0.00  0.00    +0.000 HD
ATOM      6  H   UNL     1     -10.188  52.763  50.242  0.00  0.00    +0.000 HD
ENDROOT
BRANCH   4   7
ATOM      7  C   UNL     1     -11.151  54.592  50.343  0.00  0.00    +0.000 A 
ATOM      8  S   UNL     1     -11.674  54.886  51.933  0.00  0.00    +0.000 S 
ATOM      9  C   UNL     1     -11.861  55.297  49.388  0.00  0.00    +0.000 A 
ATOM     10  C   UNL     1     -12.681  56.160  51.412  0.00  0.00    +0.000 A 
ATOM     11  C   UNL     1     -12.699  56.284  50.034  0.00  0.00    +0.000 A 
ATOM     12  C   UNL     1     -13.450  57.033  52.372  0.00  0.00    +0.000 C 
ATOM     13  C   UNL     1     -13.561  57.301  49.342  0.00  0.00    +0.000 C 
ATOM     14  C   UNL     1     -14.615  57.772  51.645  0.00  0.00    +0.000 C 
ATOM     15  C   UNL     1     -14.099  58.359  50.307  0.00  0.00    +0.000 C 
ATOM     16  C   UNL     1     -15.132  58.941  52.502  0.00  0.00    +0.000 C 
ATOM     17  C   UNL     1     -15.788  56.801  51.404  0.00  0.00    +0.000 C 
BRANCH   9  18
ATOM     18  C   UNL     1     -11.735  55.035  47.953  0.00  0.00    +0.000 C 
ATOM     19  O   UNL     1     -11.139  55.782  47.184  0.00  0.00    +0.000 OA
BRANCH  18  20
ATOM     20  O   UNL     1     -12.351  53.879  47.586  0.00  0.00    +0.000 OA
BRANCH  20  21
ATOM     21  C   UNL     1     -11.561  52.916  46.880  0.00  0.00    +0.000 C 
ATOM     22  C   UNL     1     -12.440  51.762  46.444  0.00  0.00    +0.000 C 
ENDBRANCH  20  21
ENDBRANCH  18  20
ENDBRANCH   9  18
ENDBRANCH   4   7
BRANCH   1  23
ATOM     23  S   UNL     1      -6.171  53.756  50.078  0.00  0.00    +0.000 S 
ATOM     24  O   UNL     1      -6.019  55.149  50.434  0.00  0.00    +0.000 OA
ATOM     25  O   UNL     1      -5.660  53.255  48.819  0.00  0.00    +0.000 OA
BRANCH  23  26
ATOM     26  C   UNL     1      -5.454  52.741  51.357  0.00  0.00    +0.000 A 
ATOM     27  C   UNL     1      -5.489  53.175  52.688  0.00  0.00    +0.000 A 
ATOM     28  C   UNL     1      -4.894  51.499  51.024  0.00  0.00    +0.000 A 
ATOM     29  C   UNL     1      -4.940  52.369  53.688  0.00  0.00    +0.000 A 
ATOM     30  C   UNL     1      -4.353  50.697  52.032  0.00  0.00    +0.000 A 
ATOM     31  C   UNL     1      -4.376  51.134  53.350  0.00  0.00    +0.000 A 
ATOM     32  F   UNL     1      -3.847  50.368  54.314  0.00  0.00    +0.000 F 
ENDBRANCH  23  26
ENDBRANCH   1  23
TORSDOF 6
ENDMDL
MODEL 9
REMARK VINA RESULT:      -6.4      3.533      7.962
REMARK  Name = 
REMARK  9 active torsions:
REMARK  status: ('A' for Active; 'I' for Inactive)
REMARK    1  A    between atoms: S_1  and  N_4
REMARK    2  A    between atoms: S_1  and  C_5
REMARK    3  A    between atoms: N_10  and  C_13
REMARK    4  A    between atoms: C_16  and  C_20
REMARK    5  A    between atoms: C_20  and  O_24
REMARK    6  A    between atoms: O_24  and  C_27
REMARK    7  A    between atoms: C_25  and  C_28
REMARK    8  A    between atoms: C_25  and  C_29
REMARK    9  A    between atoms: C_27  and  C_30
REMARK                            x       y       z     vdW  Elec       q    Type
REMARK                         _______ _______ _______ _____ _____    ______ ____
ROOT
ATOM      1  N   UNL     1      -7.935  53.093  52.076  0.00  0.00    +0.000 N 
ATOM      2  C   UNL     1      -8.886  53.959  51.555  0.00  0.00    +0.000 C 
ATOM      3  O   UNL     1      -8.587  55.091  51.199  0.00  0.00    +0.000 OA
ATOM      4  N   UNL     1     -10.168  53.457  51.592  0.00  0.00    +0.000 N 
ATOM      5  H   UNL     1      -8.226  52.189  52.337  0.00  0.00    +0.000 HD
ATOM      6  H   UNL     1     -10.345  52.541  51.907  0.00  0.00    +0.000 HD
ENDROOT
BRANCH   4   7
ATOM      7  C   UNL     1     -11.203  54.276  51.177  0.00  0.00    +0.000 A 
ATOM      8  S   UNL     1     -11.840  55.299  52.375  0.00  0.00    +0.000 S 
ATOM      9  C   UNL     1     -11.784  54.452  49.934  0.00  0.00    +0.000 A 
ATOM     10  C   UNL     1     -12.717  56.186  51.212  0.00  0.00    +0.000 A 
ATOM     11  C   UNL     1     -12.611  55.639  49.946  0.00  0.00    +0.000 A 
ATOM     12  C   UNL     1     -13.509  57.422  51.561  0.00  0.00    +0.000 C 
ATOM     13  C   UNL     1     -13.346  56.216  48.770  0.00  0.00    +0.000 C 
ATOM     14  C   UNL     1     -14.559  57.743  50.454  0.00  0.00    +0.000 C 
ATOM     15  C   UNL     1     -13.897  57.615  49.059  0.00  0.00    +0.000 C 
ATOM     16  C   UNL     1     -15.073  59.187  50.598  0.00  0.00    +0.000 C 
ATOM     17  C   UNL     1     -15.767  56.792  50.579  0.00  0.00    +0.000 C 
BRANCH   9  18
ATOM     18  C   UNL     1     -11.554  53.536  48.815  0.00  0.00    +0.000 C 
ATOM     19  O   UNL     1     -12.428  52.815  48.346  0.00  0.00    +0.000 OA
BRANCH  18  20
ATOM     20  O   UNL     1     -10.270  53.586  48.366  0.00  0.00    +0.000 OA
BRANCH  20  21
ATOM     21  C   UNL     1      -9.820  54.827  47.814  0.00  0.00    +0.000 C 
ATOM     22  C   UNL     1     -10.556  55.101  46.519  0.00  0.00    +0.000 C 
ENDBRANCH  20  21
ENDBRANCH  18  20
ENDBRANCH   9  18
ENDBRANCH   4   7
BRANCH   1  23
ATOM     23  S   UNL     1      -6.332  53.493  52.286  0.00  0.00    +0.000 S 
ATOM     24  O   UNL     1      -5.706  52.515  53.146  0.00  0.00    +0.000 OA
ATOM     25  O   UNL     1      -6.332  54.897  52.641  0.00  0.00    +0.000 OA
BRANCH  23  26
ATOM     26  C   UNL     1      -5.621  53.382  50.654  0.00  0.00    +0.000 A 
ATOM     27  C   UNL     1      -4.997  54.503  50.093  0.00  0.00    +0.000 A 
ATOM     28  C   UNL     1      -5.660  52.164  49.962  0.00  0.00    +0.000 A 
ATOM     29  C   UNL     1      -4.426  54.407  48.822  0.00  0.00    +0.000 A 
ATOM     30  C   UNL     1      -5.082  52.076  48.693  0.00  0.00    +0.000 A 
ATOM     31  C   UNL     1      -4.475  53.191  48.132  0.00  0.00    +0.000 A 
ATOM     32  F   UNL     1      -3.930  53.107  46.910  0.00  0.00    +0.000 F 
ENDBRANCH  23  26
ENDBRANCH   1  23
TORSDOF 6
ENDMDL
