MODEL 1
REMARK VINA RESULT:      -7.2      0.000      0.000
REMARK  Name = 
REMARK  8 active torsions:
REMARK  status: ('A' for Active; 'I' for Inactive)
REMARK    1  A    between atoms: S_1  and  N_4
REMARK    2  A    between atoms: S_1  and  C_5
REMARK    3  A    between atoms: N_10  and  C_13
REMARK    4  A    between atoms: C_14  and  N_17
REMARK    5  A    between atoms: C_16  and  C_20
REMARK    6  A    between atoms: C_20  and  O_26
REMARK    7  A    between atoms: O_26  and  C_29
REMARK    8  A    between atoms: C_29  and  C_30
REMARK                            x       y       z     vdW  Elec       q    Type
REMARK                         _______ _______ _______ _____ _____    ______ ____
ROOT
ATOM      1  N   UNL     1     -10.402  54.176  47.288  0.00  0.00    +0.000 N 
ATOM      2  C   UNL     1     -10.847  55.159  48.159  0.00  0.00    +0.000 C 
ATOM      3  O   UNL     1     -10.067  56.011  48.544  0.00  0.00    +0.000 OA
ATOM      4  N   UNL     1     -12.158  55.012  48.546  0.00  0.00    +0.000 N 
ATOM      5  H   UNL     1     -11.041  53.490  46.986  0.00  0.00    +0.000 HD
ATOM      6  H   UNL     1     -12.664  54.266  48.153  0.00  0.00    +0.000 HD
ENDROOT
BRANCH   4   7
ATOM      7  C   UNL     1     -12.829  55.834  49.451  0.00  0.00    +0.000 A 
ATOM      8  S   UNL     1     -13.869  57.050  48.876  0.00  0.00    +0.000 S 
ATOM      9  C   UNL     1     -12.807  55.777  50.844  0.00  0.00    +0.000 A 
ATOM     10  C   UNL     1     -14.212  57.609  50.424  0.00  0.00    +0.000 A 
ATOM     11  C   UNL     1     -13.612  56.853  51.412  0.00  0.00    +0.000 A 
ATOM     12  C   UNL     1     -15.121  58.778  50.629  0.00  0.00    +0.000 C 
ATOM     13  C   UNL     1     -13.813  57.205  52.864  0.00  0.00    +0.000 C 
ATOM     14  C   UNL     1     -15.023  59.294  52.066  0.00  0.00    +0.000 C 
ATOM     15  C   UNL     1     -15.013  58.142  53.076  0.00  0.00    +0.000 C 
BRANCH   9  16
ATOM     16  C   UNL     1     -12.066  54.742  51.572  0.00  0.00    +0.000 C 
ATOM     17  O   UNL     1     -12.355  53.551  51.511  0.00  0.00    +0.000 OA
BRANCH  16  18
ATOM     18  O   UNL     1     -11.095  55.258  52.375  0.00  0.00    +0.000 OA
BRANCH  18  19
ATOM     19  C   UNL     1      -9.750  55.202  51.885  0.00  0.00    +0.000 C 
ATOM     20  C   UNL     1      -8.832  54.899  53.058  0.00  0.00    +0.000 C 
ENDBRANCH  18  19
ENDBRANCH  16  18
ENDBRANCH   9  16
ENDBRANCH   4   7
BRANCH   1  21
ATOM     21  S   UNL     1      -8.829  54.104  46.731  0.00  0.00    +0.000 S 
ATOM     22  O   UNL     1      -8.528  55.338  46.038  0.00  0.00    +0.000 OA
ATOM     23  O   UNL     1      -8.713  52.832  46.048  0.00  0.00    +0.000 OA
BRANCH  21  24
ATOM     24  C   UNL     1      -7.818  53.991  48.195  0.00  0.00    +0.000 A 
ATOM     25  C   UNL     1      -8.023  52.943  49.100  0.00  0.00    +0.000 A 
ATOM     26  C   UNL     1      -6.805  54.935  48.417  0.00  0.00    +0.000 A 
ATOM     27  C   UNL     1      -7.217  52.841  50.239  0.00  0.00    +0.000 A 
ATOM     28  C   UNL     1      -5.993  54.835  49.551  0.00  0.00    +0.000 A 
ATOM     29  C   UNL     1      -6.202  53.787  50.460  0.00  0.00    +0.000 A 
BRANCH  29  30
ATOM     30  N   UNL     1      -5.345  53.675  51.649  0.00  0.00    +0.000 N 
ATOM     31  O   UNL     1      -4.211  54.172  51.589  0.00  0.00    +0.000 OA
ATOM     32  O   UNL     1      -5.805  53.094  52.642  0.00  0.00    +0.000 OA
ENDBRANCH  29  30
ENDBRANCH  21  24
ENDBRANCH   1  21
TORSDOF 7
ENDMDL
MODEL 2
REMARK VINA RESULT:      -7.0      2.319      3.880
REMARK  Name = 
REMARK  8 active torsions:
REMARK  status: ('A' for Active; 'I' for Inactive)
REMARK    1  A    between atoms: S_1  and  N_4
REMARK    2  A    between atoms: S_1  and  C_5
REMARK    3  A    between atoms: N_10  and  C_13
REMARK    4  A    between atoms: C_14  and  N_17
REMARK    5  A    between atoms: C_16  and  C_20
REMARK    6  A    between atoms: C_20  and  O_26
REMARK    7  A    between atoms: O_26  and  C_29
REMARK    8  A    between atoms: C_29  and  C_30
REMARK                            x       y       z     vdW  Elec       q    Type
REMARK                         _______ _______ _______ _____ _____    ______ ____
ROOT
ATOM      1  N   UNL     1     -11.446  52.650  51.686  0.00  0.00    +0.000 N 
ATOM      2  C   UNL     1     -11.635  54.022  51.624  0.00  0.00    +0.000 C 
ATOM      3  O   UNL     1     -10.871  54.757  52.223  0.00  0.00    +0.000 OA
ATOM      4  N   UNL     1     -12.748  54.402  50.910  0.00  0.00    +0.000 N 
ATOM      5  H   UNL     1     -12.072  52.066  51.200  0.00  0.00    +0.000 HD
ATOM      6  H   UNL     1     -13.276  53.689  50.484  0.00  0.00    +0.000 HD
ENDROOT
BRANCH   4   7
ATOM      7  C   UNL     1     -13.188  55.714  50.739  0.00  0.00    +0.000 A 
ATOM      8  S   UNL     1     -14.013  56.498  52.002  0.00  0.00    +0.000 S 
ATOM      9  C   UNL     1     -13.006  56.545  49.635  0.00  0.00    +0.000 A 
ATOM     10  C   UNL     1     -14.260  57.891  51.092  0.00  0.00    +0.000 A 
ATOM     11  C   UNL     1     -13.669  57.827  49.845  0.00  0.00    +0.000 A 
ATOM     12  C   UNL     1     -15.010  59.052  51.662  0.00  0.00    +0.000 C 
ATOM     13  C   UNL     1     -13.782  58.990  48.892  0.00  0.00    +0.000 C 
ATOM     14  C   UNL     1     -15.383  60.047  50.562  0.00  0.00    +0.000 C 
ATOM     15  C   UNL     1     -14.213  60.284  49.601  0.00  0.00    +0.000 C 
BRANCH   9  16
ATOM     16  C   UNL     1     -12.230  56.128  48.463  0.00  0.00    +0.000 C 
ATOM     17  O   UNL     1     -12.735  55.960  47.356  0.00  0.00    +0.000 OA
BRANCH  16  18
ATOM     18  O   UNL     1     -10.926  55.872  48.760  0.00  0.00    +0.000 OA
BRANCH  18  19
ATOM     19  C   UNL     1     -10.317  54.755  48.101  0.00  0.00    +0.000 C 
ATOM     20  C   UNL     1      -9.190  55.279  47.226  0.00  0.00    +0.000 C 
ENDBRANCH  18  19
ENDBRANCH  16  18
ENDBRANCH   9  16
ENDBRANCH   4   7
BRANCH   1  21
ATOM     21  S   UNL     1     -10.203  51.946  52.550  0.00  0.00    +0.000 S 
ATOM     22  O   UNL     1     -10.186  50.528  52.262  0.00  0.00    +0.000 OA
ATOM     23  O   UNL     1     -10.356  52.416  53.911  0.00  0.00    +0.000 OA
BRANCH  21  24
ATOM     24  C   UNL     1      -8.711  52.691  51.918  0.00  0.00    +0.000 A 
ATOM     25  C   UNL     1      -8.441  52.642  50.546  0.00  0.00    +0.000 A 
ATOM     26  C   UNL     1      -7.833  53.344  52.795  0.00  0.00    +0.000 A 
ATOM     27  C   UNL     1      -7.281  53.244  50.045  0.00  0.00    +0.000 A 
ATOM     28  C   UNL     1      -6.675  53.952  52.298  0.00  0.00    +0.000 A 
ATOM     29  C   UNL     1      -6.402  53.899  50.923  0.00  0.00    +0.000 A 
BRANCH  29  30
ATOM     30  N   UNL     1      -5.190  54.544  50.398  0.00  0.00    +0.000 N 
ATOM     31  O   UNL     1      -5.330  55.390  49.504  0.00  0.00    +0.000 OA
ATOM     32  O   UNL     1      -4.099  54.207  50.882  0.00  0.00    +0.000 OA
ENDBRANCH  29  30
ENDBRANCH  21  24
ENDBRANCH   1  21
TORSDOF 7
ENDMDL
MODEL 3
REMARK VINA RESULT:      -6.9      0.634      1.239
REMARK  Name = 
REMARK  8 active torsions:
REMARK  status: ('A' for Active; 'I' for Inactive)
REMARK    1  A    between atoms: S_1  and  N_4
REMARK    2  A    between atoms: S_1  and  C_5
REMARK    3  A    between atoms: N_10  and  C_13
REMARK    4  A    between atoms: C_14  and  N_17
REMARK    5  A    between atoms: C_16  and  C_20
REMARK    6  A    between atoms: C_20  and  O_26
REMARK    7  A    between atoms: O_26  and  C_29
REMARK    8  A    between atoms: C_29  and  C_30
REMARK                            x       y       z     vdW  Elec       q    Type
REMARK                         _______ _______ _______ _____ _____    ______ ____
ROOT
ATOM      1  N   UNL     1      -9.781  53.807  47.564  0.00  0.00    +0.000 N 
ATOM      2  C   UNL     1     -10.316  54.855  48.298  0.00  0.00    +0.000 C 
ATOM      3  O   UNL     1      -9.611  55.806  48.580  0.00  0.00    +0.000 OA
ATOM      4  N   UNL     1     -11.620  54.657  48.687  0.00  0.00    +0.000 N 
ATOM      5  H   UNL     1     -10.360  53.042  47.344  0.00  0.00    +0.000 HD
ATOM      6  H   UNL     1     -12.061  53.830  48.386  0.00  0.00    +0.000 HD
ENDROOT
BRANCH   4   7
ATOM      7  C   UNL     1     -12.370  55.532  49.473  0.00  0.00    +0.000 A 
ATOM      8  S   UNL     1     -13.343  56.711  48.729  0.00  0.00    +0.000 S 
ATOM      9  C   UNL     1     -12.480  55.559  50.862  0.00  0.00    +0.000 A 
ATOM     10  C   UNL     1     -13.829  57.363  50.201  0.00  0.00    +0.000 A 
ATOM     11  C   UNL     1     -13.330  56.667  51.285  0.00  0.00    +0.000 A 
ATOM     12  C   UNL     1     -14.746  58.542  50.248  0.00  0.00    +0.000 C 
ATOM     13  C   UNL     1     -13.667  57.106  52.688  0.00  0.00    +0.000 C 
ATOM     14  C   UNL     1     -14.782  59.143  51.655  0.00  0.00    +0.000 C 
ATOM     15  C   UNL     1     -14.875  58.054  52.727  0.00  0.00    +0.000 C 
BRANCH   9  16
ATOM     16  C   UNL     1     -11.819  54.570  51.718  0.00  0.00    +0.000 C 
ATOM     17  O   UNL     1     -12.055  53.367  51.650  0.00  0.00    +0.000 OA
BRANCH  16  18
ATOM     18  O   UNL     1     -10.993  55.140  52.638  0.00  0.00    +0.000 OA
BRANCH  18  19
ATOM     19  C   UNL     1      -9.671  54.597  52.749  0.00  0.00    +0.000 C 
ATOM     20  C   UNL     1      -8.731  55.469  51.933  0.00  0.00    +0.000 C 
ENDBRANCH  18  19
ENDBRANCH  16  18
ENDBRANCH   9  16
ENDBRANCH   4   7
BRANCH   1  21
ATOM     21  S   UNL     1      -8.196  53.788  47.037  0.00  0.00    +0.000 S 
ATOM     22  O   UNL     1      -7.927  55.025  46.336  0.00  0.00    +0.000 OA
ATOM     23  O   UNL     1      -8.020  52.514  46.371  0.00  0.00    +0.000 OA
BRANCH  21  24
ATOM     24  C   UNL     1      -7.209  53.728  48.521  0.00  0.00    +0.000 A 
ATOM     25  C   UNL     1      -6.230  54.704  48.741  0.00  0.00    +0.000 A 
ATOM     26  C   UNL     1      -7.438  52.722  49.470  0.00  0.00    +0.000 A 
ATOM     27  C   UNL     1      -5.468  54.670  49.914  0.00  0.00    +0.000 A 
ATOM     28  C   UNL     1      -6.683  52.687  50.647  0.00  0.00    +0.000 A 
ATOM     29  C   UNL     1      -5.698  53.662  50.864  0.00  0.00    +0.000 A 
BRANCH  29  30
ATOM     30  N   UNL     1      -4.908  53.633  52.104  0.00  0.00    +0.000 N 
ATOM     31  O   UNL     1      -5.349  52.965  53.051  0.00  0.00    +0.000 OA
ATOM     32  O   UNL     1      -3.847  54.272  52.130  0.00  0.00    +0.000 OA
ENDBRANCH  29  30
ENDBRANCH  21  24
ENDBRANCH   1  21
TORSDOF 7
ENDMDL
MODEL 4
REMARK VINA RESULT:      -6.9      2.968      7.712
REMARK  Name = 
REMARK  8 active torsions:
REMARK  status: ('A' for Active; 'I' for Inactive)
REMARK    1  A    between atoms: S_1  and  N_4
REMARK    2  A    between atoms: S_1  and  C_5
REMARK    3  A    between atoms: N_10  and  C_13
REMARK    4  A    between atoms: C_14  and  N_17
REMARK    5  A    between atoms: C_16  and  C_20
REMARK    6  A    between atoms: C_20  and  O_26
REMARK    7  A    between atoms: O_26  and  C_29
REMARK    8  A    between atoms: C_29  and  C_30
REMARK                            x       y       z     vdW  Elec       q    Type
REMARK                         _______ _______ _______ _____ _____    ______ ____
ROOT
ATOM      1  N   UNL     1     -10.251  55.702  48.211  0.00  0.00    +0.000 N 
ATOM      2  C   UNL     1      -9.559  55.166  49.287  0.00  0.00    +0.000 C 
ATOM      3  O   UNL     1     -10.121  54.376  50.023  0.00  0.00    +0.000 OA
ATOM      4  N   UNL     1      -8.284  55.660  49.433  0.00  0.00    +0.000 N 
ATOM      5  H   UNL     1      -9.787  56.342  47.624  0.00  0.00    +0.000 HD
ATOM      6  H   UNL     1      -7.968  56.303  48.759  0.00  0.00    +0.000 HD
ENDROOT
BRANCH   4   7
ATOM      7  C   UNL     1      -7.402  55.325  50.460  0.00  0.00    +0.000 A 
ATOM      8  S   UNL     1      -7.831  55.635  52.076  0.00  0.00    +0.000 S 
ATOM      9  C   UNL     1      -6.162  54.696  50.356  0.00  0.00    +0.000 A 
ATOM     10  C   UNL     1      -6.358  55.073  52.665  0.00  0.00    +0.000 A 
ATOM     11  C   UNL     1      -5.539  54.575  51.670  0.00  0.00    +0.000 A 
ATOM     12  C   UNL     1      -6.062  55.099  54.130  0.00  0.00    +0.000 C 
ATOM     13  C   UNL     1      -4.179  54.022  52.014  0.00  0.00    +0.000 C 
ATOM     14  C   UNL     1      -4.574  54.851  54.385  0.00  0.00    +0.000 C 
ATOM     15  C   UNL     1      -4.038  53.712  53.513  0.00  0.00    +0.000 C 
BRANCH   9  16
ATOM     16  C   UNL     1      -5.625  54.233  49.073  0.00  0.00    +0.000 C 
ATOM     17  O   UNL     1      -4.471  54.454  48.716  0.00  0.00    +0.000 OA
BRANCH  16  18
ATOM     18  O   UNL     1      -6.564  53.618  48.303  0.00  0.00    +0.000 OA
BRANCH  18  19
ATOM     19  C   UNL     1      -6.315  53.566  46.892  0.00  0.00    +0.000 C 
ATOM     20  C   UNL     1      -7.342  54.445  46.198  0.00  0.00    +0.000 C 
ENDBRANCH  18  19
ENDBRANCH  16  18
ENDBRANCH   9  16
ENDBRANCH   4   7
BRANCH   1  21
ATOM     21  S   UNL     1     -11.837  55.307  47.867  0.00  0.00    +0.000 S 
ATOM     22  O   UNL     1     -12.000  53.877  48.015  0.00  0.00    +0.000 OA
ATOM     23  O   UNL     1     -12.138  55.953  46.607  0.00  0.00    +0.000 OA
BRANCH  21  24
ATOM     24  C   UNL     1     -12.807  56.139  49.111  0.00  0.00    +0.000 A 
ATOM     25  C   UNL     1     -13.386  55.398  50.148  0.00  0.00    +0.000 A 
ATOM     26  C   UNL     1     -12.961  57.532  49.058  0.00  0.00    +0.000 A 
ATOM     27  C   UNL     1     -14.131  56.052  51.137  0.00  0.00    +0.000 A 
ATOM     28  C   UNL     1     -13.700  58.190  50.046  0.00  0.00    +0.000 A 
ATOM     29  C   UNL     1     -14.284  57.447  51.083  0.00  0.00    +0.000 A 
BRANCH  29  30
ATOM     30  N   UNL     1     -15.054  58.138  52.127  0.00  0.00    +0.000 N 
ATOM     31  O   UNL     1     -15.519  57.451  53.049  0.00  0.00    +0.000 OA
ATOM     32  O   UNL     1     -15.192  59.366  52.028  0.00  0.00    +0.000 OA
ENDBRANCH  29  30
ENDBRANCH  21  24
ENDBRANCH   1  21
TORSDOF 7
ENDMDL
MODEL 5
REMARK VINA RESULT:      -6.8      3.129      7.134
REMARK  Name = 
REMARK  8 active torsions:
REMARK  status: ('A' for Active; 'I' for Inactive)
REMARK    1  A    between atoms: S_1  and  N_4
REMARK    2  A    between atoms: S_1  and  C_5
REMARK    3  A    between atoms: N_10  and  C_13
REMARK    4  A    between atoms: C_14  and  N_17
REMARK    5  A    between atoms: C_16  and  C_20
REMARK    6  A    between atoms: C_20  and  O_26
REMARK    7  A    between atoms: O_26  and  C_29
REMARK    8  A    between atoms: C_29  and  C_30
REMARK                            x       y       z     vdW  Elec       q    Type
REMARK                         _______ _______ _______ _____ _____    ______ ____
ROOT
ATOM      1  N   UNL     1     -12.104  55.180  51.818  0.00  0.00    +0.000 N 
ATOM      2  C   UNL     1     -10.718  55.208  51.815  0.00  0.00    +0.000 C 
ATOM      3  O   UNL     1     -10.135  55.789  50.917  0.00  0.00    +0.000 OA
ATOM      4  N   UNL     1     -10.142  54.494  52.839  0.00  0.00    +0.000 N 
ATOM      5  H   UNL     1     -12.564  54.705  52.548  0.00  0.00    +0.000 HD
ATOM      6  H   UNL     1     -10.746  54.070  53.490  0.00  0.00    +0.000 HD
ENDROOT
BRANCH   4   7
ATOM      7  C   UNL     1      -8.771  54.323  53.032  0.00  0.00    +0.000 A 
ATOM      8  S   UNL     1      -7.915  55.410  54.020  0.00  0.00    +0.000 S 
ATOM      9  C   UNL     1      -7.955  53.306  52.539  0.00  0.00    +0.000 A 
ATOM     10  C   UNL     1      -6.442  54.653  53.724  0.00  0.00    +0.000 A 
ATOM     11  C   UNL     1      -6.568  53.526  52.936  0.00  0.00    +0.000 A 
ATOM     12  C   UNL     1      -5.180  55.178  54.329  0.00  0.00    +0.000 C 
ATOM     13  C   UNL     1      -5.350  52.716  52.572  0.00  0.00    +0.000 C 
ATOM     14  C   UNL     1      -3.957  54.538  53.668  0.00  0.00    +0.000 C 
ATOM     15  C   UNL     1      -4.149  53.031  53.477  0.00  0.00    +0.000 C 
BRANCH   9  16
ATOM     16  C   UNL     1      -8.486  52.190  51.750  0.00  0.00    +0.000 C 
ATOM     17  O   UNL     1      -8.448  51.025  52.137  0.00  0.00    +0.000 OA
BRANCH  16  18
ATOM     18  O   UNL     1      -8.939  52.580  50.528  0.00  0.00    +0.000 OA
BRANCH  18  19
ATOM     19  C   UNL     1      -7.955  52.785  49.506  0.00  0.00    +0.000 C 
ATOM     20  C   UNL     1      -8.453  53.885  48.583  0.00  0.00    +0.000 C 
ENDBRANCH  18  19
ENDBRANCH  16  18
ENDBRANCH   9  16
ENDBRANCH   4   7
BRANCH   1  21
ATOM     21  S   UNL     1     -13.027  55.917  50.637  0.00  0.00    +0.000 S 
ATOM     22  O   UNL     1     -12.713  57.330  50.620  0.00  0.00    +0.000 OA
ATOM     23  O   UNL     1     -14.385  55.470  50.866  0.00  0.00    +0.000 OA
BRANCH  21  24
ATOM     24  C   UNL     1     -12.500  55.180  49.101  0.00  0.00    +0.000 A 
ATOM     25  C   UNL     1     -12.411  53.787  48.996  0.00  0.00    +0.000 A 
ATOM     26  C   UNL     1     -12.204  55.998  48.001  0.00  0.00    +0.000 A 
ATOM     27  C   UNL     1     -12.017  53.206  47.786  0.00  0.00    +0.000 A 
ATOM     28  C   UNL     1     -11.815  55.422  46.788  0.00  0.00    +0.000 A 
ATOM     29  C   UNL     1     -11.722  54.026  46.684  0.00  0.00    +0.000 A 
BRANCH  29  30
ATOM     30  N   UNL     1     -11.320  53.417  45.407  0.00  0.00    +0.000 N 
ATOM     31  O   UNL     1     -10.189  53.682  44.974  0.00  0.00    +0.000 OA
ATOM     32  O   UNL     1     -12.133  52.673  44.840  0.00  0.00    +0.000 OA
ENDBRANCH  29  30
ENDBRANCH  21  24
ENDBRANCH   1  21
TORSDOF 7
ENDMDL
MODEL 6
REMARK VINA RESULT:      -6.7      2.054      3.288
REMARK  Name = 
REMARK  8 active torsions:
REMARK  status: ('A' for Active; 'I' for Inactive)
REMARK    1  A    between atoms: S_1  and  N_4
REMARK    2  A    between atoms: S_1  and  C_5
REMARK    3  A    between atoms: N_10  and  C_13
REMARK    4  A    between atoms: C_14  and  N_17
REMARK    5  A    between atoms: C_16  and  C_20
REMARK    6  A    between atoms: C_20  and  O_26
REMARK    7  A    between atoms: O_26  and  C_29
REMARK    8  A    between atoms: C_29  and  C_30
REMARK                            x       y       z     vdW  Elec       q    Type
REMARK                         _______ _______ _______ _____ _____    ______ ____
ROOT
ATOM      1  N   UNL     1      -9.455  53.394  49.010  0.00  0.00    +0.000 N 
ATOM      2  C   UNL     1     -10.029  54.544  49.531  0.00  0.00    +0.000 C 
ATOM      3  O   UNL     1      -9.313  55.477  49.846  0.00  0.00    +0.000 OA
ATOM      4  N   UNL     1     -11.392  54.465  49.692  0.00  0.00    +0.000 N 
ATOM      5  H   UNL     1     -10.044  52.644  48.762  0.00  0.00    +0.000 HD
ATOM      6  H   UNL     1     -11.835  53.638  49.396  0.00  0.00    +0.000 HD
ENDROOT
BRANCH   4   7
ATOM      7  C   UNL     1     -12.199  55.461  50.241  0.00  0.00    +0.000 A 
ATOM      8  S   UNL     1     -12.234  55.686  51.926  0.00  0.00    +0.000 S 
ATOM      9  C   UNL     1     -12.999  56.386  49.570  0.00  0.00    +0.000 A 
ATOM     10  C   UNL     1     -13.387  56.907  51.826  0.00  0.00    +0.000 A 
ATOM     11  C   UNL     1     -13.720  57.223  50.523  0.00  0.00    +0.000 A 
ATOM     12  C   UNL     1     -13.911  57.565  53.061  0.00  0.00    +0.000 C 
ATOM     13  C   UNL     1     -14.736  58.301  50.240  0.00  0.00    +0.000 C 
ATOM     14  C   UNL     1     -15.158  58.393  52.746  0.00  0.00    +0.000 C 
ATOM     15  C   UNL     1     -14.981  59.205  51.459  0.00  0.00    +0.000 C 
BRANCH   9  16
ATOM     16  C   UNL     1     -13.049  56.460  48.107  0.00  0.00    +0.000 C 
ATOM     17  O   UNL     1     -13.565  57.398  47.506  0.00  0.00    +0.000 OA
BRANCH  16  18
ATOM     18  O   UNL     1     -12.543  55.348  47.507  0.00  0.00    +0.000 OA
BRANCH  18  19
ATOM     19  C   UNL     1     -11.752  55.547  46.329  0.00  0.00    +0.000 C 
ATOM     20  C   UNL     1     -11.322  54.185  45.811  0.00  0.00    +0.000 C 
ENDBRANCH  18  19
ENDBRANCH  16  18
ENDBRANCH   9  16
ENDBRANCH   4   7
BRANCH   1  21
ATOM     21  S   UNL     1      -7.809  53.225  48.786  0.00  0.00    +0.000 S 
ATOM     22  O   UNL     1      -7.355  54.270  47.893  0.00  0.00    +0.000 OA
ATOM     23  O   UNL     1      -7.599  51.832  48.452  0.00  0.00    +0.000 OA
BRANCH  21  24
ATOM     24  C   UNL     1      -7.088  53.477  50.397  0.00  0.00    +0.000 A 
ATOM     25  C   UNL     1      -5.979  54.320  50.536  0.00  0.00    +0.000 A 
ATOM     26  C   UNL     1      -7.652  52.852  51.519  0.00  0.00    +0.000 A 
ATOM     27  C   UNL     1      -5.423  54.534  51.802  0.00  0.00    +0.000 A 
ATOM     28  C   UNL     1      -7.104  53.067  52.787  0.00  0.00    +0.000 A 
ATOM     29  C   UNL     1      -5.989  53.908  52.925  0.00  0.00    +0.000 A 
BRANCH  29  30
ATOM     30  N   UNL     1      -5.417  54.143  54.259  0.00  0.00    +0.000 N 
ATOM     31  O   UNL     1      -4.348  54.767  54.324  0.00  0.00    +0.000 OA
ATOM     32  O   UNL     1      -6.037  53.707  55.239  0.00  0.00    +0.000 OA
ENDBRANCH  29  30
ENDBRANCH  21  24
ENDBRANCH   1  21
TORSDOF 7
ENDMDL
MODEL 7
REMARK VINA RESULT:      -6.6      2.896      7.165
REMARK  Name = 
REMARK  8 active torsions:
REMARK  status: ('A' for Active; 'I' for Inactive)
REMARK    1  A    between atoms: S_1  and  N_4
REMARK    2  A    between atoms: S_1  and  C_5
REMARK    3  A    between atoms: N_10  and  C_13
REMARK    4  A    between atoms: C_14  and  N_17
REMARK    5  A    between atoms: C_16  and  C_20
REMARK    6  A    between atoms: C_20  and  O_26
REMARK    7  A    between atoms: O_26  and  C_29
REMARK    8  A    between atoms: C_29  and  C_30
REMARK                            x       y       z     vdW  Elec       q    Type
REMARK                         _______ _______ _______ _____ _____    ______ ____
ROOT
ATOM      1  N   UNL     1     -10.452  53.633  48.519  0.00  0.00    +0.000 N 
ATOM      2  C   UNL     1      -9.544  54.223  49.385  0.00  0.00    +0.000 C 
ATOM      3  O   UNL     1      -9.418  55.434  49.381  0.00  0.00    +0.000 OA
ATOM      4  N   UNL     1      -8.821  53.324  50.134  0.00  0.00    +0.000 N 
ATOM      5  H   UNL     1     -10.544  52.652  48.529  0.00  0.00    +0.000 HD
ATOM      6  H   UNL     1      -9.032  52.370  50.023  0.00  0.00    +0.000 HD
ENDROOT
BRANCH   4   7
ATOM      7  C   UNL     1      -7.813  53.656  51.040  0.00  0.00    +0.000 A 
ATOM      8  S   UNL     1      -6.199  53.738  50.513  0.00  0.00    +0.000 S 
ATOM      9  C   UNL     1      -7.945  53.991  52.387  0.00  0.00    +0.000 A 
ATOM     10  C   UNL     1      -5.623  54.087  52.054  0.00  0.00    +0.000 A 
ATOM     11  C   UNL     1      -6.635  54.221  52.986  0.00  0.00    +0.000 A 
ATOM     12  C   UNL     1      -4.160  54.268  52.299  0.00  0.00    +0.000 C 
ATOM     13  C   UNL     1      -6.304  54.540  54.422  0.00  0.00    +0.000 C 
ATOM     14  C   UNL     1      -3.856  54.253  53.798  0.00  0.00    +0.000 C 
ATOM     15  C   UNL     1      -4.876  55.082  54.585  0.00  0.00    +0.000 C 
BRANCH   9  16
ATOM     16  C   UNL     1      -9.252  54.095  53.043  0.00  0.00    +0.000 C 
ATOM     17  O   UNL     1      -9.588  55.074  53.702  0.00  0.00    +0.000 OA
BRANCH  16  18
ATOM     18  O   UNL     1      -9.997  52.964  52.909  0.00  0.00    +0.000 OA
BRANCH  18  19
ATOM     19  C   UNL     1     -10.407  52.310  54.116  0.00  0.00    +0.000 C 
ATOM     20  C   UNL     1      -9.290  51.376  54.551  0.00  0.00    +0.000 C 
ENDBRANCH  18  19
ENDBRANCH  16  18
ENDBRANCH   9  16
ENDBRANCH   4   7
BRANCH   1  21
ATOM     21  S   UNL     1     -11.397  54.513  47.460  0.00  0.00    +0.000 S 
ATOM     22  O   UNL     1     -12.172  53.592  46.657  0.00  0.00    +0.000 OA
ATOM     23  O   UNL     1     -10.501  55.460  46.830  0.00  0.00    +0.000 OA
BRANCH  21  24
ATOM     24  C   UNL     1     -12.498  55.462  48.492  0.00  0.00    +0.000 A 
ATOM     25  C   UNL     1     -12.934  54.931  49.712  0.00  0.00    +0.000 A 
ATOM     26  C   UNL     1     -12.899  56.745  48.089  0.00  0.00    +0.000 A 
ATOM     27  C   UNL     1     -13.783  55.683  50.533  0.00  0.00    +0.000 A 
ATOM     28  C   UNL     1     -13.743  57.502  48.909  0.00  0.00    +0.000 A 
ATOM     29  C   UNL     1     -14.183  56.967  50.129  0.00  0.00    +0.000 A 
BRANCH  29  30
ATOM     30  N   UNL     1     -15.063  57.764  50.996  0.00  0.00    +0.000 N 
ATOM     31  O   UNL     1     -15.603  57.189  51.952  0.00  0.00    +0.000 OA
ATOM     32  O   UNL     1     -15.212  58.964  50.723  0.00  0.00    +0.000 OA
ENDBRANCH  29  30
ENDBRANCH  21  24
ENDBRANCH   1  21
TORSDOF 7
ENDMDL
MODEL 8
REMARK VINA RESULT:      -6.6      3.495      6.605
REMARK  Name = 
REMARK  8 active torsions:
REMARK  status: ('A' for Active; 'I' for Inactive)
REMARK    1  A    between atoms: S_1  and  N_4
REMARK    2  A    between atoms: S_1  and  C_5
REMARK    3  A    between atoms: N_10  and  C_13
REMARK    4  A    between atoms: C_14  and  N_17
REMARK    5  A    between atoms: C_16  and  C_20
REMARK    6  A    between atoms: C_20  and  O_26
REMARK    7  A    between atoms: O_26  and  C_29
REMARK    8  A    between atoms: C_29  and  C_30
REMARK                            x       y       z     vdW  Elec       q    Type
REMARK                         _______ _______ _______ _____ _____    ______ ____
ROOT
ATOM      1  N   UNL     1      -8.306  56.358  49.284  0.00  0.00    +0.000 N 
ATOM      2  C   UNL     1      -8.378  55.266  48.432  0.00  0.00    +0.000 C 
ATOM      3  O   UNL     1      -7.736  54.265  48.691  0.00  0.00    +0.000 OA
ATOM      4  N   UNL     1      -9.155  55.477  47.317  0.00  0.00    +0.000 N 
ATOM      5  H   UNL     1      -8.828  57.163  49.063  0.00  0.00    +0.000 HD
ATOM      6  H   UNL     1      -9.611  56.346  47.241  0.00  0.00    +0.000 HD
ENDROOT
BRANCH   4   7
ATOM      7  C   UNL     1      -9.349  54.561  46.284  0.00  0.00    +0.000 A 
ATOM      8  S   UNL     1      -8.135  54.338  45.114  0.00  0.00    +0.000 S 
ATOM      9  C   UNL     1     -10.440  53.718  46.077  0.00  0.00    +0.000 A 
ATOM     10  C   UNL     1      -9.056  53.232  44.244  0.00  0.00    +0.000 A 
ATOM     11  C   UNL     1     -10.267  52.951  44.848  0.00  0.00    +0.000 A 
ATOM     12  C   UNL     1      -8.530  52.624  42.984  0.00  0.00    +0.000 C 
ATOM     13  C   UNL     1     -11.223  51.975  44.211  0.00  0.00    +0.000 C 
ATOM     14  C   UNL     1      -9.649  51.918  42.215  0.00  0.00    +0.000 C 
ATOM     15  C   UNL     1     -10.539  51.096  43.152  0.00  0.00    +0.000 C 
BRANCH   9  16
ATOM     16  C   UNL     1     -11.565  53.651  47.014  0.00  0.00    +0.000 C 
ATOM     17  O   UNL     1     -12.044  52.590  47.403  0.00  0.00    +0.000 OA
BRANCH  16  18
ATOM     18  O   UNL     1     -12.060  54.880  47.328  0.00  0.00    +0.000 OA
BRANCH  18  19
ATOM     19  C   UNL     1     -12.511  55.074  48.674  0.00  0.00    +0.000 C 
ATOM     20  C   UNL     1     -12.034  56.439  49.141  0.00  0.00    +0.000 C 
ENDBRANCH  18  19
ENDBRANCH  16  18
ENDBRANCH   9  16
ENDBRANCH   4   7
BRANCH   1  21
ATOM     21  S   UNL     1      -7.373  56.366  50.669  0.00  0.00    +0.000 S 
ATOM     22  O   UNL     1      -7.490  57.664  51.297  0.00  0.00    +0.000 OA
ATOM     23  O   UNL     1      -6.077  55.857  50.272  0.00  0.00    +0.000 OA
BRANCH  21  24
ATOM     24  C   UNL     1      -8.101  55.133  51.732  0.00  0.00    +0.000 A 
ATOM     25  C   UNL     1      -9.463  55.206  52.047  0.00  0.00    +0.000 A 
ATOM     26  C   UNL     1      -7.311  54.083  52.223  0.00  0.00    +0.000 A 
ATOM     27  C   UNL     1     -10.040  54.228  52.864  0.00  0.00    +0.000 A 
ATOM     28  C   UNL     1      -7.885  53.100  53.036  0.00  0.00    +0.000 A 
ATOM     29  C   UNL     1      -9.249  53.176  53.355  0.00  0.00    +0.000 A 
BRANCH  29  30
ATOM     30  N   UNL     1      -9.855  52.140  54.203  0.00  0.00    +0.000 N 
ATOM     31  O   UNL     1     -11.028  52.309  54.568  0.00  0.00    +0.000 OA
ATOM     32  O   UNL     1      -9.162  51.156  54.501  0.00  0.00    +0.000 OA
ENDBRANCH  29  30
ENDBRANCH  21  24
ENDBRANCH   1  21
TORSDOF 7
ENDMDL
MODEL 9
REMARK VINA RESULT:      -6.6      2.773      7.601
REMARK  Name = 
REMARK  8 active torsions:
REMARK  status: ('A' for Active; 'I' for Inactive)
REMARK    1  A    between atoms: S_1  and  N_4
REMARK    2  A    between atoms: S_1  and  C_5
REMARK    3  A    between atoms: N_10  and  C_13
REMARK    4  A    between atoms: C_14  and  N_17
REMARK    5  A    between atoms: C_16  and  C_20
REMARK    6  A    between atoms: C_20  and  O_26
REMARK    7  A    between atoms: O_26  and  C_29
REMARK    8  A    between atoms: C_29  and  C_30
REMARK                            x       y       z     vdW  Elec       q    Type
REMARK                         _______ _______ _______ _____ _____    ______ ____
ROOT
ATOM      1  N   UNL     1     -10.219  55.484  48.122  0.00  0.00    +0.000 N 
ATOM      2  C   UNL     1      -9.420  54.715  48.955  0.00  0.00    +0.000 C 
ATOM      3  O   UNL     1      -9.903  53.750  49.519  0.00  0.00    +0.000 OA
ATOM      4  N   UNL     1      -8.138  55.191  49.096  0.00  0.00    +0.000 N 
ATOM      5  H   UNL     1      -9.818  56.263  47.674  0.00  0.00    +0.000 HD
ATOM      6  H   UNL     1      -7.893  55.990  48.578  0.00  0.00    +0.000 HD
ENDROOT
BRANCH   4   7
ATOM      7  C   UNL     1      -7.155  54.633  49.913  0.00  0.00    +0.000 A 
ATOM      8  S   UNL     1      -6.121  53.435  49.292  0.00  0.00    +0.000 S 
ATOM      9  C   UNL     1      -6.848  54.959  51.233  0.00  0.00    +0.000 A 
ATOM     10  C   UNL     1      -5.335  53.227  50.764  0.00  0.00    +0.000 A 
ATOM     11  C   UNL     1      -5.782  54.101  51.737  0.00  0.00    +0.000 A 
ATOM     12  C   UNL     1      -4.244  52.216  50.911  0.00  0.00    +0.000 C 
ATOM     13  C   UNL     1      -5.185  54.062  53.121  0.00  0.00    +0.000 C 
ATOM     14  C   UNL     1      -3.915  51.986  52.387  0.00  0.00    +0.000 C 
ATOM     15  C   UNL     1      -3.847  53.307  53.159  0.00  0.00    +0.000 C 
BRANCH   9  16
ATOM     16  C   UNL     1      -7.532  56.040  51.951  0.00  0.00    +0.000 C 
ATOM     17  O   UNL     1      -7.492  57.211  51.583  0.00  0.00    +0.000 OA
BRANCH  16  18
ATOM     18  O   UNL     1      -8.131  55.612  53.096  0.00  0.00    +0.000 OA
BRANCH  18  19
ATOM     19  C   UNL     1      -9.084  54.549  52.973  0.00  0.00    +0.000 C 
ATOM     20  C   UNL     1     -10.435  55.161  52.643  0.00  0.00    +0.000 C 
ENDBRANCH  18  19
ENDBRANCH  16  18
ENDBRANCH   9  16
ENDBRANCH   4   7
BRANCH   1  21
ATOM     21  S   UNL     1     -11.831  55.144  47.847  0.00  0.00    +0.000 S 
ATOM     22  O   UNL     1     -12.034  53.719  47.990  0.00  0.00    +0.000 OA
ATOM     23  O   UNL     1     -12.166  55.812  46.607  0.00  0.00    +0.000 OA
BRANCH  21  24
ATOM     24  C   UNL     1     -12.716  55.996  49.140  0.00  0.00    +0.000 A 
ATOM     25  C   UNL     1     -12.958  57.370  49.025  0.00  0.00    +0.000 A 
ATOM     26  C   UNL     1     -13.188  55.279  50.250  0.00  0.00    +0.000 A 
ATOM     27  C   UNL     1     -13.670  58.036  50.029  0.00  0.00    +0.000 A 
ATOM     28  C   UNL     1     -13.905  55.939  51.253  0.00  0.00    +0.000 A 
ATOM     29  C   UNL     1     -14.143  57.317  51.139  0.00  0.00    +0.000 A 
BRANCH  29  30
ATOM     30  N   UNL     1     -14.904  58.012  52.189  0.00  0.00    +0.000 N 
ATOM     31  O   UNL     1     -15.482  57.316  53.036  0.00  0.00    +0.000 OA
ATOM     32  O   UNL     1     -14.919  59.251  52.169  0.00  0.00    +0.000 OA
ENDBRANCH  29  30
ENDBRANCH  21  24
ENDBRANCH   1  21
TORSDOF 7
ENDMDL
