MODEL 1
REMARK VINA RESULT:      -7.7      0.000      0.000
REMARK  Name = 
REMARK  9 active torsions:
REMARK  status: ('A' for Active; 'I' for Inactive)
REMARK    1  A    between atoms: S_1  and  N_4
REMARK    2  A    between atoms: S_1  and  N_5
REMARK    3  A    between atoms: N_12  and  C_14
REMARK    4  A    between atoms: C_16  and  C_19
REMARK    5  A    between atoms: C_19  and  O_23
REMARK    6  A    between atoms: O_23  and  C_26
REMARK    7  A    between atoms: C_24  and  C_27
REMARK    8  A    between atoms: C_24  and  C_28
REMARK    9  A    between atoms: C_26  and  C_29
REMARK                            x       y       z     vdW  Elec       q    Type
REMARK                         _______ _______ _______ _____ _____    ______ ____
ROOT
ATOM      1  C   UNL     1     -10.369  55.229  51.935  0.00  0.00    +0.000 A 
ATOM      2  S   UNL     1      -9.818  54.294  53.242  0.00  0.00    +0.000 S 
ATOM      3  C   UNL     1      -9.408  55.455  50.966  0.00  0.00    +0.000 A 
ATOM      4  C   UNL     1      -8.376  53.914  52.423  0.00  0.00    +0.000 A 
ATOM      5  C   UNL     1      -8.275  54.582  51.214  0.00  0.00    +0.000 A 
ATOM      6  C   UNL     1      -7.354  52.953  52.977  0.00  0.00    +0.000 C 
ATOM      7  C   UNL     1      -7.069  54.423  50.332  0.00  0.00    +0.000 C 
ATOM      8  C   UNL     1      -5.982  53.114  52.251  0.00  0.00    +0.000 C 
ATOM      9  C   UNL     1      -6.216  53.221  50.724  0.00  0.00    +0.000 C 
ATOM     10  C   UNL     1      -5.088  51.886  52.495  0.00  0.00    +0.000 C 
ATOM     11  C   UNL     1      -5.242  54.358  52.786  0.00  0.00    +0.000 C 
ENDROOT
BRANCH   1  15
ATOM     12  N   UNL     1     -13.978  55.355  51.637  0.00  0.00    +0.000 N 
ATOM     13  C   UNL     1     -12.684  54.878  51.488  0.00  0.00    +0.000 C 
ATOM     14  O   UNL     1     -12.540  53.795  50.941  0.00  0.00    +0.000 OA
ATOM     15  N   UNL     1     -11.679  55.633  52.044  0.00  0.00    +0.000 N 
ATOM     16  H   UNL     1     -14.702  54.725  51.417  0.00  0.00    +0.000 HD
ATOM     17  H   UNL     1     -11.897  56.465  52.522  0.00  0.00    +0.000 HD
BRANCH  12  18
ATOM     18  S   UNL     1     -14.442  56.844  52.136  0.00  0.00    +0.000 S 
ATOM     19  O   UNL     1     -15.889  56.837  52.218  0.00  0.00    +0.000 OA
ATOM     20  O   UNL     1     -13.620  57.202  53.266  0.00  0.00    +0.000 OA
BRANCH  18  21
ATOM     21  N   UNL     1     -13.996  57.817  50.828  0.00  0.00    +0.000 NA
ATOM     22  C   UNL     1     -14.439  57.328  49.491  0.00  0.00    +0.000 C 
ATOM     23  C   UNL     1     -14.372  59.245  51.047  0.00  0.00    +0.000 C 
ATOM     24  C   UNL     1     -13.829  58.187  48.387  0.00  0.00    +0.000 C 
ATOM     25  C   UNL     1     -13.788  60.134  49.954  0.00  0.00    +0.000 C 
ATOM     26  C   UNL     1     -14.197  59.654  48.567  0.00  0.00    +0.000 C 
ENDBRANCH  18  21
ENDBRANCH  12  18
ENDBRANCH   1  15
BRANCH   3  27
ATOM     27  C   UNL     1      -9.533  56.435  49.877  0.00  0.00    +0.000 C 
ATOM     28  O   UNL     1      -8.734  57.333  49.644  0.00  0.00    +0.000 OA
BRANCH  27  29
ATOM     29  O   UNL     1     -10.635  56.190  49.115  0.00  0.00    +0.000 OA
BRANCH  29  30
ATOM     30  C   UNL     1     -10.524  55.263  48.037  0.00  0.00    +0.000 C 
ATOM     31  C   UNL     1     -11.577  55.556  46.989  0.00  0.00    +0.000 C 
ENDBRANCH  29  30
ENDBRANCH  27  29
ENDBRANCH   3  27
TORSDOF 6
ENDMDL
MODEL 2
REMARK VINA RESULT:      -7.3      2.715      7.346
REMARK  Name = 
REMARK  9 active torsions:
REMARK  status: ('A' for Active; 'I' for Inactive)
REMARK    1  A    between atoms: S_1  and  N_4
REMARK    2  A    between atoms: S_1  and  N_5
REMARK    3  A    between atoms: N_12  and  C_14
REMARK    4  A    between atoms: C_16  and  C_19
REMARK    5  A    between atoms: C_19  and  O_23
REMARK    6  A    between atoms: O_23  and  C_26
REMARK    7  A    between atoms: C_24  and  C_27
REMARK    8  A    between atoms: C_24  and  C_28
REMARK    9  A    between atoms: C_26  and  C_29
REMARK                            x       y       z     vdW  Elec       q    Type
REMARK                         _______ _______ _______ _____ _____    ______ ____
ROOT
ATOM      1  C   UNL     1     -10.922  55.258  50.491  0.00  0.00    +0.000 A 
ATOM      2  S   UNL     1     -11.491  55.334  52.091  0.00  0.00    +0.000 S 
ATOM      3  C   UNL     1     -11.725  55.922  49.581  0.00  0.00    +0.000 A 
ATOM      4  C   UNL     1     -12.659  56.497  51.669  0.00  0.00    +0.000 A 
ATOM      5  C   UNL     1     -12.682  56.739  50.306  0.00  0.00    +0.000 A 
ATOM      6  C   UNL     1     -13.544  57.168  52.690  0.00  0.00    +0.000 C 
ATOM      7  C   UNL     1     -13.657  57.708  49.700  0.00  0.00    +0.000 C 
ATOM      8  C   UNL     1     -14.772  57.847  52.006  0.00  0.00    +0.000 C 
ATOM      9  C   UNL     1     -14.302  58.613  50.744  0.00  0.00    +0.000 C 
ATOM     10  C   UNL     1     -15.425  58.871  52.950  0.00  0.00    +0.000 C 
ATOM     11  C   UNL     1     -15.832  56.785  51.645  0.00  0.00    +0.000 C 
ENDROOT
BRANCH   1  15
ATOM     12  N   UNL     1      -8.598  52.517  50.027  0.00  0.00    +0.000 N 
ATOM     13  C   UNL     1      -9.812  53.173  50.168  0.00  0.00    +0.000 C 
ATOM     14  O   UNL     1     -10.831  52.508  50.059  0.00  0.00    +0.000 OA
ATOM     15  N   UNL     1      -9.762  54.536  50.340  0.00  0.00    +0.000 N 
ATOM     16  H   UNL     1      -8.642  51.586  49.710  0.00  0.00    +0.000 HD
ATOM     17  H   UNL     1      -8.892  54.997  50.354  0.00  0.00    +0.000 HD
BRANCH  12  18
ATOM     18  S   UNL     1      -7.102  53.110  50.326  0.00  0.00    +0.000 S 
ATOM     19  O   UNL     1      -6.177  51.996  50.260  0.00  0.00    +0.000 OA
ATOM     20  O   UNL     1      -6.928  54.288  49.512  0.00  0.00    +0.000 OA
BRANCH  18  21
ATOM     21  N   UNL     1      -7.223  53.595  51.940  0.00  0.00    +0.000 NA
ATOM     22  C   UNL     1      -6.623  52.659  52.933  0.00  0.00    +0.000 C 
ATOM     23  C   UNL     1      -6.738  54.994  52.135  0.00  0.00    +0.000 C 
ATOM     24  C   UNL     1      -6.950  53.114  54.352  0.00  0.00    +0.000 C 
ATOM     25  C   UNL     1      -7.038  55.480  53.549  0.00  0.00    +0.000 C 
ATOM     26  C   UNL     1      -6.462  54.537  54.598  0.00  0.00    +0.000 C 
ENDBRANCH  18  21
ENDBRANCH  12  18
ENDBRANCH   1  15
BRANCH   3  27
ATOM     27  C   UNL     1     -11.614  55.795  48.121  0.00  0.00    +0.000 C 
ATOM     28  O   UNL     1     -12.560  55.772  47.342  0.00  0.00    +0.000 OA
BRANCH  27  29
ATOM     29  O   UNL     1     -10.312  55.758  47.725  0.00  0.00    +0.000 OA
BRANCH  29  30
ATOM     30  C   UNL     1      -9.950  54.879  46.661  0.00  0.00    +0.000 C 
ATOM     31  C   UNL     1      -8.487  55.061  46.312  0.00  0.00    +0.000 C 
ENDBRANCH  29  30
ENDBRANCH  27  29
ENDBRANCH   3  27
TORSDOF 6
ENDMDL
MODEL 3
REMARK VINA RESULT:      -7.1      1.919      2.566
REMARK  Name = 
REMARK  9 active torsions:
REMARK  status: ('A' for Active; 'I' for Inactive)
REMARK    1  A    between atoms: S_1  and  N_4
REMARK    2  A    between atoms: S_1  and  N_5
REMARK    3  A    between atoms: N_12  and  C_14
REMARK    4  A    between atoms: C_16  and  C_19
REMARK    5  A    between atoms: C_19  and  O_23
REMARK    6  A    between atoms: O_23  and  C_26
REMARK    7  A    between atoms: C_24  and  C_27
REMARK    8  A    between atoms: C_24  and  C_28
REMARK    9  A    between atoms: C_26  and  C_29
REMARK                            x       y       z     vdW  Elec       q    Type
REMARK                         _______ _______ _______ _____ _____    ______ ____
ROOT
ATOM      1  C   UNL     1     -10.111  55.161  51.313  0.00  0.00    +0.000 A 
ATOM      2  S   UNL     1     -10.404  54.330  52.766  0.00  0.00    +0.000 S 
ATOM      3  C   UNL     1      -8.768  55.285  51.002  0.00  0.00    +0.000 A 
ATOM      4  C   UNL     1      -8.774  53.854  52.876  0.00  0.00    +0.000 A 
ATOM      5  C   UNL     1      -8.001  54.414  51.873  0.00  0.00    +0.000 A 
ATOM      6  C   UNL     1      -8.269  52.924  53.952  0.00  0.00    +0.000 C 
ATOM      7  C   UNL     1      -6.523  54.157  51.791  0.00  0.00    +0.000 C 
ATOM      8  C   UNL     1      -6.715  52.996  54.070  0.00  0.00    +0.000 C 
ATOM      9  C   UNL     1      -6.088  52.977  52.653  0.00  0.00    +0.000 C 
ATOM     10  C   UNL     1      -6.169  51.776  54.831  0.00  0.00    +0.000 C 
ATOM     11  C   UNL     1      -6.300  54.266  54.841  0.00  0.00    +0.000 C 
ENDROOT
BRANCH   1  15
ATOM     12  N   UNL     1     -13.151  55.235  49.344  0.00  0.00    +0.000 N 
ATOM     13  C   UNL     1     -12.024  54.715  49.962  0.00  0.00    +0.000 C 
ATOM     14  O   UNL     1     -11.843  53.509  49.888  0.00  0.00    +0.000 OA
ATOM     15  N   UNL     1     -11.247  55.598  50.675  0.00  0.00    +0.000 N 
ATOM     16  H   UNL     1     -13.803  54.578  49.006  0.00  0.00    +0.000 HD
ATOM     17  H   UNL     1     -11.507  56.546  50.729  0.00  0.00    +0.000 HD
BRANCH  12  18
ATOM     18  S   UNL     1     -13.525  56.811  49.109  0.00  0.00    +0.000 S 
ATOM     19  O   UNL     1     -12.307  57.487  48.708  0.00  0.00    +0.000 OA
ATOM     20  O   UNL     1     -14.720  56.861  48.302  0.00  0.00    +0.000 OA
BRANCH  18  21
ATOM     21  N   UNL     1     -13.919  57.324  50.670  0.00  0.00    +0.000 NA
ATOM     22  C   UNL     1     -14.035  58.800  50.846  0.00  0.00    +0.000 C 
ATOM     23  C   UNL     1     -15.115  56.608  51.203  0.00  0.00    +0.000 C 
ATOM     24  C   UNL     1     -14.215  59.144  52.321  0.00  0.00    +0.000 C 
ATOM     25  C   UNL     1     -15.334  56.936  52.676  0.00  0.00    +0.000 C 
ATOM     26  C   UNL     1     -15.434  58.439  52.903  0.00  0.00    +0.000 C 
ENDBRANCH  18  21
ENDBRANCH  12  18
ENDBRANCH   1  15
BRANCH   3  27
ATOM     27  C   UNL     1      -8.231  56.171  49.959  0.00  0.00    +0.000 C 
ATOM     28  O   UNL     1      -8.221  57.395  50.012  0.00  0.00    +0.000 OA
BRANCH  27  29
ATOM     29  O   UNL     1      -7.690  55.456  48.933  0.00  0.00    +0.000 OA
BRANCH  29  30
ATOM     30  C   UNL     1      -8.544  54.600  48.177  0.00  0.00    +0.000 C 
ATOM     31  C   UNL     1      -9.485  55.425  47.324  0.00  0.00    +0.000 C 
ENDBRANCH  29  30
ENDBRANCH  27  29
ENDBRANCH   3  27
TORSDOF 6
ENDMDL
MODEL 4
REMARK VINA RESULT:      -6.9      3.219      7.306
REMARK  Name = 
REMARK  9 active torsions:
REMARK  status: ('A' for Active; 'I' for Inactive)
REMARK    1  A    between atoms: S_1  and  N_4
REMARK    2  A    between atoms: S_1  and  N_5
REMARK    3  A    between atoms: N_12  and  C_14
REMARK    4  A    between atoms: C_16  and  C_19
REMARK    5  A    between atoms: C_19  and  O_23
REMARK    6  A    between atoms: O_23  and  C_26
REMARK    7  A    between atoms: C_24  and  C_27
REMARK    8  A    between atoms: C_24  and  C_28
REMARK    9  A    between atoms: C_26  and  C_29
REMARK                            x       y       z     vdW  Elec       q    Type
REMARK                         _______ _______ _______ _____ _____    ______ ____
ROOT
ATOM      1  C   UNL     1     -11.276  55.134  50.257  0.00  0.00    +0.000 A 
ATOM      2  S   UNL     1     -11.594  55.355  51.912  0.00  0.00    +0.000 S 
ATOM      3  C   UNL     1     -12.211  55.723  49.426  0.00  0.00    +0.000 A 
ATOM      4  C   UNL     1     -12.819  56.486  51.572  0.00  0.00    +0.000 A 
ATOM      5  C   UNL     1     -13.050  56.608  50.212  0.00  0.00    +0.000 A 
ATOM      6  C   UNL     1     -13.542  57.251  52.653  0.00  0.00    +0.000 C 
ATOM      7  C   UNL     1     -14.111  57.528  49.680  0.00  0.00    +0.000 C 
ATOM      8  C   UNL     1     -14.863  57.878  52.107  0.00  0.00    +0.000 C 
ATOM      9  C   UNL     1     -14.594  58.526  50.727  0.00  0.00    +0.000 C 
ATOM     10  C   UNL     1     -15.369  58.985  53.047  0.00  0.00    +0.000 C 
ATOM     11  C   UNL     1     -15.960  56.798  52.007  0.00  0.00    +0.000 C 
ENDROOT
BRANCH   1  15
ATOM     12  N   UNL     1      -7.814  54.121  49.908  0.00  0.00    +0.000 N 
ATOM     13  C   UNL     1      -8.901  54.931  50.202  0.00  0.00    +0.000 C 
ATOM     14  O   UNL     1      -8.673  56.030  50.685  0.00  0.00    +0.000 OA
ATOM     15  N   UNL     1     -10.148  54.392  49.995  0.00  0.00    +0.000 N 
ATOM     16  H   UNL     1      -6.940  54.430  50.239  0.00  0.00    +0.000 HD
ATOM     17  H   UNL     1     -10.234  53.471  49.658  0.00  0.00    +0.000 HD
BRANCH  12  18
ATOM     18  S   UNL     1      -7.815  52.711  49.077  0.00  0.00    +0.000 S 
ATOM     19  O   UNL     1      -6.445  52.243  49.023  0.00  0.00    +0.000 OA
ATOM     20  O   UNL     1      -8.876  51.891  49.609  0.00  0.00    +0.000 OA
BRANCH  18  21
ATOM     21  N   UNL     1      -8.260  53.209  47.524  0.00  0.00    +0.000 NA
ATOM     22  C   UNL     1      -7.702  54.523  47.093  0.00  0.00    +0.000 C 
ATOM     23  C   UNL     1      -8.012  52.143  46.508  0.00  0.00    +0.000 C 
ATOM     24  C   UNL     1      -8.314  54.943  45.760  0.00  0.00    +0.000 C 
ATOM     25  C   UNL     1      -8.600  52.534  45.157  0.00  0.00    +0.000 C 
ATOM     26  C   UNL     1      -8.074  53.885  44.689  0.00  0.00    +0.000 C 
ENDBRANCH  18  21
ENDBRANCH  12  18
ENDBRANCH   1  15
BRANCH   3  27
ATOM     27  C   UNL     1     -12.324  55.468  47.982  0.00  0.00    +0.000 C 
ATOM     28  O   UNL     1     -12.516  56.326  47.129  0.00  0.00    +0.000 OA
BRANCH  27  29
ATOM     29  O   UNL     1     -12.135  54.150  47.696  0.00  0.00    +0.000 OA
BRANCH  29  30
ATOM     30  C   UNL     1     -11.780  53.787  46.363  0.00  0.00    +0.000 C 
ATOM     31  C   UNL     1     -12.112  52.330  46.114  0.00  0.00    +0.000 C 
ENDBRANCH  29  30
ENDBRANCH  27  29
ENDBRANCH   3  27
TORSDOF 6
ENDMDL
MODEL 5
REMARK VINA RESULT:      -6.9      3.798      5.606
REMARK  Name = 
REMARK  9 active torsions:
REMARK  status: ('A' for Active; 'I' for Inactive)
REMARK    1  A    between atoms: S_1  and  N_4
REMARK    2  A    between atoms: S_1  and  N_5
REMARK    3  A    between atoms: N_12  and  C_14
REMARK    4  A    between atoms: C_16  and  C_19
REMARK    5  A    between atoms: C_19  and  O_23
REMARK    6  A    between atoms: O_23  and  C_26
REMARK    7  A    between atoms: C_24  and  C_27
REMARK    8  A    between atoms: C_24  and  C_28
REMARK    9  A    between atoms: C_26  and  C_29
REMARK                            x       y       z     vdW  Elec       q    Type
REMARK                         _______ _______ _______ _____ _____    ______ ____
ROOT
ATOM      1  C   UNL     1     -11.081  53.983  47.086  0.00  0.00    +0.000 A 
ATOM      2  S   UNL     1     -11.796  53.641  45.583  0.00  0.00    +0.000 S 
ATOM      3  C   UNL     1      -9.905  53.292  47.314  0.00  0.00    +0.000 A 
ATOM      4  C   UNL     1     -10.415  52.791  45.068  0.00  0.00    +0.000 A 
ATOM      5  C   UNL     1      -9.468  52.680  46.072  0.00  0.00    +0.000 A 
ATOM      6  C   UNL     1     -10.273  52.241  43.670  0.00  0.00    +0.000 C 
ATOM      7  C   UNL     1      -8.179  51.942  45.853  0.00  0.00    +0.000 C 
ATOM      8  C   UNL     1      -9.136  51.173  43.601  0.00  0.00    +0.000 C 
ATOM      9  C   UNL     1      -7.898  51.688  44.376  0.00  0.00    +0.000 C 
ATOM     10  C   UNL     1      -8.702  50.933  42.145  0.00  0.00    +0.000 C 
ATOM     11  C   UNL     1      -9.633  49.833  44.179  0.00  0.00    +0.000 C 
ENDROOT
BRANCH   1  15
ATOM     12  N   UNL     1     -13.148  55.418  49.692  0.00  0.00    +0.000 N 
ATOM     13  C   UNL     1     -12.457  54.454  48.975  0.00  0.00    +0.000 C 
ATOM     14  O   UNL     1     -12.439  53.318  49.426  0.00  0.00    +0.000 OA
ATOM     15  N   UNL     1     -11.785  54.880  47.854  0.00  0.00    +0.000 N 
ATOM     16  H   UNL     1     -13.459  55.154  50.589  0.00  0.00    +0.000 HD
ATOM     17  H   UNL     1     -11.808  55.831  47.600  0.00  0.00    +0.000 HD
BRANCH  12  18
ATOM     18  S   UNL     1     -13.508  56.945  49.225  0.00  0.00    +0.000 S 
ATOM     19  O   UNL     1     -12.272  57.703  49.244  0.00  0.00    +0.000 OA
ATOM     20  O   UNL     1     -14.324  56.858  48.039  0.00  0.00    +0.000 OA
BRANCH  18  21
ATOM     21  N   UNL     1     -14.478  57.492  50.496  0.00  0.00    +0.000 NA
ATOM     22  C   UNL     1     -14.656  56.530  51.621  0.00  0.00    +0.000 C 
ATOM     23  C   UNL     1     -14.048  58.837  50.982  0.00  0.00    +0.000 C 
ATOM     24  C   UNL     1     -15.686  57.062  52.612  0.00  0.00    +0.000 C 
ATOM     25  C   UNL     1     -15.049  59.397  51.986  0.00  0.00    +0.000 C 
ATOM     26  C   UNL     1     -15.279  58.432  53.142  0.00  0.00    +0.000 C 
ENDBRANCH  18  21
ENDBRANCH  12  18
ENDBRANCH   1  15
BRANCH   3  27
ATOM     27  C   UNL     1      -9.230  53.198  48.618  0.00  0.00    +0.000 C 
ATOM     28  O   UNL     1      -9.164  52.186  49.305  0.00  0.00    +0.000 OA
BRANCH  27  29
ATOM     29  O   UNL     1      -8.633  54.376  48.951  0.00  0.00    +0.000 OA
BRANCH  29  30
ATOM     30  C   UNL     1      -8.982  54.987  50.192  0.00  0.00    +0.000 C 
ATOM     31  C   UNL     1      -8.801  56.488  50.101  0.00  0.00    +0.000 C 
ENDBRANCH  29  30
ENDBRANCH  27  29
ENDBRANCH   3  27
TORSDOF 6
ENDMDL
MODEL 6
REMARK VINA RESULT:      -6.8      3.006      7.507
REMARK  Name = 
REMARK  9 active torsions:
REMARK  status: ('A' for Active; 'I' for Inactive)
REMARK    1  A    between atoms: S_1  and  N_4
REMARK    2  A    between atoms: S_1  and  N_5
REMARK    3  A    between atoms: N_12  and  C_14
REMARK    4  A    between atoms: C_16  and  C_19
REMARK    5  A    between atoms: C_19  and  O_23
REMARK    6  A    between atoms: O_23  and  C_26
REMARK    7  A    between atoms: C_24  and  C_27
REMARK    8  A    between atoms: C_24  and  C_28
REMARK    9  A    between atoms: C_26  and  C_29
REMARK                            x       y       z     vdW  Elec       q    Type
REMARK                         _______ _______ _______ _____ _____    ______ ____
ROOT
ATOM      1  C   UNL     1     -11.377  55.196  50.085  0.00  0.00    +0.000 A 
ATOM      2  S   UNL     1     -11.695  55.300  51.751  0.00  0.00    +0.000 S 
ATOM      3  C   UNL     1     -12.287  55.878  49.299  0.00  0.00    +0.000 A 
ATOM      4  C   UNL     1     -12.879  56.496  51.496  0.00  0.00    +0.000 A 
ATOM      5  C   UNL     1     -13.099  56.730  50.149  0.00  0.00    +0.000 A 
ATOM      6  C   UNL     1     -13.580  57.201  52.631  0.00  0.00    +0.000 C 
ATOM      7  C   UNL     1     -14.125  57.724  49.686  0.00  0.00    +0.000 C 
ATOM      8  C   UNL     1     -14.876  57.913  52.132  0.00  0.00    +0.000 C 
ATOM      9  C   UNL     1     -14.579  58.656  50.805  0.00  0.00    +0.000 C 
ATOM     10  C   UNL     1     -15.349  58.963  53.152  0.00  0.00    +0.000 C 
ATOM     11  C   UNL     1     -16.009  56.883  51.946  0.00  0.00    +0.000 C 
ENDROOT
BRANCH   1  15
ATOM     12  N   UNL     1      -8.025  54.212  49.121  0.00  0.00    +0.000 N 
ATOM     13  C   UNL     1      -9.089  55.046  49.432  0.00  0.00    +0.000 C 
ATOM     14  O   UNL     1      -8.877  56.249  49.451  0.00  0.00    +0.000 OA
ATOM     15  N   UNL     1     -10.274  54.437  49.769  0.00  0.00    +0.000 N 
ATOM     16  H   UNL     1      -7.138  54.638  49.074  0.00  0.00    +0.000 HD
ATOM     17  H   UNL     1     -10.334  53.455  49.785  0.00  0.00    +0.000 HD
BRANCH  12  18
ATOM     18  S   UNL     1      -8.072  52.603  48.823  0.00  0.00    +0.000 S 
ATOM     19  O   UNL     1      -9.064  52.385  47.790  0.00  0.00    +0.000 OA
ATOM     20  O   UNL     1      -6.711  52.147  48.675  0.00  0.00    +0.000 OA
BRANCH  18  21
ATOM     21  N   UNL     1      -8.681  51.986  50.273  0.00  0.00    +0.000 NA
ATOM     22  C   UNL     1      -9.561  50.790  50.137  0.00  0.00    +0.000 C 
ATOM     23  C   UNL     1      -7.600  51.765  51.279  0.00  0.00    +0.000 C 
ATOM     24  C   UNL     1     -10.187  50.439  51.483  0.00  0.00    +0.000 C 
ATOM     25  C   UNL     1      -8.188  51.400  52.638  0.00  0.00    +0.000 C 
ATOM     26  C   UNL     1      -9.115  50.195  52.539  0.00  0.00    +0.000 C 
ENDBRANCH  18  21
ENDBRANCH  12  18
ENDBRANCH   1  15
BRANCH   3  27
ATOM     27  C   UNL     1     -12.402  55.739  47.839  0.00  0.00    +0.000 C 
ATOM     28  O   UNL     1     -12.871  56.583  47.086  0.00  0.00    +0.000 OA
BRANCH  27  29
ATOM     29  O   UNL     1     -11.868  54.561  47.412  0.00  0.00    +0.000 OA
BRANCH  29  30
ATOM     30  C   UNL     1     -11.190  54.537  46.157  0.00  0.00    +0.000 C 
ATOM     31  C   UNL     1     -11.713  53.399  45.305  0.00  0.00    +0.000 C 
ENDBRANCH  29  30
ENDBRANCH  27  29
ENDBRANCH   3  27
TORSDOF 6
ENDMDL
MODEL 7
REMARK VINA RESULT:      -6.5      2.959      7.365
REMARK  Name = 
REMARK  9 active torsions:
REMARK  status: ('A' for Active; 'I' for Inactive)
REMARK    1  A    between atoms: S_1  and  N_4
REMARK    2  A    between atoms: S_1  and  N_5
REMARK    3  A    between atoms: N_12  and  C_14
REMARK    4  A    between atoms: C_16  and  C_19
REMARK    5  A    between atoms: C_19  and  O_23
REMARK    6  A    between atoms: O_23  and  C_26
REMARK    7  A    between atoms: C_24  and  C_27
REMARK    8  A    between atoms: C_24  and  C_28
REMARK    9  A    between atoms: C_26  and  C_29
REMARK                            x       y       z     vdW  Elec       q    Type
REMARK                         _______ _______ _______ _____ _____    ______ ____
ROOT
ATOM      1  C   UNL     1     -10.859  54.653  50.627  0.00  0.00    +0.000 A 
ATOM      2  S   UNL     1     -11.719  54.863  52.078  0.00  0.00    +0.000 S 
ATOM      3  C   UNL     1     -11.359  55.393  49.571  0.00  0.00    +0.000 A 
ATOM      4  C   UNL     1     -12.597  56.164  51.423  0.00  0.00    +0.000 A 
ATOM      5  C   UNL     1     -12.312  56.361  50.082  0.00  0.00    +0.000 A 
ATOM      6  C   UNL     1     -13.562  56.987  52.240  0.00  0.00    +0.000 C 
ATOM      7  C   UNL     1     -12.995  57.437  49.288  0.00  0.00    +0.000 C 
ATOM      8  C   UNL     1     -14.517  57.810  51.318  0.00  0.00    +0.000 C 
ATOM      9  C   UNL     1     -13.698  58.459  50.175  0.00  0.00    +0.000 C 
ATOM     10  C   UNL     1     -15.190  58.946  52.106  0.00  0.00    +0.000 C 
ATOM     11  C   UNL     1     -15.625  56.897  50.755  0.00  0.00    +0.000 C 
ENDROOT
BRANCH   1  15
ATOM     12  N   UNL     1      -8.879  51.622  50.504  0.00  0.00    +0.000 N 
ATOM     13  C   UNL     1      -9.985  52.449  50.381  0.00  0.00    +0.000 C 
ATOM     14  O   UNL     1     -11.007  51.963  49.921  0.00  0.00    +0.000 OA
ATOM     15  N   UNL     1      -9.809  53.770  50.717  0.00  0.00    +0.000 N 
ATOM     16  H   UNL     1      -8.951  50.735  50.082  0.00  0.00    +0.000 HD
ATOM     17  H   UNL     1      -8.928  54.085  51.023  0.00  0.00    +0.000 HD
BRANCH  12  18
ATOM     18  S   UNL     1      -7.468  51.946  51.268  0.00  0.00    +0.000 S 
ATOM     19  O   UNL     1      -7.787  52.722  52.449  0.00  0.00    +0.000 OA
ATOM     20  O   UNL     1      -6.722  50.713  51.350  0.00  0.00    +0.000 OA
BRANCH  18  21
ATOM     21  N   UNL     1      -6.689  52.964  50.167  0.00  0.00    +0.000 NA
ATOM     22  C   UNL     1      -6.208  54.259  50.728  0.00  0.00    +0.000 C 
ATOM     23  C   UNL     1      -5.610  52.250  49.421  0.00  0.00    +0.000 C 
ATOM     24  C   UNL     1      -5.688  55.157  49.610  0.00  0.00    +0.000 C 
ATOM     25  C   UNL     1      -5.056  53.124  48.300  0.00  0.00    +0.000 C 
ATOM     26  C   UNL     1      -4.576  54.470  48.828  0.00  0.00    +0.000 C 
ENDBRANCH  18  21
ENDBRANCH  12  18
ENDBRANCH   1  15
BRANCH   3  27
ATOM     27  C   UNL     1     -10.978  55.203  48.163  0.00  0.00    +0.000 C 
ATOM     28  O   UNL     1      -9.966  55.656  47.641  0.00  0.00    +0.000 OA
BRANCH  27  29
ATOM     29  O   UNL     1     -11.871  54.409  47.511  0.00  0.00    +0.000 OA
BRANCH  29  30
ATOM     30  C   UNL     1     -11.372  53.351  46.695  0.00  0.00    +0.000 C 
ATOM     31  C   UNL     1     -11.581  53.680  45.232  0.00  0.00    +0.000 C 
ENDBRANCH  29  30
ENDBRANCH  27  29
ENDBRANCH   3  27
TORSDOF 6
ENDMDL
MODEL 8
REMARK VINA RESULT:      -6.4      2.673      4.113
REMARK  Name = 
REMARK  9 active torsions:
REMARK  status: ('A' for Active; 'I' for Inactive)
REMARK    1  A    between atoms: S_1  and  N_4
REMARK    2  A    between atoms: S_1  and  N_5
REMARK    3  A    between atoms: N_12  and  C_14
REMARK    4  A    between atoms: C_16  and  C_19
REMARK    5  A    between atoms: C_19  and  O_23
REMARK    6  A    between atoms: O_23  and  C_26
REMARK    7  A    between atoms: C_24  and  C_27
REMARK    8  A    between atoms: C_24  and  C_28
REMARK    9  A    between atoms: C_26  and  C_29
REMARK                            x       y       z     vdW  Elec       q    Type
REMARK                         _______ _______ _______ _____ _____    ______ ____
ROOT
ATOM      1  C   UNL     1      -9.649  54.234  48.782  0.00  0.00    +0.000 A 
ATOM      2  S   UNL     1      -8.746  54.461  47.361  0.00  0.00    +0.000 S 
ATOM      3  C   UNL     1      -9.104  53.302  49.647  0.00  0.00    +0.000 A 
ATOM      4  C   UNL     1      -7.453  53.546  47.982  0.00  0.00    +0.000 A 
ATOM      5  C   UNL     1      -7.755  52.988  49.213  0.00  0.00    +0.000 A 
ATOM      6  C   UNL     1      -6.142  53.388  47.250  0.00  0.00    +0.000 C 
ATOM      7  C   UNL     1      -6.772  52.113  49.937  0.00  0.00    +0.000 C 
ATOM      8  C   UNL     1      -5.322  52.190  47.823  0.00  0.00    +0.000 C 
ATOM      9  C   UNL     1      -5.361  52.231  49.371  0.00  0.00    +0.000 C 
ATOM     10  C   UNL     1      -3.848  52.286  47.396  0.00  0.00    +0.000 C 
ATOM     11  C   UNL     1      -5.889  50.858  47.290  0.00  0.00    +0.000 C 
ENDROOT
BRANCH   1  15
ATOM     12  N   UNL     1     -11.926  56.991  49.366  0.00  0.00    +0.000 N 
ATOM     13  C   UNL     1     -10.731  56.289  49.321  0.00  0.00    +0.000 C 
ATOM     14  O   UNL     1      -9.712  56.886  49.633  0.00  0.00    +0.000 OA
ATOM     15  N   UNL     1     -10.790  54.998  48.852  0.00  0.00    +0.000 N 
ATOM     16  H   UNL     1     -11.854  57.963  49.511  0.00  0.00    +0.000 HD
ATOM     17  H   UNL     1     -11.652  54.620  48.565  0.00  0.00    +0.000 HD
BRANCH  12  18
ATOM     18  S   UNL     1     -13.442  56.395  49.205  0.00  0.00    +0.000 S 
ATOM     19  O   UNL     1     -13.934  56.815  47.908  0.00  0.00    +0.000 OA
ATOM     20  O   UNL     1     -13.408  55.005  49.589  0.00  0.00    +0.000 OA
BRANCH  18  21
ATOM     21  N   UNL     1     -14.292  57.251  50.389  0.00  0.00    +0.000 NA
ATOM     22  C   UNL     1     -14.006  56.848  51.795  0.00  0.00    +0.000 C 
ATOM     23  C   UNL     1     -14.170  58.727  50.201  0.00  0.00    +0.000 C 
ATOM     24  C   UNL     1     -14.956  57.560  52.752  0.00  0.00    +0.000 C 
ATOM     25  C   UNL     1     -15.099  59.474  51.151  0.00  0.00    +0.000 C 
ATOM     26  C   UNL     1     -14.855  59.073  52.601  0.00  0.00    +0.000 C 
ENDBRANCH  18  21
ENDBRANCH  12  18
ENDBRANCH   1  15
BRANCH   3  27
ATOM     27  C   UNL     1      -9.804  52.728  50.806  0.00  0.00    +0.000 C 
ATOM     28  O   UNL     1     -10.742  51.942  50.743  0.00  0.00    +0.000 OA
BRANCH  27  29
ATOM     29  O   UNL     1      -9.245  53.141  51.976  0.00  0.00    +0.000 OA
BRANCH  29  30
ATOM     30  C   UNL     1      -9.270  54.533  52.288  0.00  0.00    +0.000 C 
ATOM     31  C   UNL     1     -10.675  54.956  52.664  0.00  0.00    +0.000 C 
ENDBRANCH  29  30
ENDBRANCH  27  29
ENDBRANCH   3  27
TORSDOF 6
ENDMDL
MODEL 9
REMARK VINA RESULT:      -6.3      4.597      7.176
REMARK  Name = 
REMARK  9 active torsions:
REMARK  status: ('A' for Active; 'I' for Inactive)
REMARK    1  A    between atoms: S_1  and  N_4
REMARK    2  A    between atoms: S_1  and  N_5
REMARK    3  A    between atoms: N_12  and  C_14
REMARK    4  A    between atoms: C_16  and  C_19
REMARK    5  A    between atoms: C_19  and  O_23
REMARK    6  A    between atoms: O_23  and  C_26
REMARK    7  A    between atoms: C_24  and  C_27
REMARK    8  A    between atoms: C_24  and  C_28
REMARK    9  A    between atoms: C_26  and  C_29
REMARK                            x       y       z     vdW  Elec       q    Type
REMARK                         _______ _______ _______ _____ _____    ______ ____
ROOT
ATOM      1  C   UNL     1      -8.028  53.874  48.575  0.00  0.00    +0.000 A 
ATOM      2  S   UNL     1      -8.073  54.973  47.280  0.00  0.00    +0.000 S 
ATOM      3  C   UNL     1      -8.430  52.595  48.235  0.00  0.00    +0.000 A 
ATOM      4  C   UNL     1      -8.346  53.718  46.164  0.00  0.00    +0.000 A 
ATOM      5  C   UNL     1      -8.507  52.493  46.790  0.00  0.00    +0.000 A 
ATOM      6  C   UNL     1      -8.394  53.950  44.674  0.00  0.00    +0.000 C 
ATOM      7  C   UNL     1      -8.789  51.245  46.003  0.00  0.00    +0.000 C 
ATOM      8  C   UNL     1      -9.064  52.746  43.941  0.00  0.00    +0.000 C 
ATOM      9  C   UNL     1      -8.507  51.419  44.515  0.00  0.00    +0.000 C 
ATOM     10  C   UNL     1      -8.736  52.772  42.438  0.00  0.00    +0.000 C 
ATOM     11  C   UNL     1     -10.596  52.815  44.097  0.00  0.00    +0.000 C 
ENDROOT
BRANCH   1  15
ATOM     12  N   UNL     1      -5.996  54.796  51.430  0.00  0.00    +0.000 N 
ATOM     13  C   UNL     1      -6.334  54.213  50.218  0.00  0.00    +0.000 C 
ATOM     14  O   UNL     1      -5.455  53.617  49.613  0.00  0.00    +0.000 OA
ATOM     15  N   UNL     1      -7.615  54.424  49.766  0.00  0.00    +0.000 N 
ATOM     16  H   UNL     1      -5.037  54.811  51.653  0.00  0.00    +0.000 HD
ATOM     17  H   UNL     1      -8.238  54.971  50.296  0.00  0.00    +0.000 HD
BRANCH  12  18
ATOM     18  S   UNL     1      -7.005  55.464  52.533  0.00  0.00    +0.000 S 
ATOM     19  O   UNL     1      -6.294  55.509  53.795  0.00  0.00    +0.000 OA
ATOM     20  O   UNL     1      -7.575  56.650  51.942  0.00  0.00    +0.000 OA
BRANCH  18  21
ATOM     21  N   UNL     1      -8.222  54.298  52.659  0.00  0.00    +0.000 NA
ATOM     22  C   UNL     1      -7.941  53.185  53.611  0.00  0.00    +0.000 C 
ATOM     23  C   UNL     1      -9.558  54.917  52.911  0.00  0.00    +0.000 C 
ATOM     24  C   UNL     1      -9.023  52.114  53.503  0.00  0.00    +0.000 C 
ATOM     25  C   UNL     1     -10.665  53.872  52.824  0.00  0.00    +0.000 C 
ATOM     26  C   UNL     1     -10.404  52.702  53.764  0.00  0.00    +0.000 C 
ENDBRANCH  18  21
ENDBRANCH  12  18
ENDBRANCH   1  15
BRANCH   3  27
ATOM     27  C   UNL     1      -8.734  51.530  49.203  0.00  0.00    +0.000 C 
ATOM     28  O   UNL     1      -8.174  50.442  49.252  0.00  0.00    +0.000 OA
BRANCH  27  29
ATOM     29  O   UNL     1      -9.695  51.923  50.085  0.00  0.00    +0.000 OA
BRANCH  29  30
ATOM     30  C   UNL     1     -11.009  51.388  49.943  0.00  0.00    +0.000 C 
ATOM     31  C   UNL     1     -11.945  52.446  49.395  0.00  0.00    +0.000 C 
ENDBRANCH  29  30
ENDBRANCH  27  29
ENDBRANCH   3  27
TORSDOF 6
ENDMDL
