MODEL 1
REMARK VINA RESULT:      -7.7      0.000      0.000
REMARK  Name = 
REMARK  9 active torsions:
REMARK  status: ('A' for Active; 'I' for Inactive)
REMARK    1  A    between atoms: S_1  and  N_4
REMARK    2  A    between atoms: S_1  and  C_5
REMARK    3  A    between atoms: N_10  and  C_13
REMARK    4  A    between atoms: C_16  and  C_19
REMARK    5  A    between atoms: C_19  and  O_23
REMARK    6  A    between atoms: O_23  and  C_26
REMARK    7  A    between atoms: C_24  and  C_27
REMARK    8  A    between atoms: C_24  and  C_28
REMARK    9  A    between atoms: C_26  and  C_29
REMARK                            x       y       z     vdW  Elec       q    Type
REMARK                         _______ _______ _______ _____ _____    ______ ____
ROOT
ATOM      1  C   UNL     1     -11.104  54.225  51.534  0.00  0.00    +0.000 A 
ATOM      2  S   UNL     1     -10.661  53.643  53.073  0.00  0.00    +0.000 S 
ATOM      3  C   UNL     1     -10.023  54.707  50.806  0.00  0.00    +0.000 A 
ATOM      4  C   UNL     1      -8.991  53.796  52.722  0.00  0.00    +0.000 A 
ATOM      5  C   UNL     1      -8.785  54.373  51.474  0.00  0.00    +0.000 A 
ATOM      6  C   UNL     1      -7.885  53.368  53.671  0.00  0.00    +0.000 C 
ATOM      7  C   UNL     1      -7.406  54.671  50.961  0.00  0.00    +0.000 C 
ATOM      8  C   UNL     1      -6.519  54.042  53.293  0.00  0.00    +0.000 C 
ATOM      9  C   UNL     1      -6.320  53.952  51.759  0.00  0.00    +0.000 C 
ATOM     10  C   UNL     1      -5.319  53.333  53.949  0.00  0.00    +0.000 C 
ATOM     11  C   UNL     1      -6.505  55.511  53.769  0.00  0.00    +0.000 C 
ENDROOT
BRANCH   1  15
ATOM     12  N   UNL     1     -14.582  55.186  51.164  0.00  0.00    +0.000 N 
ATOM     13  C   UNL     1     -13.231  55.260  51.493  0.00  0.00    +0.000 C 
ATOM     14  O   UNL     1     -12.767  56.287  51.984  0.00  0.00    +0.000 OA
ATOM     15  N   UNL     1     -12.453  54.158  51.198  0.00  0.00    +0.000 N 
ATOM     16  H   UNL     1     -14.945  54.348  50.797  0.00  0.00    +0.000 HD
ATOM     17  H   UNL     1     -12.837  53.359  50.769  0.00  0.00    +0.000 HD
BRANCH  12  18
ATOM     18  S   UNL     1     -15.608  56.512  51.384  0.00  0.00    +0.000 S 
ATOM     19  O   UNL     1     -15.688  56.764  52.819  0.00  0.00    +0.000 OA
ATOM     20  O   UNL     1     -16.821  56.184  50.653  0.00  0.00    +0.000 OA
BRANCH  18  21
ATOM     21  C   UNL     1     -14.805  57.899  50.538  0.00  0.00    +0.000 A 
ATOM     22  N   UNL     1     -14.665  59.028  51.274  0.00  0.00    +0.000 NA
ATOM     23  N   UNL     1     -14.392  57.688  49.269  0.00  0.00    +0.000 NA
ATOM     24  C   UNL     1     -14.032  60.030  50.630  0.00  0.00    +0.000 A 
ATOM     25  C   UNL     1     -13.804  58.746  48.684  0.00  0.00    +0.000 A 
ATOM     26  C   UNL     1     -13.587  59.946  49.327  0.00  0.00    +0.000 A 
ENDBRANCH  18  21
ENDBRANCH  12  18
ENDBRANCH   1  15
BRANCH   3  27
ATOM     27  C   UNL     1     -10.126  55.524  49.594  0.00  0.00    +0.000 C 
ATOM     28  O   UNL     1      -9.826  56.710  49.547  0.00  0.00    +0.000 OA
BRANCH  27  29
ATOM     29  O   UNL     1     -10.751  54.856  48.586  0.00  0.00    +0.000 OA
BRANCH  29  30
ATOM     30  C   UNL     1     -11.836  55.498  47.919  0.00  0.00    +0.000 C 
ATOM     31  C   UNL     1     -11.703  55.322  46.424  0.00  0.00    +0.000 C 
ENDBRANCH  29  30
ENDBRANCH  27  29
ENDBRANCH   3  27
TORSDOF 6
ENDMDL
MODEL 2
REMARK VINA RESULT:      -7.4      3.070      7.606
REMARK  Name = 
REMARK  9 active torsions:
REMARK  status: ('A' for Active; 'I' for Inactive)
REMARK    1  A    between atoms: S_1  and  N_4
REMARK    2  A    between atoms: S_1  and  C_5
REMARK    3  A    between atoms: N_10  and  C_13
REMARK    4  A    between atoms: C_16  and  C_19
REMARK    5  A    between atoms: C_19  and  O_23
REMARK    6  A    between atoms: O_23  and  C_26
REMARK    7  A    between atoms: C_24  and  C_27
REMARK    8  A    between atoms: C_24  and  C_28
REMARK    9  A    between atoms: C_26  and  C_29
REMARK                            x       y       z     vdW  Elec       q    Type
REMARK                         _______ _______ _______ _____ _____    ______ ____
ROOT
ATOM      1  C   UNL     1     -11.062  54.859  50.216  0.00  0.00    +0.000 A 
ATOM      2  S   UNL     1     -11.709  54.886  51.792  0.00  0.00    +0.000 S 
ATOM      3  C   UNL     1     -11.692  55.751  49.357  0.00  0.00    +0.000 A 
ATOM      4  C   UNL     1     -12.683  56.251  51.439  0.00  0.00    +0.000 A 
ATOM      5  C   UNL     1     -12.577  56.618  50.102  0.00  0.00    +0.000 A 
ATOM      6  C   UNL     1     -13.560  56.951  52.462  0.00  0.00    +0.000 C 
ATOM      7  C   UNL     1     -13.381  57.748  49.529  0.00  0.00    +0.000 C 
ATOM      8  C   UNL     1     -14.653  57.835  51.764  0.00  0.00    +0.000 C 
ATOM      9  C   UNL     1     -13.994  58.635  50.612  0.00  0.00    +0.000 C 
ATOM     10  C   UNL     1     -15.276  58.860  52.730  0.00  0.00    +0.000 C 
ATOM     11  C   UNL     1     -15.797  56.942  51.237  0.00  0.00    +0.000 C 
ENDROOT
BRANCH   1  15
ATOM     12  N   UNL     1      -7.700  53.507  50.054  0.00  0.00    +0.000 N 
ATOM     13  C   UNL     1      -8.744  54.395  50.302  0.00  0.00    +0.000 C 
ATOM     14  O   UNL     1      -8.521  55.483  50.829  0.00  0.00    +0.000 OA
ATOM     15  N   UNL     1     -10.017  53.971  49.977  0.00  0.00    +0.000 N 
ATOM     16  H   UNL     1      -7.889  52.651  49.607  0.00  0.00    +0.000 HD
ATOM     17  H   UNL     1     -10.178  53.079  49.592  0.00  0.00    +0.000 HD
BRANCH  12  18
ATOM     18  S   UNL     1      -6.113  53.877  50.507  0.00  0.00    +0.000 S 
ATOM     19  O   UNL     1      -5.821  55.216  50.005  0.00  0.00    +0.000 OA
ATOM     20  O   UNL     1      -5.311  52.756  50.044  0.00  0.00    +0.000 OA
BRANCH  18  21
ATOM     21  C   UNL     1      -6.104  53.859  52.319  0.00  0.00    +0.000 A 
ATOM     22  N   UNL     1      -5.821  55.045  52.912  0.00  0.00    +0.000 NA
ATOM     23  N   UNL     1      -6.403  52.689  52.923  0.00  0.00    +0.000 NA
ATOM     24  C   UNL     1      -5.857  55.009  54.259  0.00  0.00    +0.000 A 
ATOM     25  C   UNL     1      -6.381  52.726  54.267  0.00  0.00    +0.000 A 
ATOM     26  C   UNL     1      -6.124  53.870  54.992  0.00  0.00    +0.000 A 
ENDBRANCH  18  21
ENDBRANCH  12  18
ENDBRANCH   1  15
BRANCH   3  27
ATOM     27  C   UNL     1     -11.559  55.746  47.897  0.00  0.00    +0.000 C 
ATOM     28  O   UNL     1     -12.493  55.548  47.131  0.00  0.00    +0.000 OA
BRANCH  27  29
ATOM     29  O   UNL     1     -10.256  55.815  47.509  0.00  0.00    +0.000 OA
BRANCH  29  30
ATOM     30  C   UNL     1      -9.795  54.896  46.521  0.00  0.00    +0.000 C 
ATOM     31  C   UNL     1      -8.286  54.833  46.534  0.00  0.00    +0.000 C 
ENDBRANCH  29  30
ENDBRANCH  27  29
ENDBRANCH   3  27
TORSDOF 6
ENDMDL
MODEL 3
REMARK VINA RESULT:      -7.1      3.676      8.167
REMARK  Name = 
REMARK  9 active torsions:
REMARK  status: ('A' for Active; 'I' for Inactive)
REMARK    1  A    between atoms: S_1  and  N_4
REMARK    2  A    between atoms: S_1  and  C_5
REMARK    3  A    between atoms: N_10  and  C_13
REMARK    4  A    between atoms: C_16  and  C_19
REMARK    5  A    between atoms: C_19  and  O_23
REMARK    6  A    between atoms: O_23  and  C_26
REMARK    7  A    between atoms: C_24  and  C_27
REMARK    8  A    between atoms: C_24  and  C_28
REMARK    9  A    between atoms: C_26  and  C_29
REMARK                            x       y       z     vdW  Elec       q    Type
REMARK                         _______ _______ _______ _____ _____    ______ ____
ROOT
ATOM      1  C   UNL     1     -10.951  54.946  50.252  0.00  0.00    +0.000 A 
ATOM      2  S   UNL     1     -11.542  54.984  51.850  0.00  0.00    +0.000 S 
ATOM      3  C   UNL     1     -11.657  55.781  49.394  0.00  0.00    +0.000 A 
ATOM      4  C   UNL     1     -12.597  56.288  51.498  0.00  0.00    +0.000 A 
ATOM      5  C   UNL     1     -12.558  56.623  50.149  0.00  0.00    +0.000 A 
ATOM      6  C   UNL     1     -13.471  56.971  52.534  0.00  0.00    +0.000 C 
ATOM      7  C   UNL     1     -13.439  57.695  49.577  0.00  0.00    +0.000 C 
ATOM      8  C   UNL     1     -14.633  57.779  51.855  0.00  0.00    +0.000 C 
ATOM      9  C   UNL     1     -14.058  58.579  50.659  0.00  0.00    +0.000 C 
ATOM     10  C   UNL     1     -15.273  58.798  52.816  0.00  0.00    +0.000 C 
ATOM     11  C   UNL     1     -15.748  56.815  51.393  0.00  0.00    +0.000 C 
ENDROOT
BRANCH   1  15
ATOM     12  N   UNL     1      -7.529  53.799  49.889  0.00  0.00    +0.000 N 
ATOM     13  C   UNL     1      -8.608  54.640  50.153  0.00  0.00    +0.000 C 
ATOM     14  O   UNL     1      -8.417  55.789  50.547  0.00  0.00    +0.000 OA
ATOM     15  N   UNL     1      -9.871  54.106  49.998  0.00  0.00    +0.000 N 
ATOM     16  H   UNL     1      -7.696  52.891  49.548  0.00  0.00    +0.000 HD
ATOM     17  H   UNL     1     -10.002  53.171  49.719  0.00  0.00    +0.000 HD
BRANCH  12  18
ATOM     18  S   UNL     1      -5.939  54.313  50.145  0.00  0.00    +0.000 S 
ATOM     19  O   UNL     1      -5.751  54.441  51.586  0.00  0.00    +0.000 OA
ATOM     20  O   UNL     1      -5.774  55.486  49.301  0.00  0.00    +0.000 OA
BRANCH  18  21
ATOM     21  C   UNL     1      -4.886  52.997  49.480  0.00  0.00    +0.000 A 
ATOM     22  N   UNL     1      -4.591  53.097  48.160  0.00  0.00    +0.000 NA
ATOM     23  N   UNL     1      -4.462  52.051  50.347  0.00  0.00    +0.000 NA
ATOM     24  C   UNL     1      -3.777  52.125  47.703  0.00  0.00    +0.000 A 
ATOM     25  C   UNL     1      -3.686  51.096  49.805  0.00  0.00    +0.000 A 
ATOM     26  C   UNL     1      -3.300  51.090  48.482  0.00  0.00    +0.000 A 
ENDBRANCH  18  21
ENDBRANCH  12  18
ENDBRANCH   1  15
BRANCH   3  27
ATOM     27  C   UNL     1     -11.576  55.743  47.931  0.00  0.00    +0.000 C 
ATOM     28  O   UNL     1     -12.534  55.518  47.204  0.00  0.00    +0.000 OA
BRANCH  27  29
ATOM     29  O   UNL     1     -10.288  55.814  47.495  0.00  0.00    +0.000 OA
BRANCH  29  30
ATOM     30  C   UNL     1      -9.850  54.865  46.524  0.00  0.00    +0.000 C 
ATOM     31  C   UNL     1      -8.348  54.934  46.373  0.00  0.00    +0.000 C 
ENDBRANCH  29  30
ENDBRANCH  27  29
ENDBRANCH   3  27
TORSDOF 6
ENDMDL
MODEL 4
REMARK VINA RESULT:      -6.8      3.957      7.438
REMARK  Name = 
REMARK  9 active torsions:
REMARK  status: ('A' for Active; 'I' for Inactive)
REMARK    1  A    between atoms: S_1  and  N_4
REMARK    2  A    between atoms: S_1  and  C_5
REMARK    3  A    between atoms: N_10  and  C_13
REMARK    4  A    between atoms: C_16  and  C_19
REMARK    5  A    between atoms: C_19  and  O_23
REMARK    6  A    between atoms: O_23  and  C_26
REMARK    7  A    between atoms: C_24  and  C_27
REMARK    8  A    between atoms: C_24  and  C_28
REMARK    9  A    between atoms: C_26  and  C_29
REMARK                            x       y       z     vdW  Elec       q    Type
REMARK                         _______ _______ _______ _____ _____    ______ ____
ROOT
ATOM      1  C   UNL     1      -8.626  55.008  47.447  0.00  0.00    +0.000 A 
ATOM      2  S   UNL     1      -7.429  54.221  46.525  0.00  0.00    +0.000 S 
ATOM      3  C   UNL     1      -9.917  54.699  47.035  0.00  0.00    +0.000 A 
ATOM      4  C   UNL     1      -8.593  53.264  45.710  0.00  0.00    +0.000 A 
ATOM      5  C   UNL     1      -9.887  53.615  46.079  0.00  0.00    +0.000 A 
ATOM      6  C   UNL     1      -8.245  52.183  44.702  0.00  0.00    +0.000 C 
ATOM      7  C   UNL     1     -11.088  52.964  45.457  0.00  0.00    +0.000 C 
ATOM      8  C   UNL     1      -9.481  51.820  43.806  0.00  0.00    +0.000 C 
ATOM      9  C   UNL     1     -10.733  51.681  44.707  0.00  0.00    +0.000 C 
ATOM     10  C   UNL     1      -9.296  50.477  43.075  0.00  0.00    +0.000 C 
ATOM     11  C   UNL     1      -9.690  52.907  42.729  0.00  0.00    +0.000 C 
ENDROOT
BRANCH   1  15
ATOM     12  N   UNL     1      -7.520  56.118  50.718  0.00  0.00    +0.000 N 
ATOM     13  C   UNL     1      -7.951  55.273  49.698  0.00  0.00    +0.000 C 
ATOM     14  O   UNL     1      -8.065  54.065  49.899  0.00  0.00    +0.000 OA
ATOM     15  N   UNL     1      -8.187  55.848  48.466  0.00  0.00    +0.000 N 
ATOM     16  H   UNL     1      -7.460  57.086  50.551  0.00  0.00    +0.000 HD
ATOM     17  H   UNL     1      -8.052  56.812  48.315  0.00  0.00    +0.000 HD
BRANCH  12  18
ATOM     18  S   UNL     1      -7.101  55.507  52.238  0.00  0.00    +0.000 S 
ATOM     19  O   UNL     1      -6.984  56.645  53.144  0.00  0.00    +0.000 OA
ATOM     20  O   UNL     1      -5.939  54.664  52.006  0.00  0.00    +0.000 OA
BRANCH  18  21
ATOM     21  C   UNL     1      -8.477  54.437  52.733  0.00  0.00    +0.000 A 
ATOM     22  N   UNL     1      -8.124  53.222  53.219  0.00  0.00    +0.000 NA
ATOM     23  N   UNL     1      -9.724  54.941  52.606  0.00  0.00    +0.000 NA
ATOM     24  C   UNL     1      -9.166  52.463  53.612  0.00  0.00    +0.000 A 
ATOM     25  C   UNL     1     -10.710  54.109  52.984  0.00  0.00    +0.000 A 
ATOM     26  C   UNL     1     -10.485  52.854  53.509  0.00  0.00    +0.000 A 
ENDBRANCH  18  21
ENDBRANCH  12  18
ENDBRANCH   1  15
BRANCH   3  27
ATOM     27  C   UNL     1     -11.122  55.432  47.432  0.00  0.00    +0.000 C 
ATOM     28  O   UNL     1     -11.823  56.061  46.649  0.00  0.00    +0.000 OA
BRANCH  27  29
ATOM     29  O   UNL     1     -11.267  55.472  48.785  0.00  0.00    +0.000 OA
BRANCH  29  30
ATOM     30  C   UNL     1     -12.337  54.734  49.372  0.00  0.00    +0.000 C 
ATOM     31  C   UNL     1     -11.942  53.284  49.530  0.00  0.00    +0.000 C 
ENDBRANCH  29  30
ENDBRANCH  27  29
ENDBRANCH   3  27
TORSDOF 6
ENDMDL
MODEL 5
REMARK VINA RESULT:      -6.7      2.302      4.472
REMARK  Name = 
REMARK  9 active torsions:
REMARK  status: ('A' for Active; 'I' for Inactive)
REMARK    1  A    between atoms: S_1  and  N_4
REMARK    2  A    between atoms: S_1  and  C_5
REMARK    3  A    between atoms: N_10  and  C_13
REMARK    4  A    between atoms: C_16  and  C_19
REMARK    5  A    between atoms: C_19  and  O_23
REMARK    6  A    between atoms: O_23  and  C_26
REMARK    7  A    between atoms: C_24  and  C_27
REMARK    8  A    between atoms: C_24  and  C_28
REMARK    9  A    between atoms: C_26  and  C_29
REMARK                            x       y       z     vdW  Elec       q    Type
REMARK                         _______ _______ _______ _____ _____    ______ ____
ROOT
ATOM      1  C   UNL     1     -11.541  54.087  49.327  0.00  0.00    +0.000 A 
ATOM      2  S   UNL     1     -11.954  52.999  48.082  0.00  0.00    +0.000 S 
ATOM      3  C   UNL     1     -10.315  54.706  49.119  0.00  0.00    +0.000 A 
ATOM      4  C   UNL     1     -10.629  53.498  47.117  0.00  0.00    +0.000 A 
ATOM      5  C   UNL     1      -9.832  54.421  47.786  0.00  0.00    +0.000 A 
ATOM      6  C   UNL     1     -10.359  52.978  45.716  0.00  0.00    +0.000 C 
ATOM      7  C   UNL     1      -8.574  54.965  47.177  0.00  0.00    +0.000 C 
ATOM      8  C   UNL     1      -8.874  53.246  45.286  0.00  0.00    +0.000 C 
ATOM      9  C   UNL     1      -8.490  54.696  45.675  0.00  0.00    +0.000 C 
ATOM     10  C   UNL     1      -8.677  53.118  43.763  0.00  0.00    +0.000 C 
ATOM     11  C   UNL     1      -7.935  52.224  45.961  0.00  0.00    +0.000 C 
ENDROOT
BRANCH   1  15
ATOM     12  N   UNL     1     -14.287  55.358  51.327  0.00  0.00    +0.000 N 
ATOM     13  C   UNL     1     -13.388  55.223  50.272  0.00  0.00    +0.000 C 
ATOM     14  O   UNL     1     -13.478  55.949  49.283  0.00  0.00    +0.000 OA
ATOM     15  N   UNL     1     -12.446  54.219  50.375  0.00  0.00    +0.000 N 
ATOM     16  H   UNL     1     -14.186  54.789  52.124  0.00  0.00    +0.000 HD
ATOM     17  H   UNL     1     -12.416  53.623  51.158  0.00  0.00    +0.000 HD
BRANCH  12  18
ATOM     18  S   UNL     1     -15.546  56.484  51.262  0.00  0.00    +0.000 S 
ATOM     19  O   UNL     1     -16.052  56.647  52.621  0.00  0.00    +0.000 OA
ATOM     20  O   UNL     1     -16.443  55.998  50.226  0.00  0.00    +0.000 OA
BRANCH  18  21
ATOM     21  C   UNL     1     -14.796  58.025  50.673  0.00  0.00    +0.000 A 
ATOM     22  N   UNL     1     -14.231  58.801  51.629  0.00  0.00    +0.000 NA
ATOM     23  N   UNL     1     -14.836  58.258  49.343  0.00  0.00    +0.000 NA
ATOM     24  C   UNL     1     -13.649  59.922  51.156  0.00  0.00    +0.000 A 
ATOM     25  C   UNL     1     -14.269  59.414  48.955  0.00  0.00    +0.000 A 
ATOM     26  C   UNL     1     -13.646  60.284  49.825  0.00  0.00    +0.000 A 
ENDBRANCH  18  21
ENDBRANCH  12  18
ENDBRANCH   1  15
BRANCH   3  27
ATOM     27  C   UNL     1      -9.570  55.454  50.136  0.00  0.00    +0.000 C 
ATOM     28  O   UNL     1      -9.153  56.593  49.972  0.00  0.00    +0.000 OA
BRANCH  27  29
ATOM     29  O   UNL     1      -9.252  54.673  51.205  0.00  0.00    +0.000 OA
BRANCH  29  30
ATOM     30  C   UNL     1      -9.716  55.069  52.494  0.00  0.00    +0.000 C 
ATOM     31  C   UNL     1      -8.634  54.849  53.525  0.00  0.00    +0.000 C 
ENDBRANCH  29  30
ENDBRANCH  27  29
ENDBRANCH   3  27
TORSDOF 6
ENDMDL
MODEL 6
REMARK VINA RESULT:      -6.6      2.913      4.583
REMARK  Name = 
REMARK  9 active torsions:
REMARK  status: ('A' for Active; 'I' for Inactive)
REMARK    1  A    between atoms: S_1  and  N_4
REMARK    2  A    between atoms: S_1  and  C_5
REMARK    3  A    between atoms: N_10  and  C_13
REMARK    4  A    between atoms: C_16  and  C_19
REMARK    5  A    between atoms: C_19  and  O_23
REMARK    6  A    between atoms: O_23  and  C_26
REMARK    7  A    between atoms: C_24  and  C_27
REMARK    8  A    between atoms: C_24  and  C_28
REMARK    9  A    between atoms: C_26  and  C_29
REMARK                            x       y       z     vdW  Elec       q    Type
REMARK                         _______ _______ _______ _____ _____    ______ ____
ROOT
ATOM      1  C   UNL     1      -8.440  55.547  49.255  0.00  0.00    +0.000 A 
ATOM      2  S   UNL     1      -7.994  54.941  47.726  0.00  0.00    +0.000 S 
ATOM      3  C   UNL     1      -7.691  55.004  50.292  0.00  0.00    +0.000 A 
ATOM      4  C   UNL     1      -6.636  54.122  48.375  0.00  0.00    +0.000 A 
ATOM      5  C   UNL     1      -6.585  54.240  49.759  0.00  0.00    +0.000 A 
ATOM      6  C   UNL     1      -5.632  53.352  47.535  0.00  0.00    +0.000 C 
ATOM      7  C   UNL     1      -5.522  53.557  50.570  0.00  0.00    +0.000 C 
ATOM      8  C   UNL     1      -4.802  52.352  48.414  0.00  0.00    +0.000 C 
ATOM      9  C   UNL     1      -4.355  53.072  49.712  0.00  0.00    +0.000 C 
ATOM     10  C   UNL     1      -3.525  51.870  47.700  0.00  0.00    +0.000 C 
ATOM     11  C   UNL     1      -5.650  51.103  48.737  0.00  0.00    +0.000 C 
ENDROOT
BRANCH   1  15
ATOM     12  N   UNL     1     -11.795  56.923  49.347  0.00  0.00    +0.000 N 
ATOM     13  C   UNL     1     -10.763  55.988  49.323  0.00  0.00    +0.000 C 
ATOM     14  O   UNL     1     -11.014  54.785  49.376  0.00  0.00    +0.000 OA
ATOM     15  N   UNL     1      -9.473  56.479  49.288  0.00  0.00    +0.000 N 
ATOM     16  H   UNL     1     -11.580  57.881  49.277  0.00  0.00    +0.000 HD
ATOM     17  H   UNL     1      -9.292  57.447  49.286  0.00  0.00    +0.000 HD
BRANCH  12  18
ATOM     18  S   UNL     1     -13.408  56.439  49.495  0.00  0.00    +0.000 S 
ATOM     19  O   UNL     1     -13.405  55.029  49.869  0.00  0.00    +0.000 OA
ATOM     20  O   UNL     1     -14.044  56.840  48.250  0.00  0.00    +0.000 OA
BRANCH  18  21
ATOM     21  C   UNL     1     -14.104  57.451  50.827  0.00  0.00    +0.000 A 
ATOM     22  N   UNL     1     -14.436  58.719  50.483  0.00  0.00    +0.000 NA
ATOM     23  N   UNL     1     -14.258  56.859  52.032  0.00  0.00    +0.000 NA
ATOM     24  C   UNL     1     -14.984  59.435  51.485  0.00  0.00    +0.000 A 
ATOM     25  C   UNL     1     -14.775  57.651  52.987  0.00  0.00    +0.000 A 
ATOM     26  C   UNL     1     -15.170  58.953  52.764  0.00  0.00    +0.000 A 
ENDBRANCH  18  21
ENDBRANCH  12  18
ENDBRANCH   1  15
BRANCH   3  27
ATOM     27  C   UNL     1      -8.031  55.104  51.714  0.00  0.00    +0.000 C 
ATOM     28  O   UNL     1      -9.073  54.679  52.195  0.00  0.00    +0.000 OA
BRANCH  27  29
ATOM     29  O   UNL     1      -7.136  55.872  52.394  0.00  0.00    +0.000 OA
BRANCH  29  30
ATOM     30  C   UNL     1      -7.107  55.778  53.817  0.00  0.00    +0.000 C 
ATOM     31  C   UNL     1      -5.967  54.889  54.255  0.00  0.00    +0.000 C 
ENDBRANCH  29  30
ENDBRANCH  27  29
ENDBRANCH   3  27
TORSDOF 6
ENDMDL
MODEL 7
REMARK VINA RESULT:      -6.6      4.204      8.075
REMARK  Name = 
REMARK  9 active torsions:
REMARK  status: ('A' for Active; 'I' for Inactive)
REMARK    1  A    between atoms: S_1  and  N_4
REMARK    2  A    between atoms: S_1  and  C_5
REMARK    3  A    between atoms: N_10  and  C_13
REMARK    4  A    between atoms: C_16  and  C_19
REMARK    5  A    between atoms: C_19  and  O_23
REMARK    6  A    between atoms: O_23  and  C_26
REMARK    7  A    between atoms: C_24  and  C_27
REMARK    8  A    between atoms: C_24  and  C_28
REMARK    9  A    between atoms: C_26  and  C_29
REMARK                            x       y       z     vdW  Elec       q    Type
REMARK                         _______ _______ _______ _____ _____    ______ ____
ROOT
ATOM      1  C   UNL     1      -8.603  54.917  47.465  0.00  0.00    +0.000 A 
ATOM      2  S   UNL     1      -7.413  54.080  46.578  0.00  0.00    +0.000 S 
ATOM      3  C   UNL     1      -9.893  54.655  47.021  0.00  0.00    +0.000 A 
ATOM      4  C   UNL     1      -8.591  53.164  45.737  0.00  0.00    +0.000 A 
ATOM      5  C   UNL     1      -9.880  53.565  46.070  0.00  0.00    +0.000 A 
ATOM      6  C   UNL     1      -8.257  52.067  44.742  0.00  0.00    +0.000 C 
ATOM      7  C   UNL     1     -11.088  52.957  45.419  0.00  0.00    +0.000 C 
ATOM      8  C   UNL     1      -9.482  51.747  43.815  0.00  0.00    +0.000 C 
ATOM      9  C   UNL     1     -10.762  51.658  44.684  0.00  0.00    +0.000 C 
ATOM     10  C   UNL     1      -9.329  50.394  43.094  0.00  0.00    +0.000 C 
ATOM     11  C   UNL     1      -9.623  52.835  42.729  0.00  0.00    +0.000 C 
ENDROOT
BRANCH   1  15
ATOM     12  N   UNL     1      -7.645  56.026  50.783  0.00  0.00    +0.000 N 
ATOM     13  C   UNL     1      -8.081  55.193  49.755  0.00  0.00    +0.000 C 
ATOM     14  O   UNL     1      -8.336  54.012  49.981  0.00  0.00    +0.000 OA
ATOM     15  N   UNL     1      -8.159  55.744  48.492  0.00  0.00    +0.000 N 
ATOM     16  H   UNL     1      -7.471  56.976  50.594  0.00  0.00    +0.000 HD
ATOM     17  H   UNL     1      -7.913  56.683  48.326  0.00  0.00    +0.000 HD
BRANCH  12  18
ATOM     18  S   UNL     1      -7.411  55.432  52.349  0.00  0.00    +0.000 S 
ATOM     19  O   UNL     1      -8.621  54.707  52.721  0.00  0.00    +0.000 OA
ATOM     20  O   UNL     1      -7.003  56.583  53.139  0.00  0.00    +0.000 OA
BRANCH  18  21
ATOM     21  C   UNL     1      -5.999  54.303  52.239  0.00  0.00    +0.000 A 
ATOM     22  N   UNL     1      -5.945  53.343  53.194  0.00  0.00    +0.000 NA
ATOM     23  N   UNL     1      -5.141  54.489  51.212  0.00  0.00    +0.000 NA
ATOM     24  C   UNL     1      -4.904  52.496  53.065  0.00  0.00    +0.000 A 
ATOM     25  C   UNL     1      -4.110  53.628  51.175  0.00  0.00    +0.000 A 
ATOM     26  C   UNL     1      -3.947  52.597  52.076  0.00  0.00    +0.000 A 
ENDBRANCH  18  21
ENDBRANCH  12  18
ENDBRANCH   1  15
BRANCH   3  27
ATOM     27  C   UNL     1     -11.080  55.434  47.383  0.00  0.00    +0.000 C 
ATOM     28  O   UNL     1     -11.644  56.207  46.620  0.00  0.00    +0.000 OA
BRANCH  27  29
ATOM     29  O   UNL     1     -11.369  55.327  48.709  0.00  0.00    +0.000 OA
BRANCH  29  30
ATOM     30  C   UNL     1     -12.363  54.387  49.111  0.00  0.00    +0.000 C 
ATOM     31  C   UNL     1     -11.717  53.225  49.830  0.00  0.00    +0.000 C 
ENDBRANCH  29  30
ENDBRANCH  27  29
ENDBRANCH   3  27
TORSDOF 6
ENDMDL
MODEL 8
REMARK VINA RESULT:      -6.5      2.082      3.524
REMARK  Name = 
REMARK  9 active torsions:
REMARK  status: ('A' for Active; 'I' for Inactive)
REMARK    1  A    between atoms: S_1  and  N_4
REMARK    2  A    between atoms: S_1  and  C_5
REMARK    3  A    between atoms: N_10  and  C_13
REMARK    4  A    between atoms: C_16  and  C_19
REMARK    5  A    between atoms: C_19  and  O_23
REMARK    6  A    between atoms: O_23  and  C_26
REMARK    7  A    between atoms: C_24  and  C_27
REMARK    8  A    between atoms: C_24  and  C_28
REMARK    9  A    between atoms: C_26  and  C_29
REMARK                            x       y       z     vdW  Elec       q    Type
REMARK                         _______ _______ _______ _____ _____    ______ ____
ROOT
ATOM      1  C   UNL     1     -10.982  53.848  50.695  0.00  0.00    +0.000 A 
ATOM      2  S   UNL     1     -10.538  53.577  49.072  0.00  0.00    +0.000 S 
ATOM      3  C   UNL     1      -9.895  53.847  51.560  0.00  0.00    +0.000 A 
ATOM      4  C   UNL     1      -8.869  53.689  49.442  0.00  0.00    +0.000 A 
ATOM      5  C   UNL     1      -8.660  53.840  50.808  0.00  0.00    +0.000 A 
ATOM      6  C   UNL     1      -7.766  53.614  48.401  0.00  0.00    +0.000 C 
ATOM      7  C   UNL     1      -7.279  53.898  51.393  0.00  0.00    +0.000 C 
ATOM      8  C   UNL     1      -6.382  53.280  49.062  0.00  0.00    +0.000 C 
ATOM      9  C   UNL     1      -6.208  54.149  50.332  0.00  0.00    +0.000 C 
ATOM     10  C   UNL     1      -5.199  53.599  48.128  0.00  0.00    +0.000 C 
ATOM     11  C   UNL     1      -6.308  51.776  49.404  0.00  0.00    +0.000 C 
ENDROOT
BRANCH   1  15
ATOM     12  N   UNL     1     -14.089  55.441  51.678  0.00  0.00    +0.000 N 
ATOM     13  C   UNL     1     -12.733  55.269  51.407  0.00  0.00    +0.000 C 
ATOM     14  O   UNL     1     -11.952  56.211  51.529  0.00  0.00    +0.000 OA
ATOM     15  N   UNL     1     -12.337  54.026  50.958  0.00  0.00    +0.000 N 
ATOM     16  H   UNL     1     -14.698  54.672  51.602  0.00  0.00    +0.000 HD
ATOM     17  H   UNL     1     -12.985  53.296  50.830  0.00  0.00    +0.000 HD
BRANCH  12  18
ATOM     18  S   UNL     1     -14.704  56.949  52.134  0.00  0.00    +0.000 S 
ATOM     19  O   UNL     1     -13.919  57.409  53.274  0.00  0.00    +0.000 OA
ATOM     20  O   UNL     1     -16.135  56.747  52.294  0.00  0.00    +0.000 OA
BRANCH  18  21
ATOM     21  C   UNL     1     -14.451  58.034  50.705  0.00  0.00    +0.000 A 
ATOM     22  N   UNL     1     -14.303  59.350  50.993  0.00  0.00    +0.000 NA
ATOM     23  N   UNL     1     -14.402  57.448  49.489  0.00  0.00    +0.000 NA
ATOM     24  C   UNL     1     -14.080  60.128  49.914  0.00  0.00    +0.000 A 
ATOM     25  C   UNL     1     -14.214  58.294  48.462  0.00  0.00    +0.000 A 
ATOM     26  C   UNL     1     -14.035  59.652  48.619  0.00  0.00    +0.000 A 
ENDBRANCH  18  21
ENDBRANCH  12  18
ENDBRANCH   1  15
BRANCH   3  27
ATOM     27  C   UNL     1      -9.985  53.762  53.021  0.00  0.00    +0.000 C 
ATOM     28  O   UNL     1      -9.589  54.638  53.778  0.00  0.00    +0.000 OA
BRANCH  27  29
ATOM     29  O   UNL     1     -10.399  52.531  53.430  0.00  0.00    +0.000 OA
BRANCH  29  30
ATOM     30  C   UNL     1      -9.501  51.738  54.204  0.00  0.00    +0.000 C 
ATOM     31  C   UNL     1      -8.603  50.934  53.293  0.00  0.00    +0.000 C 
ENDBRANCH  29  30
ENDBRANCH  27  29
ENDBRANCH   3  27
TORSDOF 6
ENDMDL
MODEL 9
REMARK VINA RESULT:      -6.4      3.597      7.285
REMARK  Name = 
REMARK  9 active torsions:
REMARK  status: ('A' for Active; 'I' for Inactive)
REMARK    1  A    between atoms: S_1  and  N_4
REMARK    2  A    between atoms: S_1  and  C_5
REMARK    3  A    between atoms: N_10  and  C_13
REMARK    4  A    between atoms: C_16  and  C_19
REMARK    5  A    between atoms: C_19  and  O_23
REMARK    6  A    between atoms: O_23  and  C_26
REMARK    7  A    between atoms: C_24  and  C_27
REMARK    8  A    between atoms: C_24  and  C_28
REMARK    9  A    between atoms: C_26  and  C_29
REMARK                            x       y       z     vdW  Elec       q    Type
REMARK                         _______ _______ _______ _____ _____    ______ ____
ROOT
ATOM      1  C   UNL     1     -11.276  54.476  50.843  0.00  0.00    +0.000 A 
ATOM      2  S   UNL     1     -11.404  55.161  52.398  0.00  0.00    +0.000 S 
ATOM      3  C   UNL     1     -12.252  54.935  49.967  0.00  0.00    +0.000 A 
ATOM      4  C   UNL     1     -12.610  56.264  51.884  0.00  0.00    +0.000 A 
ATOM      5  C   UNL     1     -12.971  56.041  50.560  0.00  0.00    +0.000 A 
ATOM      6  C   UNL     1     -13.214  57.333  52.776  0.00  0.00    +0.000 C 
ATOM      7  C   UNL     1     -14.055  56.837  49.893  0.00  0.00    +0.000 C 
ATOM      8  C   UNL     1     -14.576  57.856  52.197  0.00  0.00    +0.000 C 
ATOM      9  C   UNL     1     -14.416  58.099  50.675  0.00  0.00    +0.000 C 
ATOM     10  C   UNL     1     -15.001  59.195  52.828  0.00  0.00    +0.000 C 
ATOM     11  C   UNL     1     -15.698  56.834  52.481  0.00  0.00    +0.000 C 
ENDROOT
BRANCH   1  15
ATOM     12  N   UNL     1      -8.186  53.031  49.609  0.00  0.00    +0.000 N 
ATOM     13  C   UNL     1      -9.210  53.952  49.818  0.00  0.00    +0.000 C 
ATOM     14  O   UNL     1      -9.146  55.074  49.318  0.00  0.00    +0.000 OA
ATOM     15  N   UNL     1     -10.248  53.560  50.639  0.00  0.00    +0.000 N 
ATOM     16  H   UNL     1      -8.264  52.128  49.993  0.00  0.00    +0.000 HD
ATOM     17  H   UNL     1     -10.260  52.671  51.061  0.00  0.00    +0.000 HD
BRANCH  12  18
ATOM     18  S   UNL     1      -6.815  53.438  48.707  0.00  0.00    +0.000 S 
ATOM     19  O   UNL     1      -5.864  52.341  48.847  0.00  0.00    +0.000 OA
ATOM     20  O   UNL     1      -6.437  54.767  49.162  0.00  0.00    +0.000 OA
BRANCH  18  21
ATOM     21  C   UNL     1      -7.381  53.577  46.991  0.00  0.00    +0.000 A 
ATOM     22  N   UNL     1      -7.716  52.408  46.392  0.00  0.00    +0.000 NA
ATOM     23  N   UNL     1      -7.449  54.819  46.466  0.00  0.00    +0.000 NA
ATOM     24  C   UNL     1      -8.167  52.547  45.129  0.00  0.00    +0.000 A 
ATOM     25  C   UNL     1      -7.872  54.870  45.191  0.00  0.00    +0.000 A 
ATOM     26  C   UNL     1      -8.258  53.758  44.473  0.00  0.00    +0.000 A 
ENDBRANCH  18  21
ENDBRANCH  12  18
ENDBRANCH   1  15
BRANCH   3  27
ATOM     27  C   UNL     1     -12.576  54.322  48.676  0.00  0.00    +0.000 C 
ATOM     28  O   UNL     1     -12.652  53.114  48.498  0.00  0.00    +0.000 OA
BRANCH  27  29
ATOM     29  O   UNL     1     -12.609  55.244  47.674  0.00  0.00    +0.000 OA
BRANCH  29  30
ATOM     30  C   UNL     1     -11.497  55.316  46.784  0.00  0.00    +0.000 C 
ATOM     31  C   UNL     1     -11.497  54.123  45.857  0.00  0.00    +0.000 C 
ENDBRANCH  29  30
ENDBRANCH  27  29
ENDBRANCH   3  27
TORSDOF 6
ENDMDL
