MODEL 1
REMARK VINA RESULT:      -7.3      0.000      0.000
REMARK  Name = 
REMARK  10 active torsions:
REMARK  status: ('A' for Active; 'I' for Inactive)
REMARK    1  A    between atoms: S_1  and  N_4
REMARK    2  A    between atoms: S_1  and  C_5
REMARK    3  A    between atoms: N_10  and  C_13
REMARK    4  A    between atoms: C_14  and  C_17
REMARK    5  A    between atoms: C_16  and  C_20
REMARK    6  A    between atoms: C_20  and  O_25
REMARK    7  A    between atoms: O_25  and  C_28
REMARK    8  A    between atoms: C_26  and  C_29
REMARK    9  A    between atoms: C_26  and  C_30
REMARK   10  A    between atoms: C_28  and  C_31
REMARK                            x       y       z     vdW  Elec       q    Type
REMARK                         _______ _______ _______ _____ _____    ______ ____
ROOT
ATOM      1  N   UNL     1      -8.011  53.307  49.842  0.00  0.00    +0.000 N 
ATOM      2  C   UNL     1      -9.159  54.092  49.812  0.00  0.00    +0.000 C 
ATOM      3  O   UNL     1      -9.255  55.049  49.058  0.00  0.00    +0.000 OA
ATOM      4  N   UNL     1     -10.087  53.755  50.781  0.00  0.00    +0.000 N 
ATOM      5  H   UNL     1      -7.984  52.547  50.467  0.00  0.00    +0.000 HD
ATOM      6  H   UNL     1      -9.942  52.981  51.372  0.00  0.00    +0.000 HD
ENDROOT
BRANCH   4   7
ATOM      7  C   UNL     1     -11.226  54.535  50.896  0.00  0.00    +0.000 A 
ATOM      8  S   UNL     1     -11.412  55.331  52.387  0.00  0.00    +0.000 S 
ATOM      9  C   UNL     1     -12.229  54.826  49.990  0.00  0.00    +0.000 A 
ATOM     10  C   UNL     1     -12.690  56.283  51.774  0.00  0.00    +0.000 A 
ATOM     11  C   UNL     1     -13.034  55.923  50.481  0.00  0.00    +0.000 A 
ATOM     12  C   UNL     1     -13.347  57.383  52.573  0.00  0.00    +0.000 C 
ATOM     13  C   UNL     1     -14.171  56.582  49.755  0.00  0.00    +0.000 C 
ATOM     14  C   UNL     1     -14.740  57.755  51.975  0.00  0.00    +0.000 C 
ATOM     15  C   UNL     1     -14.627  57.875  50.434  0.00  0.00    +0.000 C 
ATOM     16  C   UNL     1     -15.220  59.116  52.515  0.00  0.00    +0.000 C 
ATOM     17  C   UNL     1     -15.788  56.694  52.368  0.00  0.00    +0.000 C 
BRANCH   9  18
ATOM     18  C   UNL     1     -12.396  54.095  48.733  0.00  0.00    +0.000 C 
ATOM     19  O   UNL     1     -12.469  52.872  48.673  0.00  0.00    +0.000 OA
BRANCH  18  20
ATOM     20  O   UNL     1     -12.463  54.925  47.658  0.00  0.00    +0.000 OA
BRANCH  20  21
ATOM     21  C   UNL     1     -11.343  54.932  46.768  0.00  0.00    +0.000 C 
ATOM     22  C   UNL     1     -11.705  54.199  45.492  0.00  0.00    +0.000 C 
ENDBRANCH  20  21
ENDBRANCH  18  20
ENDBRANCH   9  18
ENDBRANCH   4   7
BRANCH   1  23
ATOM     23  S   UNL     1      -6.676  53.580  48.880  0.00  0.00    +0.000 S 
ATOM     24  O   UNL     1      -5.693  52.548  49.132  0.00  0.00    +0.000 OA
ATOM     25  O   UNL     1      -6.342  54.978  49.066  0.00  0.00    +0.000 OA
BRANCH  23  26
ATOM     26  C   UNL     1      -7.275  53.420  47.209  0.00  0.00    +0.000 A 
ATOM     27  C   UNL     1      -7.417  54.554  46.406  0.00  0.00    +0.000 A 
ATOM     28  C   UNL     1      -7.568  52.152  46.695  0.00  0.00    +0.000 A 
ATOM     29  C   UNL     1      -7.890  54.420  45.094  0.00  0.00    +0.000 A 
ATOM     30  C   UNL     1      -8.037  52.020  45.383  0.00  0.00    +0.000 A 
ATOM     31  C   UNL     1      -8.209  53.154  44.577  0.00  0.00    +0.000 A 
BRANCH  31  32
ATOM     32  C   UNL     1      -8.704  53.026  43.233  0.00  0.00    +0.000 C 
ATOM     33  N   UNL     1      -9.111  52.927  42.145  0.00  0.00    +0.000 NA
ENDBRANCH  31  32
ENDBRANCH  23  26
ENDBRANCH   1  23
TORSDOF 7
ENDMDL
MODEL 2
REMARK VINA RESULT:      -7.3      1.707      2.321
REMARK  Name = 
REMARK  10 active torsions:
REMARK  status: ('A' for Active; 'I' for Inactive)
REMARK    1  A    between atoms: S_1  and  N_4
REMARK    2  A    between atoms: S_1  and  C_5
REMARK    3  A    between atoms: N_10  and  C_13
REMARK    4  A    between atoms: C_14  and  C_17
REMARK    5  A    between atoms: C_16  and  C_20
REMARK    6  A    between atoms: C_20  and  O_25
REMARK    7  A    between atoms: O_25  and  C_28
REMARK    8  A    between atoms: C_26  and  C_29
REMARK    9  A    between atoms: C_26  and  C_30
REMARK   10  A    between atoms: C_28  and  C_31
REMARK                            x       y       z     vdW  Elec       q    Type
REMARK                         _______ _______ _______ _____ _____    ______ ____
ROOT
ATOM      1  N   UNL     1      -8.776  52.444  49.771  0.00  0.00    +0.000 N 
ATOM      2  C   UNL     1      -9.990  53.083  49.999  0.00  0.00    +0.000 C 
ATOM      3  O   UNL     1     -11.054  52.515  49.805  0.00  0.00    +0.000 OA
ATOM      4  N   UNL     1      -9.860  54.418  50.336  0.00  0.00    +0.000 N 
ATOM      5  H   UNL     1      -7.947  52.946  49.945  0.00  0.00    +0.000 HD
ATOM      6  H   UNL     1      -8.971  54.823  50.461  0.00  0.00    +0.000 HD
ENDROOT
BRANCH   4   7
ATOM      7  C   UNL     1     -11.013  55.170  50.494  0.00  0.00    +0.000 A 
ATOM      8  S   UNL     1     -11.583  55.297  52.091  0.00  0.00    +0.000 S 
ATOM      9  C   UNL     1     -11.769  55.884  49.583  0.00  0.00    +0.000 A 
ATOM     10  C   UNL     1     -12.695  56.515  51.647  0.00  0.00    +0.000 A 
ATOM     11  C   UNL     1     -12.699  56.744  50.281  0.00  0.00    +0.000 A 
ATOM     12  C   UNL     1     -13.558  57.239  52.652  0.00  0.00    +0.000 C 
ATOM     13  C   UNL     1     -13.639  57.730  49.650  0.00  0.00    +0.000 C 
ATOM     14  C   UNL     1     -14.770  57.932  51.954  0.00  0.00    +0.000 C 
ATOM     15  C   UNL     1     -14.283  58.663  50.677  0.00  0.00    +0.000 C 
ATOM     16  C   UNL     1     -15.404  58.986  52.881  0.00  0.00    +0.000 C 
ATOM     17  C   UNL     1     -15.853  56.890  51.611  0.00  0.00    +0.000 C 
BRANCH   9  18
ATOM     18  C   UNL     1     -11.600  55.747  48.135  0.00  0.00    +0.000 C 
ATOM     19  O   UNL     1     -12.543  55.718  47.351  0.00  0.00    +0.000 OA
BRANCH  18  20
ATOM     20  O   UNL     1     -10.292  55.662  47.773  0.00  0.00    +0.000 OA
BRANCH  20  21
ATOM     21  C   UNL     1      -9.962  54.743  46.728  0.00  0.00    +0.000 C 
ATOM     22  C   UNL     1      -8.527  54.961  46.295  0.00  0.00    +0.000 C 
ENDBRANCH  20  21
ENDBRANCH  18  20
ENDBRANCH   9  18
ENDBRANCH   4   7
BRANCH   1  23
ATOM     23  S   UNL     1      -8.643  50.875  49.220  0.00  0.00    +0.000 S 
ATOM     24  O   UNL     1      -9.680  50.070  49.829  0.00  0.00    +0.000 OA
ATOM     25  O   UNL     1      -7.246  50.525  49.381  0.00  0.00    +0.000 OA
BRANCH  23  26
ATOM     26  C   UNL     1      -8.941  50.980  47.465  0.00  0.00    +0.000 A 
ATOM     27  C   UNL     1      -7.870  51.146  46.583  0.00  0.00    +0.000 A 
ATOM     28  C   UNL     1     -10.245  50.859  46.974  0.00  0.00    +0.000 A 
ATOM     29  C   UNL     1      -8.113  51.228  45.206  0.00  0.00    +0.000 A 
ATOM     30  C   UNL     1     -10.485  50.938  45.597  0.00  0.00    +0.000 A 
ATOM     31  C   UNL     1      -9.421  51.131  44.705  0.00  0.00    +0.000 A 
BRANCH  31  32
ATOM     32  C   UNL     1      -9.662  51.227  43.291  0.00  0.00    +0.000 C 
ATOM     33  N   UNL     1      -9.859  51.313  42.145  0.00  0.00    +0.000 NA
ENDBRANCH  31  32
ENDBRANCH  23  26
ENDBRANCH   1  23
TORSDOF 7
ENDMDL
MODEL 3
REMARK VINA RESULT:      -7.1      2.549      4.445
REMARK  Name = 
REMARK  10 active torsions:
REMARK  status: ('A' for Active; 'I' for Inactive)
REMARK    1  A    between atoms: S_1  and  N_4
REMARK    2  A    between atoms: S_1  and  C_5
REMARK    3  A    between atoms: N_10  and  C_13
REMARK    4  A    between atoms: C_14  and  C_17
REMARK    5  A    between atoms: C_16  and  C_20
REMARK    6  A    between atoms: C_20  and  O_25
REMARK    7  A    between atoms: O_25  and  C_28
REMARK    8  A    between atoms: C_26  and  C_29
REMARK    9  A    between atoms: C_26  and  C_30
REMARK   10  A    between atoms: C_28  and  C_31
REMARK                            x       y       z     vdW  Elec       q    Type
REMARK                         _______ _______ _______ _____ _____    ______ ____
ROOT
ATOM      1  N   UNL     1      -8.562  52.124  48.541  0.00  0.00    +0.000 N 
ATOM      2  C   UNL     1      -9.367  53.238  48.756  0.00  0.00    +0.000 C 
ATOM      3  O   UNL     1      -8.892  54.362  48.826  0.00  0.00    +0.000 OA
ATOM      4  N   UNL     1     -10.692  52.927  48.998  0.00  0.00    +0.000 N 
ATOM      5  H   UNL     1      -8.995  51.242  48.492  0.00  0.00    +0.000 HD
ATOM      6  H   UNL     1     -11.011  51.996  48.945  0.00  0.00    +0.000 HD
ENDROOT
BRANCH   4   7
ATOM      7  C   UNL     1     -11.560  53.959  49.317  0.00  0.00    +0.000 A 
ATOM      8  S   UNL     1     -12.034  54.031  50.948  0.00  0.00    +0.000 S 
ATOM      9  C   UNL     1     -12.081  54.983  48.549  0.00  0.00    +0.000 A 
ATOM     10  C   UNL     1     -12.733  55.573  50.726  0.00  0.00    +0.000 A 
ATOM     11  C   UNL     1     -12.694  55.977  49.402  0.00  0.00    +0.000 A 
ATOM     12  C   UNL     1     -13.317  56.377  51.863  0.00  0.00    +0.000 C 
ATOM     13  C   UNL     1     -13.303  57.275  48.956  0.00  0.00    +0.000 C 
ATOM     14  C   UNL     1     -14.275  57.488  51.330  0.00  0.00    +0.000 C 
ATOM     15  C   UNL     1     -13.614  58.208  50.127  0.00  0.00    +0.000 C 
ATOM     16  C   UNL     1     -14.543  58.546  52.417  0.00  0.00    +0.000 C 
ATOM     17  C   UNL     1     -15.630  56.872  50.925  0.00  0.00    +0.000 C 
BRANCH   9  18
ATOM     18  C   UNL     1     -11.990  55.002  47.087  0.00  0.00    +0.000 C 
ATOM     19  O   UNL     1     -11.935  56.037  46.433  0.00  0.00    +0.000 OA
BRANCH  18  20
ATOM     20  O   UNL     1     -11.972  53.750  46.556  0.00  0.00    +0.000 OA
BRANCH  20  21
ATOM     21  C   UNL     1     -11.528  53.622  45.202  0.00  0.00    +0.000 C 
ATOM     22  C   UNL     1     -10.032  53.381  45.180  0.00  0.00    +0.000 C 
ENDBRANCH  20  21
ENDBRANCH  18  20
ENDBRANCH   9  18
ENDBRANCH   4   7
BRANCH   1  23
ATOM     23  S   UNL     1      -6.906  52.198  48.360  0.00  0.00    +0.000 S 
ATOM     24  O   UNL     1      -6.588  53.096  47.271  0.00  0.00    +0.000 OA
ATOM     25  O   UNL     1      -6.457  50.820  48.335  0.00  0.00    +0.000 OA
BRANCH  23  26
ATOM     26  C   UNL     1      -6.309  52.898  49.887  0.00  0.00    +0.000 A 
ATOM     27  C   UNL     1      -6.797  52.429  51.109  0.00  0.00    +0.000 A 
ATOM     28  C   UNL     1      -5.325  53.892  49.857  0.00  0.00    +0.000 A 
ATOM     29  C   UNL     1      -6.324  52.985  52.304  0.00  0.00    +0.000 A 
ATOM     30  C   UNL     1      -4.851  54.444  51.053  0.00  0.00    +0.000 A 
ATOM     31  C   UNL     1      -5.353  54.000  52.284  0.00  0.00    +0.000 A 
BRANCH  31  32
ATOM     32  C   UNL     1      -4.881  54.573  53.514  0.00  0.00    +0.000 C 
ATOM     33  N   UNL     1      -4.504  55.041  54.513  0.00  0.00    +0.000 NA
ENDBRANCH  31  32
ENDBRANCH  23  26
ENDBRANCH   1  23
TORSDOF 7
ENDMDL
MODEL 4
REMARK VINA RESULT:      -7.0      3.346      8.514
REMARK  Name = 
REMARK  10 active torsions:
REMARK  status: ('A' for Active; 'I' for Inactive)
REMARK    1  A    between atoms: S_1  and  N_4
REMARK    2  A    between atoms: S_1  and  C_5
REMARK    3  A    between atoms: N_10  and  C_13
REMARK    4  A    between atoms: C_14  and  C_17
REMARK    5  A    between atoms: C_16  and  C_20
REMARK    6  A    between atoms: C_20  and  O_25
REMARK    7  A    between atoms: O_25  and  C_28
REMARK    8  A    between atoms: C_26  and  C_29
REMARK    9  A    between atoms: C_26  and  C_30
REMARK   10  A    between atoms: C_28  and  C_31
REMARK                            x       y       z     vdW  Elec       q    Type
REMARK                         _______ _______ _______ _____ _____    ______ ____
ROOT
ATOM      1  N   UNL     1     -11.879  56.799  49.265  0.00  0.00    +0.000 N 
ATOM      2  C   UNL     1     -10.860  55.920  49.618  0.00  0.00    +0.000 C 
ATOM      3  O   UNL     1     -11.102  54.780  49.985  0.00  0.00    +0.000 OA
ATOM      4  N   UNL     1      -9.605  56.500  49.625  0.00  0.00    +0.000 N 
ATOM      5  H   UNL     1     -11.630  57.706  48.975  0.00  0.00    +0.000 HD
ATOM      6  H   UNL     1      -9.477  57.432  49.333  0.00  0.00    +0.000 HD
ENDROOT
BRANCH   4   7
ATOM      7  C   UNL     1      -8.532  55.735  50.051  0.00  0.00    +0.000 A 
ATOM      8  S   UNL     1      -8.053  55.991  51.663  0.00  0.00    +0.000 S 
ATOM      9  C   UNL     1      -7.798  54.753  49.411  0.00  0.00    +0.000 A 
ATOM     10  C   UNL     1      -7.032  54.622  51.627  0.00  0.00    +0.000 A 
ATOM     11  C   UNL     1      -6.982  54.042  50.370  0.00  0.00    +0.000 A 
ATOM     12  C   UNL     1      -6.285  54.127  52.842  0.00  0.00    +0.000 C 
ATOM     13  C   UNL     1      -6.103  52.860  50.082  0.00  0.00    +0.000 C 
ATOM     14  C   UNL     1      -5.107  53.189  52.433  0.00  0.00    +0.000 C 
ATOM     15  C   UNL     1      -5.594  52.186  51.357  0.00  0.00    +0.000 C 
ATOM     16  C   UNL     1      -4.614  52.373  53.643  0.00  0.00    +0.000 C 
ATOM     17  C   UNL     1      -3.921  54.024  51.909  0.00  0.00    +0.000 C 
BRANCH   9  18
ATOM     18  C   UNL     1      -7.883  54.517  47.968  0.00  0.00    +0.000 C 
ATOM     19  O   UNL     1      -7.016  54.873  47.179  0.00  0.00    +0.000 OA
BRANCH  18  20
ATOM     20  O   UNL     1      -9.022  53.860  47.620  0.00  0.00    +0.000 OA
BRANCH  20  21
ATOM     21  C   UNL     1      -9.497  54.040  46.283  0.00  0.00    +0.000 C 
ATOM     22  C   UNL     1     -10.827  54.765  46.310  0.00  0.00    +0.000 C 
ENDBRANCH  20  21
ENDBRANCH  18  20
ENDBRANCH   9  18
ENDBRANCH   4   7
BRANCH   1  23
ATOM     23  S   UNL     1     -13.499  56.404  49.306  0.00  0.00    +0.000 S 
ATOM     24  O   UNL     1     -13.636  54.998  49.619  0.00  0.00    +0.000 OA
ATOM     25  O   UNL     1     -14.061  56.947  48.086  0.00  0.00    +0.000 OA
BRANCH  23  26
ATOM     26  C   UNL     1     -14.171  57.368  50.647  0.00  0.00    +0.000 A 
ATOM     27  C   UNL     1     -14.298  56.804  51.919  0.00  0.00    +0.000 A 
ATOM     28  C   UNL     1     -14.537  58.701  50.428  0.00  0.00    +0.000 A 
ATOM     29  C   UNL     1     -14.829  57.568  52.966  0.00  0.00    +0.000 A 
ATOM     30  C   UNL     1     -15.064  59.463  51.477  0.00  0.00    +0.000 A 
ATOM     31  C   UNL     1     -15.220  58.899  52.751  0.00  0.00    +0.000 A 
BRANCH  31  32
ATOM     32  C   UNL     1     -15.774  59.673  53.828  0.00  0.00    +0.000 C 
ATOM     33  N   UNL     1     -16.227  60.294  54.705  0.00  0.00    +0.000 NA
ENDBRANCH  31  32
ENDBRANCH  23  26
ENDBRANCH   1  23
TORSDOF 7
ENDMDL
MODEL 5
REMARK VINA RESULT:      -6.7      2.745      4.381
REMARK  Name = 
REMARK  10 active torsions:
REMARK  status: ('A' for Active; 'I' for Inactive)
REMARK    1  A    between atoms: S_1  and  N_4
REMARK    2  A    between atoms: S_1  and  C_5
REMARK    3  A    between atoms: N_10  and  C_13
REMARK    4  A    between atoms: C_14  and  C_17
REMARK    5  A    between atoms: C_16  and  C_20
REMARK    6  A    between atoms: C_20  and  O_25
REMARK    7  A    between atoms: O_25  and  C_28
REMARK    8  A    between atoms: C_26  and  C_29
REMARK    9  A    between atoms: C_26  and  C_30
REMARK   10  A    between atoms: C_28  and  C_31
REMARK                            x       y       z     vdW  Elec       q    Type
REMARK                         _______ _______ _______ _____ _____    ______ ____
ROOT
ATOM      1  N   UNL     1      -9.378  53.858  45.525  0.00  0.00    +0.000 N 
ATOM      2  C   UNL     1     -10.149  54.152  46.644  0.00  0.00    +0.000 C 
ATOM      3  O   UNL     1     -10.672  53.267  47.305  0.00  0.00    +0.000 OA
ATOM      4  N   UNL     1     -10.351  55.505  46.840  0.00  0.00    +0.000 N 
ATOM      5  H   UNL     1      -8.977  54.608  45.027  0.00  0.00    +0.000 HD
ATOM      6  H   UNL     1      -9.914  56.171  46.259  0.00  0.00    +0.000 HD
ENDROOT
BRANCH   4   7
ATOM      7  C   UNL     1     -11.183  55.901  47.874  0.00  0.00    +0.000 A 
ATOM      8  S   UNL     1     -12.776  56.282  47.419  0.00  0.00    +0.000 S 
ATOM      9  C   UNL     1     -10.963  55.999  49.236  0.00  0.00    +0.000 A 
ATOM     10  C   UNL     1     -13.280  56.335  49.050  0.00  0.00    +0.000 A 
ATOM     11  C   UNL     1     -12.222  56.166  49.928  0.00  0.00    +0.000 A 
ATOM     12  C   UNL     1     -14.720  56.543  49.455  0.00  0.00    +0.000 C 
ATOM     13  C   UNL     1     -12.413  56.233  51.415  0.00  0.00    +0.000 C 
ATOM     14  C   UNL     1     -14.823  57.006  50.942  0.00  0.00    +0.000 C 
ATOM     15  C   UNL     1     -13.886  56.139  51.820  0.00  0.00    +0.000 C 
ATOM     16  C   UNL     1     -16.258  56.825  51.471  0.00  0.00    +0.000 C 
ATOM     17  C   UNL     1     -14.460  58.501  51.059  0.00  0.00    +0.000 C 
BRANCH   9  18
ATOM     18  C   UNL     1      -9.625  55.934  49.829  0.00  0.00    +0.000 C 
ATOM     19  O   UNL     1      -8.820  56.856  49.770  0.00  0.00    +0.000 OA
BRANCH  18  20
ATOM     20  O   UNL     1      -9.392  54.744  50.445  0.00  0.00    +0.000 OA
BRANCH  20  21
ATOM     21  C   UNL     1      -8.342  53.930  49.916  0.00  0.00    +0.000 C 
ATOM     22  C   UNL     1      -8.703  52.467  50.079  0.00  0.00    +0.000 C 
ENDBRANCH  20  21
ENDBRANCH  18  20
ENDBRANCH   9  18
ENDBRANCH   4   7
BRANCH   1  23
ATOM     23  S   UNL     1      -9.091  52.310  44.976  0.00  0.00    +0.000 S 
ATOM     24  O   UNL     1      -8.433  52.378  43.688  0.00  0.00    +0.000 OA
ATOM     25  O   UNL     1     -10.349  51.606  45.125  0.00  0.00    +0.000 OA
BRANCH  23  26
ATOM     26  C   UNL     1      -7.970  51.601  46.167  0.00  0.00    +0.000 A 
ATOM     27  C   UNL     1      -8.120  50.269  46.563  0.00  0.00    +0.000 A 
ATOM     28  C   UNL     1      -6.920  52.373  46.677  0.00  0.00    +0.000 A 
ATOM     29  C   UNL     1      -7.236  49.721  47.501  0.00  0.00    +0.000 A 
ATOM     30  C   UNL     1      -6.036  51.821  47.612  0.00  0.00    +0.000 A 
ATOM     31  C   UNL     1      -6.193  50.494  48.035  0.00  0.00    +0.000 A 
BRANCH  31  32
ATOM     32  C   UNL     1      -5.297  49.927  49.005  0.00  0.00    +0.000 C 
ATOM     33  N   UNL     1      -4.574  49.470  49.798  0.00  0.00    +0.000 NA
ENDBRANCH  31  32
ENDBRANCH  23  26
ENDBRANCH   1  23
TORSDOF 7
ENDMDL
MODEL 6
REMARK VINA RESULT:      -6.5      3.589      8.323
REMARK  Name = 
REMARK  10 active torsions:
REMARK  status: ('A' for Active; 'I' for Inactive)
REMARK    1  A    between atoms: S_1  and  N_4
REMARK    2  A    between atoms: S_1  and  C_5
REMARK    3  A    between atoms: N_10  and  C_13
REMARK    4  A    between atoms: C_14  and  C_17
REMARK    5  A    between atoms: C_16  and  C_20
REMARK    6  A    between atoms: C_20  and  O_25
REMARK    7  A    between atoms: O_25  and  C_28
REMARK    8  A    between atoms: C_26  and  C_29
REMARK    9  A    between atoms: C_26  and  C_30
REMARK   10  A    between atoms: C_28  and  C_31
REMARK                            x       y       z     vdW  Elec       q    Type
REMARK                         _______ _______ _______ _____ _____    ______ ____
ROOT
ATOM      1  N   UNL     1     -11.828  56.602  49.752  0.00  0.00    +0.000 N 
ATOM      2  C   UNL     1     -11.414  55.442  50.398  0.00  0.00    +0.000 C 
ATOM      3  O   UNL     1     -12.203  54.547  50.664  0.00  0.00    +0.000 OA
ATOM      4  N   UNL     1     -10.092  55.471  50.799  0.00  0.00    +0.000 N 
ATOM      5  H   UNL     1     -11.152  57.292  49.560  0.00  0.00    +0.000 HD
ATOM      6  H   UNL     1      -9.510  56.232  50.569  0.00  0.00    +0.000 HD
ENDROOT
BRANCH   4   7
ATOM      7  C   UNL     1      -9.605  54.402  51.533  0.00  0.00    +0.000 A 
ATOM      8  S   UNL     1      -9.945  54.451  53.199  0.00  0.00    +0.000 S 
ATOM      9  C   UNL     1      -8.926  53.262  51.146  0.00  0.00    +0.000 A 
ATOM     10  C   UNL     1      -9.424  52.837  53.401  0.00  0.00    +0.000 A 
ATOM     11  C   UNL     1      -8.904  52.307  52.232  0.00  0.00    +0.000 A 
ATOM     12  C   UNL     1      -9.533  52.101  54.715  0.00  0.00    +0.000 C 
ATOM     13  C   UNL     1      -8.329  50.921  52.182  0.00  0.00    +0.000 C 
ATOM     14  C   UNL     1      -8.588  50.860  54.743  0.00  0.00    +0.000 C 
ATOM     15  C   UNL     1      -8.711  50.086  53.406  0.00  0.00    +0.000 C 
ATOM     16  C   UNL     1      -8.985  49.896  55.877  0.00  0.00    +0.000 C 
ATOM     17  C   UNL     1      -7.132  51.306  54.988  0.00  0.00    +0.000 C 
BRANCH   9  18
ATOM     18  C   UNL     1      -8.339  53.105  49.813  0.00  0.00    +0.000 C 
ATOM     19  O   UNL     1      -7.134  52.983  49.622  0.00  0.00    +0.000 OA
BRANCH  18  20
ATOM     20  O   UNL     1      -9.280  53.107  48.832  0.00  0.00    +0.000 OA
BRANCH  20  21
ATOM     21  C   UNL     1      -9.067  52.233  47.720  0.00  0.00    +0.000 C 
ATOM     22  C   UNL     1      -8.873  53.051  46.460  0.00  0.00    +0.000 C 
ENDBRANCH  20  21
ENDBRANCH  18  20
ENDBRANCH   9  18
ENDBRANCH   4   7
BRANCH   1  23
ATOM     23  S   UNL     1     -13.402  56.892  49.284  0.00  0.00    +0.000 S 
ATOM     24  O   UNL     1     -14.075  55.628  49.076  0.00  0.00    +0.000 OA
ATOM     25  O   UNL     1     -13.315  57.867  48.214  0.00  0.00    +0.000 OA
BRANCH  23  26
ATOM     26  C   UNL     1     -14.146  57.728  50.671  0.00  0.00    +0.000 A 
ATOM     27  C   UNL     1     -14.108  57.145  51.941  0.00  0.00    +0.000 A 
ATOM     28  C   UNL     1     -14.736  58.984  50.491  0.00  0.00    +0.000 A 
ATOM     29  C   UNL     1     -14.696  57.808  53.026  0.00  0.00    +0.000 A 
ATOM     30  C   UNL     1     -15.320  59.645  51.577  0.00  0.00    +0.000 A 
ATOM     31  C   UNL     1     -15.311  59.058  52.850  0.00  0.00    +0.000 A 
BRANCH  31  32
ATOM     32  C   UNL     1     -15.921  59.727  53.966  0.00  0.00    +0.000 C 
ATOM     33  N   UNL     1     -16.420  60.262  54.874  0.00  0.00    +0.000 NA
ENDBRANCH  31  32
ENDBRANCH  23  26
ENDBRANCH   1  23
TORSDOF 7
ENDMDL
MODEL 7
REMARK VINA RESULT:      -6.3      3.382      6.138
REMARK  Name = 
REMARK  10 active torsions:
REMARK  status: ('A' for Active; 'I' for Inactive)
REMARK    1  A    between atoms: S_1  and  N_4
REMARK    2  A    between atoms: S_1  and  C_5
REMARK    3  A    between atoms: N_10  and  C_13
REMARK    4  A    between atoms: C_14  and  C_17
REMARK    5  A    between atoms: C_16  and  C_20
REMARK    6  A    between atoms: C_20  and  O_25
REMARK    7  A    between atoms: O_25  and  C_28
REMARK    8  A    between atoms: C_26  and  C_29
REMARK    9  A    between atoms: C_26  and  C_30
REMARK   10  A    between atoms: C_28  and  C_31
REMARK                            x       y       z     vdW  Elec       q    Type
REMARK                         _______ _______ _______ _____ _____    ______ ____
ROOT
ATOM      1  N   UNL     1     -10.630  55.700  48.036  0.00  0.00    +0.000 N 
ATOM      2  C   UNL     1      -9.890  54.897  48.897  0.00  0.00    +0.000 C 
ATOM      3  O   UNL     1     -10.019  53.682  48.900  0.00  0.00    +0.000 OA
ATOM      4  N   UNL     1      -9.119  55.610  49.796  0.00  0.00    +0.000 N 
ATOM      5  H   UNL     1     -10.488  56.674  48.072  0.00  0.00    +0.000 HD
ATOM      6  H   UNL     1      -9.071  56.593  49.753  0.00  0.00    +0.000 HD
ENDROOT
BRANCH   4   7
ATOM      7  C   UNL     1      -8.415  54.905  50.759  0.00  0.00    +0.000 A 
ATOM      8  S   UNL     1      -9.240  54.656  52.224  0.00  0.00    +0.000 S 
ATOM      9  C   UNL     1      -7.163  54.319  50.728  0.00  0.00    +0.000 A 
ATOM     10  C   UNL     1      -8.059  53.543  52.755  0.00  0.00    +0.000 A 
ATOM     11  C   UNL     1      -6.999  53.445  51.868  0.00  0.00    +0.000 A 
ATOM     12  C   UNL     1      -8.185  52.771  54.047  0.00  0.00    +0.000 C 
ATOM     13  C   UNL     1      -5.812  52.571  52.152  0.00  0.00    +0.000 C 
ATOM     14  C   UNL     1      -6.801  52.208  54.501  0.00  0.00    +0.000 C 
ATOM     15  C   UNL     1      -6.074  51.579  53.286  0.00  0.00    +0.000 C 
ATOM     16  C   UNL     1      -6.982  51.104  55.560  0.00  0.00    +0.000 C 
ATOM     17  C   UNL     1      -5.951  53.332  55.128  0.00  0.00    +0.000 C 
BRANCH   9  18
ATOM     18  C   UNL     1      -6.191  54.584  49.665  0.00  0.00    +0.000 C 
ATOM     19  O   UNL     1      -5.773  55.707  49.404  0.00  0.00    +0.000 OA
BRANCH  18  20
ATOM     20  O   UNL     1      -5.813  53.450  49.017  0.00  0.00    +0.000 OA
BRANCH  20  21
ATOM     21  C   UNL     1      -6.575  53.070  47.868  0.00  0.00    +0.000 C 
ATOM     22  C   UNL     1      -7.133  51.675  48.067  0.00  0.00    +0.000 C 
ENDBRANCH  20  21
ENDBRANCH  18  20
ENDBRANCH   9  18
ENDBRANCH   4   7
BRANCH   1  23
ATOM     23  S   UNL     1     -11.745  55.110  46.945  0.00  0.00    +0.000 S 
ATOM     24  O   UNL     1     -12.394  56.222  46.283  0.00  0.00    +0.000 OA
ATOM     25  O   UNL     1     -12.523  54.131  47.677  0.00  0.00    +0.000 OA
BRANCH  23  26
ATOM     26  C   UNL     1     -10.781  54.202  45.751  0.00  0.00    +0.000 A 
ATOM     27  C   UNL     1     -11.415  53.344  44.848  0.00  0.00    +0.000 A 
ATOM     28  C   UNL     1      -9.394  54.379  45.699  0.00  0.00    +0.000 A 
ATOM     29  C   UNL     1     -10.650  52.633  43.914  0.00  0.00    +0.000 A 
ATOM     30  C   UNL     1      -8.633  53.670  44.763  0.00  0.00    +0.000 A 
ATOM     31  C   UNL     1      -9.255  52.787  43.870  0.00  0.00    +0.000 A 
BRANCH  31  32
ATOM     32  C   UNL     1      -8.476  52.045  42.916  0.00  0.00    +0.000 C 
ATOM     33  N   UNL     1      -7.847  51.437  42.145  0.00  0.00    +0.000 NA
ENDBRANCH  31  32
ENDBRANCH  23  26
ENDBRANCH   1  23
TORSDOF 7
ENDMDL
MODEL 8
REMARK VINA RESULT:      -6.1      2.227      3.595
REMARK  Name = 
REMARK  10 active torsions:
REMARK  status: ('A' for Active; 'I' for Inactive)
REMARK    1  A    between atoms: S_1  and  N_4
REMARK    2  A    between atoms: S_1  and  C_5
REMARK    3  A    between atoms: N_10  and  C_13
REMARK    4  A    between atoms: C_14  and  C_17
REMARK    5  A    between atoms: C_16  and  C_20
REMARK    6  A    between atoms: C_20  and  O_25
REMARK    7  A    between atoms: O_25  and  C_28
REMARK    8  A    between atoms: C_26  and  C_29
REMARK    9  A    between atoms: C_26  and  C_30
REMARK   10  A    between atoms: C_28  and  C_31
REMARK                            x       y       z     vdW  Elec       q    Type
REMARK                         _______ _______ _______ _____ _____    ______ ____
ROOT
ATOM      1  N   UNL     1      -6.603  53.444  48.775  0.00  0.00    +0.000 N 
ATOM      2  C   UNL     1      -7.882  53.731  49.240  0.00  0.00    +0.000 C 
ATOM      3  O   UNL     1      -8.761  52.881  49.248  0.00  0.00    +0.000 OA
ATOM      4  N   UNL     1      -8.072  55.062  49.561  0.00  0.00    +0.000 N 
ATOM      5  H   UNL     1      -5.932  54.164  48.791  0.00  0.00    +0.000 HD
ATOM      6  H   UNL     1      -7.326  55.704  49.517  0.00  0.00    +0.000 HD
ENDROOT
BRANCH   4   7
ATOM      7  C   UNL     1      -9.339  55.470  49.946  0.00  0.00    +0.000 A 
ATOM      8  S   UNL     1     -10.358  55.965  48.679  0.00  0.00    +0.000 S 
ATOM      9  C   UNL     1      -9.949  55.503  51.186  0.00  0.00    +0.000 A 
ATOM     10  C   UNL     1     -11.715  55.988  49.716  0.00  0.00    +0.000 A 
ATOM     11  C   UNL     1     -11.370  55.721  51.031  0.00  0.00    +0.000 A 
ATOM     12  C   UNL     1     -13.115  56.270  49.225  0.00  0.00    +0.000 C 
ATOM     13  C   UNL     1     -12.389  55.744  52.133  0.00  0.00    +0.000 C 
ATOM     14  C   UNL     1     -14.050  56.682  50.404  0.00  0.00    +0.000 C 
ATOM     15  C   UNL     1     -13.824  55.727  51.603  0.00  0.00    +0.000 C 
ATOM     16  C   UNL     1     -15.530  56.571  49.991  0.00  0.00    +0.000 C 
ATOM     17  C   UNL     1     -13.781  58.146  50.809  0.00  0.00    +0.000 C 
BRANCH   9  18
ATOM     18  C   UNL     1      -9.208  55.332  52.438  0.00  0.00    +0.000 C 
ATOM     19  O   UNL     1      -9.653  54.717  53.400  0.00  0.00    +0.000 OA
BRANCH  18  20
ATOM     20  O   UNL     1      -7.986  55.928  52.399  0.00  0.00    +0.000 OA
BRANCH  20  21
ATOM     21  C   UNL     1      -6.987  55.426  53.291  0.00  0.00    +0.000 C 
ATOM     22  C   UNL     1      -5.975  54.611  52.511  0.00  0.00    +0.000 C 
ENDBRANCH  20  21
ENDBRANCH  18  20
ENDBRANCH   9  18
ENDBRANCH   4   7
BRANCH   1  23
ATOM     23  S   UNL     1      -6.141  51.953  48.191  0.00  0.00    +0.000 S 
ATOM     24  O   UNL     1      -6.527  50.932  49.141  0.00  0.00    +0.000 OA
ATOM     25  O   UNL     1      -4.755  52.104  47.794  0.00  0.00    +0.000 OA
BRANCH  23  26
ATOM     26  C   UNL     1      -7.077  51.738  46.690  0.00  0.00    +0.000 A 
ATOM     27  C   UNL     1      -7.585  52.852  46.016  0.00  0.00    +0.000 A 
ATOM     28  C   UNL     1      -7.271  50.453  46.170  0.00  0.00    +0.000 A 
ATOM     29  C   UNL     1      -8.321  52.674  44.838  0.00  0.00    +0.000 A 
ATOM     30  C   UNL     1      -8.005  50.279  44.991  0.00  0.00    +0.000 A 
ATOM     31  C   UNL     1      -8.540  51.387  44.321  0.00  0.00    +0.000 A 
BRANCH  31  32
ATOM     32  C   UNL     1      -9.306  51.213  43.118  0.00  0.00    +0.000 C 
ATOM     33  N   UNL     1      -9.933  51.068  42.145  0.00  0.00    +0.000 NA
ENDBRANCH  31  32
ENDBRANCH  23  26
ENDBRANCH   1  23
TORSDOF 7
ENDMDL
MODEL 9
REMARK VINA RESULT:      -6.1      4.448      8.242
REMARK  Name = 
REMARK  10 active torsions:
REMARK  status: ('A' for Active; 'I' for Inactive)
REMARK    1  A    between atoms: S_1  and  N_4
REMARK    2  A    between atoms: S_1  and  C_5
REMARK    3  A    between atoms: N_10  and  C_13
REMARK    4  A    between atoms: C_14  and  C_17
REMARK    5  A    between atoms: C_16  and  C_20
REMARK    6  A    between atoms: C_20  and  O_25
REMARK    7  A    between atoms: O_25  and  C_28
REMARK    8  A    between atoms: C_26  and  C_29
REMARK    9  A    between atoms: C_26  and  C_30
REMARK   10  A    between atoms: C_28  and  C_31
REMARK                            x       y       z     vdW  Elec       q    Type
REMARK                         _______ _______ _______ _____ _____    ______ ____
ROOT
ATOM      1  N   UNL     1     -10.078  51.600  52.331  0.00  0.00    +0.000 N 
ATOM      2  C   UNL     1      -9.741  51.864  51.008  0.00  0.00    +0.000 C 
ATOM      3  O   UNL     1      -9.605  53.009  50.603  0.00  0.00    +0.000 OA
ATOM      4  N   UNL     1      -9.703  50.737  50.208  0.00  0.00    +0.000 N 
ATOM      5  H   UNL     1     -10.175  50.659  52.606  0.00  0.00    +0.000 HD
ATOM      6  H   UNL     1      -9.838  49.840  50.592  0.00  0.00    +0.000 HD
ENDROOT
BRANCH   4   7
ATOM      7  C   UNL     1      -9.467  50.902  48.853  0.00  0.00    +0.000 A 
ATOM      8  S   UNL     1     -10.851  50.866  47.866  0.00  0.00    +0.000 S 
ATOM      9  C   UNL     1      -8.299  51.140  48.152  0.00  0.00    +0.000 A 
ATOM     10  C   UNL     1      -9.963  51.425  46.519  0.00  0.00    +0.000 A 
ATOM     11  C   UNL     1      -8.610  51.537  46.796  0.00  0.00    +0.000 A 
ATOM     12  C   UNL     1     -10.607  51.751  45.193  0.00  0.00    +0.000 C 
ATOM     13  C   UNL     1      -7.622  51.954  45.746  0.00  0.00    +0.000 C 
ATOM     14  C   UNL     1      -9.548  51.781  44.047  0.00  0.00    +0.000 C 
ATOM     15  C   UNL     1      -8.298  52.566  44.518  0.00  0.00    +0.000 C 
ATOM     16  C   UNL     1     -10.109  52.499  42.804  0.00  0.00    +0.000 C 
ATOM     17  C   UNL     1      -9.171  50.344  43.634  0.00  0.00    +0.000 C 
BRANCH   9  18
ATOM     18  C   UNL     1      -6.972  50.998  48.753  0.00  0.00    +0.000 C 
ATOM     19  O   UNL     1      -6.135  50.198  48.348  0.00  0.00    +0.000 OA
BRANCH  18  20
ATOM     20  O   UNL     1      -6.783  51.850  49.796  0.00  0.00    +0.000 OA
BRANCH  20  21
ATOM     21  C   UNL     1      -5.658  52.729  49.726  0.00  0.00    +0.000 C 
ATOM     22  C   UNL     1      -5.962  54.004  50.486  0.00  0.00    +0.000 C 
ENDBRANCH  20  21
ENDBRANCH  18  20
ENDBRANCH   9  18
ENDBRANCH   4   7
BRANCH   1  23
ATOM     23  S   UNL     1     -10.330  52.783  53.478  0.00  0.00    +0.000 S 
ATOM     24  O   UNL     1     -10.794  52.165  54.702  0.00  0.00    +0.000 OA
ATOM     25  O   UNL     1     -11.123  53.801  52.819  0.00  0.00    +0.000 OA
BRANCH  23  26
ATOM     26  C   UNL     1      -8.721  53.498  53.760  0.00  0.00    +0.000 A 
ATOM     27  C   UNL     1      -7.652  52.684  54.146  0.00  0.00    +0.000 A 
ATOM     28  C   UNL     1      -8.525  54.868  53.558  0.00  0.00    +0.000 A 
ATOM     29  C   UNL     1      -6.392  53.254  54.366  0.00  0.00    +0.000 A 
ATOM     30  C   UNL     1      -7.264  55.435  53.776  0.00  0.00    +0.000 A 
ATOM     31  C   UNL     1      -6.191  54.632  54.188  0.00  0.00    +0.000 A 
BRANCH  31  32
ATOM     32  C   UNL     1      -4.897  55.211  54.427  0.00  0.00    +0.000 C 
ATOM     33  N   UNL     1      -3.851  55.687  54.622  0.00  0.00    +0.000 NA
ENDBRANCH  31  32
ENDBRANCH  23  26
ENDBRANCH   1  23
TORSDOF 7
ENDMDL
