MODEL 1
REMARK VINA RESULT:      -7.2      0.000      0.000
REMARK  Name = 
REMARK  10 active torsions:
REMARK  status: ('A' for Active; 'I' for Inactive)
REMARK    1  A    between atoms: S_1  and  N_4
REMARK    2  A    between atoms: S_1  and  C_5
REMARK    3  A    between atoms: N_10  and  C_13
REMARK    4  A    between atoms: C_14  and  C_17
REMARK    5  A    between atoms: C_16  and  C_20
REMARK    6  A    between atoms: C_20  and  O_25
REMARK    7  A    between atoms: O_25  and  C_28
REMARK    8  A    between atoms: C_26  and  C_29
REMARK    9  A    between atoms: C_26  and  C_30
REMARK   10  A    between atoms: C_28  and  C_31
REMARK                            x       y       z     vdW  Elec       q    Type
REMARK                         _______ _______ _______ _____ _____    ______ ____
ROOT
ATOM      1  N   UNL     1      -8.769  52.384  49.766  0.00  0.00    +0.000 N 
ATOM      2  C   UNL     1      -9.966  53.037  50.008  0.00  0.00    +0.000 C 
ATOM      3  O   UNL     1     -11.043  52.479  49.816  0.00  0.00    +0.000 OA
ATOM      4  N   UNL     1      -9.830  54.369  50.353  0.00  0.00    +0.000 N 
ATOM      5  H   UNL     1      -7.932  52.877  49.923  0.00  0.00    +0.000 HD
ATOM      6  H   UNL     1      -8.939  54.768  50.481  0.00  0.00    +0.000 HD
ENDROOT
BRANCH   4   7
ATOM      7  C   UNL     1     -10.978  55.125  50.515  0.00  0.00    +0.000 A 
ATOM      8  S   UNL     1     -11.554  55.260  52.110  0.00  0.00    +0.000 S 
ATOM      9  C   UNL     1     -11.727  55.844  49.602  0.00  0.00    +0.000 A 
ATOM     10  C   UNL     1     -12.664  56.478  51.659  0.00  0.00    +0.000 A 
ATOM     11  C   UNL     1     -12.659  56.707  50.295  0.00  0.00    +0.000 A 
ATOM     12  C   UNL     1     -13.541  57.203  52.657  0.00  0.00    +0.000 C 
ATOM     13  C   UNL     1     -13.594  57.694  49.655  0.00  0.00    +0.000 C 
ATOM     14  C   UNL     1     -14.747  57.895  51.946  0.00  0.00    +0.000 C 
ATOM     15  C   UNL     1     -14.245  58.627  50.676  0.00  0.00    +0.000 C 
ATOM     16  C   UNL     1     -15.397  58.950  52.861  0.00  0.00    +0.000 C 
ATOM     17  C   UNL     1     -15.825  56.851  51.591  0.00  0.00    +0.000 C 
BRANCH   9  18
ATOM     18  C   UNL     1     -11.556  55.709  48.154  0.00  0.00    +0.000 C 
ATOM     19  O   UNL     1     -12.496  55.621  47.373  0.00  0.00    +0.000 OA
BRANCH  18  20
ATOM     20  O   UNL     1     -10.245  55.694  47.791  0.00  0.00    +0.000 OA
BRANCH  20  21
ATOM     21  C   UNL     1      -9.864  54.783  46.758  0.00  0.00    +0.000 C 
ATOM     22  C   UNL     1      -8.402  54.983  46.417  0.00  0.00    +0.000 C 
ENDBRANCH  20  21
ENDBRANCH  18  20
ENDBRANCH   9  18
ENDBRANCH   4   7
BRANCH   1  23
ATOM     23  S   UNL     1      -8.665  50.808  49.223  0.00  0.00    +0.000 S 
ATOM     24  O   UNL     1      -9.704  50.023  49.847  0.00  0.00    +0.000 OA
ATOM     25  O   UNL     1      -7.271  50.439  49.369  0.00  0.00    +0.000 OA
BRANCH  23  26
ATOM     26  C   UNL     1      -8.977  50.898  47.467  0.00  0.00    +0.000 A 
ATOM     27  C   UNL     1     -10.263  50.666  46.964  0.00  0.00    +0.000 A 
ATOM     28  C   UNL     1      -7.935  51.247  46.597  0.00  0.00    +0.000 A 
ATOM     29  C   UNL     1     -10.490  50.742  45.584  0.00  0.00    +0.000 A 
ATOM     30  C   UNL     1      -8.167  51.326  45.222  0.00  0.00    +0.000 A 
ATOM     31  C   UNL     1      -9.445  51.065  44.706  0.00  0.00    +0.000 A 
BRANCH  31  32
ATOM     32  C   UNL     1      -9.679  51.127  43.291  0.00  0.00    +0.000 C 
ATOM     33  N   UNL     1      -9.866  51.177  42.145  0.00  0.00    +0.000 NA
ENDBRANCH  31  32
ENDBRANCH  23  26
ENDBRANCH   1  23
TORSDOF 7
ENDMDL
MODEL 2
REMARK VINA RESULT:      -7.1      2.980      4.777
REMARK  Name = 
REMARK  10 active torsions:
REMARK  status: ('A' for Active; 'I' for Inactive)
REMARK    1  A    between atoms: S_1  and  N_4
REMARK    2  A    between atoms: S_1  and  C_5
REMARK    3  A    between atoms: N_10  and  C_13
REMARK    4  A    between atoms: C_14  and  C_17
REMARK    5  A    between atoms: C_16  and  C_20
REMARK    6  A    between atoms: C_20  and  O_25
REMARK    7  A    between atoms: O_25  and  C_28
REMARK    8  A    between atoms: C_26  and  C_29
REMARK    9  A    between atoms: C_26  and  C_30
REMARK   10  A    between atoms: C_28  and  C_31
REMARK                            x       y       z     vdW  Elec       q    Type
REMARK                         _______ _______ _______ _____ _____    ______ ____
ROOT
ATOM      1  N   UNL     1      -8.588  52.188  48.532  0.00  0.00    +0.000 N 
ATOM      2  C   UNL     1      -9.397  53.288  48.758  0.00  0.00    +0.000 C 
ATOM      3  O   UNL     1      -8.923  54.418  48.839  0.00  0.00    +0.000 OA
ATOM      4  N   UNL     1     -10.724  52.981  48.997  0.00  0.00    +0.000 N 
ATOM      5  H   UNL     1      -9.013  51.301  48.488  0.00  0.00    +0.000 HD
ATOM      6  H   UNL     1     -11.047  52.054  48.931  0.00  0.00    +0.000 HD
ENDROOT
BRANCH   4   7
ATOM      7  C   UNL     1     -11.586  54.012  49.331  0.00  0.00    +0.000 A 
ATOM      8  S   UNL     1     -12.067  54.074  50.961  0.00  0.00    +0.000 S 
ATOM      9  C   UNL     1     -12.097  55.049  48.571  0.00  0.00    +0.000 A 
ATOM     10  C   UNL     1     -12.763  55.619  50.749  0.00  0.00    +0.000 A 
ATOM     11  C   UNL     1     -12.712  56.037  49.431  0.00  0.00    +0.000 A 
ATOM     12  C   UNL     1     -13.362  56.416  51.888  0.00  0.00    +0.000 C 
ATOM     13  C   UNL     1     -13.315  57.340  48.990  0.00  0.00    +0.000 C 
ATOM     14  C   UNL     1     -14.314  57.533  51.353  0.00  0.00    +0.000 C 
ATOM     15  C   UNL     1     -13.635  58.262  50.166  0.00  0.00    +0.000 C 
ATOM     16  C   UNL     1     -14.597  58.585  52.441  0.00  0.00    +0.000 C 
ATOM     17  C   UNL     1     -15.663  56.922  50.925  0.00  0.00    +0.000 C 
BRANCH   9  18
ATOM     18  C   UNL     1     -11.999  55.085  47.111  0.00  0.00    +0.000 C 
ATOM     19  O   UNL     1     -11.925  56.126  46.469  0.00  0.00    +0.000 OA
BRANCH  18  20
ATOM     20  O   UNL     1     -12.000  53.838  46.565  0.00  0.00    +0.000 OA
BRANCH  20  21
ATOM     21  C   UNL     1     -11.559  53.719  45.211  0.00  0.00    +0.000 C 
ATOM     22  C   UNL     1     -10.084  53.375  45.185  0.00  0.00    +0.000 C 
ENDBRANCH  20  21
ENDBRANCH  18  20
ENDBRANCH   9  18
ENDBRANCH   4   7
BRANCH   1  23
ATOM     23  S   UNL     1      -6.932  52.278  48.332  0.00  0.00    +0.000 S 
ATOM     24  O   UNL     1      -6.634  53.199  47.261  0.00  0.00    +0.000 OA
ATOM     25  O   UNL     1      -6.472  50.905  48.277  0.00  0.00    +0.000 OA
BRANCH  23  26
ATOM     26  C   UNL     1      -6.313  52.951  49.867  0.00  0.00    +0.000 A 
ATOM     27  C   UNL     1      -6.736  52.423  51.093  0.00  0.00    +0.000 A 
ATOM     28  C   UNL     1      -5.364  53.982  49.837  0.00  0.00    +0.000 A 
ATOM     29  C   UNL     1      -6.239  52.963  52.286  0.00  0.00    +0.000 A 
ATOM     30  C   UNL     1      -4.868  54.514  51.029  0.00  0.00    +0.000 A 
ATOM     31  C   UNL     1      -5.310  54.012  52.262  0.00  0.00    +0.000 A 
BRANCH  31  32
ATOM     32  C   UNL     1      -4.814  54.572  53.487  0.00  0.00    +0.000 C 
ATOM     33  N   UNL     1      -4.412  55.022  54.481  0.00  0.00    +0.000 NA
ENDBRANCH  31  32
ENDBRANCH  23  26
ENDBRANCH   1  23
TORSDOF 7
ENDMDL
MODEL 3
REMARK VINA RESULT:      -7.1      3.558      8.602
REMARK  Name = 
REMARK  10 active torsions:
REMARK  status: ('A' for Active; 'I' for Inactive)
REMARK    1  A    between atoms: S_1  and  N_4
REMARK    2  A    between atoms: S_1  and  C_5
REMARK    3  A    between atoms: N_10  and  C_13
REMARK    4  A    between atoms: C_14  and  C_17
REMARK    5  A    between atoms: C_16  and  C_20
REMARK    6  A    between atoms: C_20  and  O_25
REMARK    7  A    between atoms: O_25  and  C_28
REMARK    8  A    between atoms: C_26  and  C_29
REMARK    9  A    between atoms: C_26  and  C_30
REMARK   10  A    between atoms: C_28  and  C_31
REMARK                            x       y       z     vdW  Elec       q    Type
REMARK                         _______ _______ _______ _____ _____    ______ ____
ROOT
ATOM      1  N   UNL     1     -11.819  56.818  49.223  0.00  0.00    +0.000 N 
ATOM      2  C   UNL     1     -10.809  55.937  49.572  0.00  0.00    +0.000 C 
ATOM      3  O   UNL     1     -11.064  54.794  49.942  0.00  0.00    +0.000 OA
ATOM      4  N   UNL     1      -9.544  56.494  49.579  0.00  0.00    +0.000 N 
ATOM      5  H   UNL     1     -11.566  57.727  48.944  0.00  0.00    +0.000 HD
ATOM      6  H   UNL     1      -9.399  57.421  49.283  0.00  0.00    +0.000 HD
ENDROOT
BRANCH   4   7
ATOM      7  C   UNL     1      -8.486  55.713  50.011  0.00  0.00    +0.000 A 
ATOM      8  S   UNL     1      -8.040  55.910  51.641  0.00  0.00    +0.000 S 
ATOM      9  C   UNL     1      -7.743  54.748  49.355  0.00  0.00    +0.000 A 
ATOM     10  C   UNL     1      -7.019  54.542  51.579  0.00  0.00    +0.000 A 
ATOM     11  C   UNL     1      -6.948  54.003  50.307  0.00  0.00    +0.000 A 
ATOM     12  C   UNL     1      -6.287  54.005  52.790  0.00  0.00    +0.000 C 
ATOM     13  C   UNL     1      -6.065  52.828  49.994  0.00  0.00    +0.000 C 
ATOM     14  C   UNL     1      -5.103  53.079  52.367  0.00  0.00    +0.000 C 
ATOM     15  C   UNL     1      -5.579  52.112  51.254  0.00  0.00    +0.000 C 
ATOM     16  C   UNL     1      -4.622  52.220  53.551  0.00  0.00    +0.000 C 
ATOM     17  C   UNL     1      -3.910  53.929  51.885  0.00  0.00    +0.000 C 
BRANCH   9  18
ATOM     18  C   UNL     1      -7.797  54.556  47.905  0.00  0.00    +0.000 C 
ATOM     19  O   UNL     1      -6.834  54.737  47.168  0.00  0.00    +0.000 OA
BRANCH  18  20
ATOM     20  O   UNL     1      -9.028  54.157  47.485  0.00  0.00    +0.000 OA
BRANCH  20  21
ATOM     21  C   UNL     1      -9.533  54.752  46.288  0.00  0.00    +0.000 C 
ATOM     22  C   UNL     1     -11.038  54.590  46.235  0.00  0.00    +0.000 C 
ENDBRANCH  20  21
ENDBRANCH  18  20
ENDBRANCH   9  18
ENDBRANCH   4   7
BRANCH   1  23
ATOM     23  S   UNL     1     -13.443  56.426  49.249  0.00  0.00    +0.000 S 
ATOM     24  O   UNL     1     -13.585  55.019  49.541  0.00  0.00    +0.000 OA
ATOM     25  O   UNL     1     -13.998  56.990  48.036  0.00  0.00    +0.000 OA
BRANCH  23  26
ATOM     26  C   UNL     1     -14.129  57.373  50.600  0.00  0.00    +0.000 A 
ATOM     27  C   UNL     1     -14.201  56.823  51.886  0.00  0.00    +0.000 A 
ATOM     28  C   UNL     1     -14.555  58.689  50.374  0.00  0.00    +0.000 A 
ATOM     29  C   UNL     1     -14.741  57.581  52.932  0.00  0.00    +0.000 A 
ATOM     30  C   UNL     1     -15.089  59.442  51.422  0.00  0.00    +0.000 A 
ATOM     31  C   UNL     1     -15.193  58.889  52.706  0.00  0.00    +0.000 A 
BRANCH  31  32
ATOM     32  C   UNL     1     -15.759  59.657  53.779  0.00  0.00    +0.000 C 
ATOM     33  N   UNL     1     -16.220  60.278  54.646  0.00  0.00    +0.000 NA
ENDBRANCH  31  32
ENDBRANCH  23  26
ENDBRANCH   1  23
TORSDOF 7
ENDMDL
MODEL 4
REMARK VINA RESULT:      -6.9      3.110      5.202
REMARK  Name = 
REMARK  10 active torsions:
REMARK  status: ('A' for Active; 'I' for Inactive)
REMARK    1  A    between atoms: S_1  and  N_4
REMARK    2  A    between atoms: S_1  and  C_5
REMARK    3  A    between atoms: N_10  and  C_13
REMARK    4  A    between atoms: C_14  and  C_17
REMARK    5  A    between atoms: C_16  and  C_20
REMARK    6  A    between atoms: C_20  and  O_25
REMARK    7  A    between atoms: O_25  and  C_28
REMARK    8  A    between atoms: C_26  and  C_29
REMARK    9  A    between atoms: C_26  and  C_30
REMARK   10  A    between atoms: C_28  and  C_31
REMARK                            x       y       z     vdW  Elec       q    Type
REMARK                         _______ _______ _______ _____ _____    ______ ____
ROOT
ATOM      1  N   UNL     1      -8.188  53.775  49.872  0.00  0.00    +0.000 N 
ATOM      2  C   UNL     1      -9.207  54.618  50.283  0.00  0.00    +0.000 C 
ATOM      3  O   UNL     1      -9.088  55.310  51.291  0.00  0.00    +0.000 OA
ATOM      4  N   UNL     1     -10.369  54.513  49.542  0.00  0.00    +0.000 N 
ATOM      5  H   UNL     1      -8.335  53.231  49.064  0.00  0.00    +0.000 HD
ATOM      6  H   UNL     1     -10.411  53.932  48.749  0.00  0.00    +0.000 HD
ENDROOT
BRANCH   4   7
ATOM      7  C   UNL     1     -11.472  55.248  49.944  0.00  0.00    +0.000 A 
ATOM      8  S   UNL     1     -11.757  55.293  51.620  0.00  0.00    +0.000 S 
ATOM      9  C   UNL     1     -12.372  56.005  49.216  0.00  0.00    +0.000 A 
ATOM     10  C   UNL     1     -12.932  56.521  51.437  0.00  0.00    +0.000 A 
ATOM     11  C   UNL     1     -13.168  56.820  50.107  0.00  0.00    +0.000 A 
ATOM     12  C   UNL     1     -13.620  57.184  52.611  0.00  0.00    +0.000 C 
ATOM     13  C   UNL     1     -14.203  57.828  49.695  0.00  0.00    +0.000 C 
ATOM     14  C   UNL     1     -14.934  57.898  52.161  0.00  0.00    +0.000 C 
ATOM     15  C   UNL     1     -14.665  58.700  50.863  0.00  0.00    +0.000 C 
ATOM     16  C   UNL     1     -15.413  58.898  53.231  0.00  0.00    +0.000 C 
ATOM     17  C   UNL     1     -16.056  56.863  51.947  0.00  0.00    +0.000 C 
BRANCH   9  18
ATOM     18  C   UNL     1     -12.459  55.946  47.756  0.00  0.00    +0.000 C 
ATOM     19  O   UNL     1     -12.839  56.886  47.068  0.00  0.00    +0.000 OA
BRANCH  18  20
ATOM     20  O   UNL     1     -12.069  54.738  47.266  0.00  0.00    +0.000 OA
BRANCH  20  21
ATOM     21  C   UNL     1     -11.686  54.685  45.891  0.00  0.00    +0.000 C 
ATOM     22  C   UNL     1     -10.382  53.926  45.755  0.00  0.00    +0.000 C 
ENDBRANCH  20  21
ENDBRANCH  18  20
ENDBRANCH   9  18
ENDBRANCH   4   7
BRANCH   1  23
ATOM     23  S   UNL     1      -6.727  53.625  50.667  0.00  0.00    +0.000 S 
ATOM     24  O   UNL     1      -6.248  54.939  51.027  0.00  0.00    +0.000 OA
ATOM     25  O   UNL     1      -5.925  52.745  49.843  0.00  0.00    +0.000 OA
BRANCH  23  26
ATOM     26  C   UNL     1      -7.099  52.713  52.157  0.00  0.00    +0.000 A 
ATOM     27  C   UNL     1      -7.980  51.625  52.121  0.00  0.00    +0.000 A 
ATOM     28  C   UNL     1      -6.468  53.065  53.358  0.00  0.00    +0.000 A 
ATOM     29  C   UNL     1      -8.258  50.921  53.299  0.00  0.00    +0.000 A 
ATOM     30  C   UNL     1      -6.745  52.357  54.530  0.00  0.00    +0.000 A 
ATOM     31  C   UNL     1      -7.650  51.285  54.508  0.00  0.00    +0.000 A 
BRANCH  31  32
ATOM     32  C   UNL     1      -7.949  50.570  55.716  0.00  0.00    +0.000 C 
ATOM     33  N   UNL     1      -8.194  49.991  56.694  0.00  0.00    +0.000 NA
ENDBRANCH  31  32
ENDBRANCH  23  26
ENDBRANCH   1  23
TORSDOF 7
ENDMDL
MODEL 5
REMARK VINA RESULT:      -6.9      3.725      9.341
REMARK  Name = 
REMARK  10 active torsions:
REMARK  status: ('A' for Active; 'I' for Inactive)
REMARK    1  A    between atoms: S_1  and  N_4
REMARK    2  A    between atoms: S_1  and  C_5
REMARK    3  A    between atoms: N_10  and  C_13
REMARK    4  A    between atoms: C_14  and  C_17
REMARK    5  A    between atoms: C_16  and  C_20
REMARK    6  A    between atoms: C_20  and  O_25
REMARK    7  A    between atoms: O_25  and  C_28
REMARK    8  A    between atoms: C_26  and  C_29
REMARK    9  A    between atoms: C_26  and  C_30
REMARK   10  A    between atoms: C_28  and  C_31
REMARK                            x       y       z     vdW  Elec       q    Type
REMARK                         _______ _______ _______ _____ _____    ______ ____
ROOT
ATOM      1  N   UNL     1     -11.891  55.670  50.736  0.00  0.00    +0.000 N 
ATOM      2  C   UNL     1     -10.611  55.359  50.309  0.00  0.00    +0.000 C 
ATOM      3  O   UNL     1     -10.191  55.756  49.225  0.00  0.00    +0.000 OA
ATOM      4  N   UNL     1      -9.929  54.488  51.137  0.00  0.00    +0.000 N 
ATOM      5  H   UNL     1     -12.187  55.319  51.607  0.00  0.00    +0.000 HD
ATOM      6  H   UNL     1     -10.320  54.192  51.990  0.00  0.00    +0.000 HD
ENDROOT
BRANCH   4   7
ATOM      7  C   UNL     1      -8.680  54.044  50.736  0.00  0.00    +0.000 A 
ATOM      8  S   UNL     1      -8.651  52.548  49.930  0.00  0.00    +0.000 S 
ATOM      9  C   UNL     1      -7.433  54.635  50.835  0.00  0.00    +0.000 A 
ATOM     10  C   UNL     1      -7.020  52.768  49.473  0.00  0.00    +0.000 A 
ATOM     11  C   UNL     1      -6.481  53.923  50.011  0.00  0.00    +0.000 A 
ATOM     12  C   UNL     1      -6.275  51.796  48.583  0.00  0.00    +0.000 C 
ATOM     13  C   UNL     1      -5.042  54.299  49.796  0.00  0.00    +0.000 C 
ATOM     14  C   UNL     1      -4.730  51.985  48.714  0.00  0.00    +0.000 C 
ATOM     15  C   UNL     1      -4.392  53.496  48.668  0.00  0.00    +0.000 C 
ATOM     16  C   UNL     1      -3.990  51.310  47.544  0.00  0.00    +0.000 C 
ATOM     17  C   UNL     1      -4.225  51.347  50.023  0.00  0.00    +0.000 C 
BRANCH   9  18
ATOM     18  C   UNL     1      -7.176  55.811  51.669  0.00  0.00    +0.000 C 
ATOM     19  O   UNL     1      -7.588  56.931  51.394  0.00  0.00    +0.000 OA
BRANCH  18  20
ATOM     20  O   UNL     1      -6.435  55.507  52.769  0.00  0.00    +0.000 OA
BRANCH  20  21
ATOM     21  C   UNL     1      -7.147  55.158  53.958  0.00  0.00    +0.000 C 
ATOM     22  C   UNL     1      -6.213  54.458  54.924  0.00  0.00    +0.000 C 
ENDBRANCH  20  21
ENDBRANCH  18  20
ENDBRANCH   9  18
ENDBRANCH   4   7
BRANCH   1  23
ATOM     23  S   UNL     1     -12.961  56.606  49.860  0.00  0.00    +0.000 S 
ATOM     24  O   UNL     1     -13.880  55.742  49.157  0.00  0.00    +0.000 OA
ATOM     25  O   UNL     1     -12.142  57.559  49.138  0.00  0.00    +0.000 OA
BRANCH  23  26
ATOM     26  C   UNL     1     -13.864  57.548  51.079  0.00  0.00    +0.000 A 
ATOM     27  C   UNL     1     -13.898  57.130  52.415  0.00  0.00    +0.000 A 
ATOM     28  C   UNL     1     -14.505  58.736  50.700  0.00  0.00    +0.000 A 
ATOM     29  C   UNL     1     -14.610  57.882  53.358  0.00  0.00    +0.000 A 
ATOM     30  C   UNL     1     -15.210  59.485  51.644  0.00  0.00    +0.000 A 
ATOM     31  C   UNL     1     -15.274  59.057  52.978  0.00  0.00    +0.000 A 
BRANCH  31  32
ATOM     32  C   UNL     1     -16.015  59.816  53.945  0.00  0.00    +0.000 C 
ATOM     33  N   UNL     1     -16.614  60.434  54.726  0.00  0.00    +0.000 NA
ENDBRANCH  31  32
ENDBRANCH  23  26
ENDBRANCH   1  23
TORSDOF 7
ENDMDL
MODEL 6
REMARK VINA RESULT:      -6.8      3.340      7.381
REMARK  Name = 
REMARK  10 active torsions:
REMARK  status: ('A' for Active; 'I' for Inactive)
REMARK    1  A    between atoms: S_1  and  N_4
REMARK    2  A    between atoms: S_1  and  C_5
REMARK    3  A    between atoms: N_10  and  C_13
REMARK    4  A    between atoms: C_14  and  C_17
REMARK    5  A    between atoms: C_16  and  C_20
REMARK    6  A    between atoms: C_20  and  O_25
REMARK    7  A    between atoms: O_25  and  C_28
REMARK    8  A    between atoms: C_26  and  C_29
REMARK    9  A    between atoms: C_26  and  C_30
REMARK   10  A    between atoms: C_28  and  C_31
REMARK                            x       y       z     vdW  Elec       q    Type
REMARK                         _______ _______ _______ _____ _____    ______ ____
ROOT
ATOM      1  N   UNL     1      -8.151  55.881  50.723  0.00  0.00    +0.000 N 
ATOM      2  C   UNL     1      -8.651  55.097  49.696  0.00  0.00    +0.000 C 
ATOM      3  O   UNL     1      -9.021  53.944  49.902  0.00  0.00    +0.000 OA
ATOM      4  N   UNL     1      -8.576  55.679  48.445  0.00  0.00    +0.000 N 
ATOM      5  H   UNL     1      -7.856  56.795  50.506  0.00  0.00    +0.000 HD
ATOM      6  H   UNL     1      -8.258  56.604  48.338  0.00  0.00    +0.000 HD
ENDROOT
BRANCH   4   7
ATOM      7  C   UNL     1      -8.960  54.928  47.347  0.00  0.00    +0.000 A 
ATOM      8  S   UNL     1      -7.715  54.077  46.562  0.00  0.00    +0.000 S 
ATOM      9  C   UNL     1     -10.208  54.704  46.794  0.00  0.00    +0.000 A 
ATOM     10  C   UNL     1      -8.840  53.195  45.626  0.00  0.00    +0.000 A 
ATOM     11  C   UNL     1     -10.140  53.616  45.843  0.00  0.00    +0.000 A 
ATOM     12  C   UNL     1      -8.434  52.091  44.675  0.00  0.00    +0.000 C 
ATOM     13  C   UNL     1     -11.298  53.028  45.087  0.00  0.00    +0.000 C 
ATOM     14  C   UNL     1      -9.565  51.796  43.639  0.00  0.00    +0.000 C 
ATOM     15  C   UNL     1     -10.928  51.729  44.372  0.00  0.00    +0.000 C 
ATOM     16  C   UNL     1      -9.343  50.437  42.949  0.00  0.00    +0.000 C 
ATOM     17  C   UNL     1      -9.580  52.883  42.545  0.00  0.00    +0.000 C 
BRANCH   9  18
ATOM     18  C   UNL     1     -11.390  55.487  47.158  0.00  0.00    +0.000 C 
ATOM     19  O   UNL     1     -12.030  56.150  46.351  0.00  0.00    +0.000 OA
BRANCH  18  20
ATOM     20  O   UNL     1     -11.683  55.388  48.484  0.00  0.00    +0.000 OA
BRANCH  20  21
ATOM     21  C   UNL     1     -11.999  56.600  49.174  0.00  0.00    +0.000 C 
ATOM     22  C   UNL     1     -13.502  56.768  49.243  0.00  0.00    +0.000 C 
ENDBRANCH  20  21
ENDBRANCH  18  20
ENDBRANCH   9  18
ENDBRANCH   4   7
BRANCH   1  23
ATOM     23  S   UNL     1      -8.021  55.365  52.306  0.00  0.00    +0.000 S 
ATOM     24  O   UNL     1      -9.327  54.978  52.787  0.00  0.00    +0.000 OA
ATOM     25  O   UNL     1      -7.256  56.391  52.986  0.00  0.00    +0.000 OA
BRANCH  23  26
ATOM     26  C   UNL     1      -6.973  53.920  52.242  0.00  0.00    +0.000 A 
ATOM     27  C   UNL     1      -5.694  53.998  51.678  0.00  0.00    +0.000 A 
ATOM     28  C   UNL     1      -7.422  52.716  52.800  0.00  0.00    +0.000 A 
ATOM     29  C   UNL     1      -4.886  52.855  51.637  0.00  0.00    +0.000 A 
ATOM     30  C   UNL     1      -6.611  51.580  52.761  0.00  0.00    +0.000 A 
ATOM     31  C   UNL     1      -5.340  51.641  52.171  0.00  0.00    +0.000 A 
BRANCH  31  32
ATOM     32  C   UNL     1      -4.514  50.468  52.114  0.00  0.00    +0.000 C 
ATOM     33  N   UNL     1      -3.847  49.517  52.066  0.00  0.00    +0.000 NA
ENDBRANCH  31  32
ENDBRANCH  23  26
ENDBRANCH   1  23
TORSDOF 7
ENDMDL
MODEL 7
REMARK VINA RESULT:      -6.7      2.592      3.828
REMARK  Name = 
REMARK  10 active torsions:
REMARK  status: ('A' for Active; 'I' for Inactive)
REMARK    1  A    between atoms: S_1  and  N_4
REMARK    2  A    between atoms: S_1  and  C_5
REMARK    3  A    between atoms: N_10  and  C_13
REMARK    4  A    between atoms: C_14  and  C_17
REMARK    5  A    between atoms: C_16  and  C_20
REMARK    6  A    between atoms: C_20  and  O_25
REMARK    7  A    between atoms: O_25  and  C_28
REMARK    8  A    between atoms: C_26  and  C_29
REMARK    9  A    between atoms: C_26  and  C_30
REMARK   10  A    between atoms: C_28  and  C_31
REMARK                            x       y       z     vdW  Elec       q    Type
REMARK                         _______ _______ _______ _____ _____    ______ ____
ROOT
ATOM      1  N   UNL     1     -10.922  54.137  45.054  0.00  0.00    +0.000 N 
ATOM      2  C   UNL     1     -11.331  54.449  46.339  0.00  0.00    +0.000 C 
ATOM      3  O   UNL     1     -11.592  53.566  47.153  0.00  0.00    +0.000 OA
ATOM      4  N   UNL     1     -11.527  55.798  46.565  0.00  0.00    +0.000 N 
ATOM      5  H   UNL     1     -10.736  54.880  44.434  0.00  0.00    +0.000 HD
ATOM      6  H   UNL     1     -11.313  56.462  45.871  0.00  0.00    +0.000 HD
ENDROOT
BRANCH   4   7
ATOM      7  C   UNL     1     -12.032  56.192  47.793  0.00  0.00    +0.000 A 
ATOM      8  S   UNL     1     -13.677  56.622  47.812  0.00  0.00    +0.000 S 
ATOM      9  C   UNL     1     -11.437  56.252  49.040  0.00  0.00    +0.000 A 
ATOM     10  C   UNL     1     -13.700  56.658  49.519  0.00  0.00    +0.000 A 
ATOM     11  C   UNL     1     -12.445  56.439  50.061  0.00  0.00    +0.000 A 
ATOM     12  C   UNL     1     -14.959  56.906  50.322  0.00  0.00    +0.000 C 
ATOM     13  C   UNL     1     -12.206  56.481  51.544  0.00  0.00    +0.000 C 
ATOM     14  C   UNL     1     -14.618  57.343  51.782  0.00  0.00    +0.000 C 
ATOM     15  C   UNL     1     -13.506  56.425  52.347  0.00  0.00    +0.000 C 
ATOM     16  C   UNL     1     -15.846  57.200  52.701  0.00  0.00    +0.000 C 
ATOM     17  C   UNL     1     -14.179  58.820  51.807  0.00  0.00    +0.000 C 
BRANCH   9  18
ATOM     18  C   UNL     1      -9.991  56.138  49.236  0.00  0.00    +0.000 C 
ATOM     19  O   UNL     1      -9.273  57.094  49.507  0.00  0.00    +0.000 OA
BRANCH  18  20
ATOM     20  O   UNL     1      -9.552  54.859  49.085  0.00  0.00    +0.000 OA
BRANCH  20  21
ATOM     21  C   UNL     1      -9.625  54.005  50.228  0.00  0.00    +0.000 C 
ATOM     22  C   UNL     1      -9.501  52.559  49.791  0.00  0.00    +0.000 C 
ENDBRANCH  20  21
ENDBRANCH  18  20
ENDBRANCH   9  18
ENDBRANCH   4   7
BRANCH   1  23
ATOM     23  S   UNL     1     -10.727  52.576  44.493  0.00  0.00    +0.000 S 
ATOM     24  O   UNL     1     -10.221  52.618  43.142  0.00  0.00    +0.000 OA
ATOM     25  O   UNL     1     -11.970  51.897  44.797  0.00  0.00    +0.000 OA
BRANCH  23  26
ATOM     26  C   UNL     1      -9.489  51.850  45.556  0.00  0.00    +0.000 A 
ATOM     27  C   UNL     1      -9.748  50.650  46.229  0.00  0.00    +0.000 A 
ATOM     28  C   UNL     1      -8.236  52.467  45.679  0.00  0.00    +0.000 A 
ATOM     29  C   UNL     1      -8.764  50.095  47.057  0.00  0.00    +0.000 A 
ATOM     30  C   UNL     1      -7.257  51.908  46.503  0.00  0.00    +0.000 A 
ATOM     31  C   UNL     1      -7.519  50.722  47.204  0.00  0.00    +0.000 A 
BRANCH  31  32
ATOM     32  C   UNL     1      -6.519  50.157  48.066  0.00  0.00    +0.000 C 
ATOM     33  N   UNL     1      -5.711  49.701  48.766  0.00  0.00    +0.000 NA
ENDBRANCH  31  32
ENDBRANCH  23  26
ENDBRANCH   1  23
TORSDOF 7
ENDMDL
MODEL 8
REMARK VINA RESULT:      -6.7      4.224      7.977
REMARK  Name = 
REMARK  10 active torsions:
REMARK  status: ('A' for Active; 'I' for Inactive)
REMARK    1  A    between atoms: S_1  and  N_4
REMARK    2  A    between atoms: S_1  and  C_5
REMARK    3  A    between atoms: N_10  and  C_13
REMARK    4  A    between atoms: C_14  and  C_17
REMARK    5  A    between atoms: C_16  and  C_20
REMARK    6  A    between atoms: C_20  and  O_25
REMARK    7  A    between atoms: O_25  and  C_28
REMARK    8  A    between atoms: C_26  and  C_29
REMARK    9  A    between atoms: C_26  and  C_30
REMARK   10  A    between atoms: C_28  and  C_31
REMARK                            x       y       z     vdW  Elec       q    Type
REMARK                         _______ _______ _______ _____ _____    ______ ____
ROOT
ATOM      1  N   UNL     1     -10.461  52.592  51.820  0.00  0.00    +0.000 N 
ATOM      2  C   UNL     1      -9.993  52.215  50.572  0.00  0.00    +0.000 C 
ATOM      3  O   UNL     1      -9.085  51.396  50.457  0.00  0.00    +0.000 OA
ATOM      4  N   UNL     1     -10.546  52.919  49.519  0.00  0.00    +0.000 N 
ATOM      5  H   UNL     1     -11.182  53.262  51.862  0.00  0.00    +0.000 HD
ATOM      6  H   UNL     1     -11.263  53.575  49.672  0.00  0.00    +0.000 HD
ENDROOT
BRANCH   4   7
ATOM      7  C   UNL     1     -10.064  52.677  48.244  0.00  0.00    +0.000 A 
ATOM      8  S   UNL     1     -10.784  51.378  47.416  0.00  0.00    +0.000 S 
ATOM      9  C   UNL     1      -9.116  53.346  47.490  0.00  0.00    +0.000 A 
ATOM     10  C   UNL     1     -10.033  51.830  45.950  0.00  0.00    +0.000 A 
ATOM     11  C   UNL     1      -9.170  52.899  46.115  0.00  0.00    +0.000 A 
ATOM     12  C   UNL     1     -10.296  51.123  44.638  0.00  0.00    +0.000 C 
ATOM     13  C   UNL     1      -8.350  53.437  44.977  0.00  0.00    +0.000 C 
ATOM     14  C   UNL     1      -9.165  51.420  43.603  0.00  0.00    +0.000 C 
ATOM     15  C   UNL     1      -8.839  52.935  43.618  0.00  0.00    +0.000 C 
ATOM     16  C   UNL     1      -9.614  51.059  42.174  0.00  0.00    +0.000 C 
ATOM     17  C   UNL     1      -7.912  50.583  43.929  0.00  0.00    +0.000 C 
BRANCH   9  18
ATOM     18  C   UNL     1      -8.216  54.352  48.058  0.00  0.00    +0.000 C 
ATOM     19  O   UNL     1      -8.301  55.547  47.804  0.00  0.00    +0.000 OA
BRANCH  18  20
ATOM     20  O   UNL     1      -7.292  53.802  48.891  0.00  0.00    +0.000 OA
BRANCH  20  21
ATOM     21  C   UNL     1      -7.166  54.374  50.195  0.00  0.00    +0.000 C 
ATOM     22  C   UNL     1      -5.794  54.999  50.346  0.00  0.00    +0.000 C 
ENDBRANCH  20  21
ENDBRANCH  18  20
ENDBRANCH   9  18
ENDBRANCH   4   7
BRANCH   1  23
ATOM     23  S   UNL     1      -9.872  51.978  53.257  0.00  0.00    +0.000 S 
ATOM     24  O   UNL     1      -9.549  50.582  53.078  0.00  0.00    +0.000 OA
ATOM     25  O   UNL     1     -10.818  52.395  54.273  0.00  0.00    +0.000 OA
BRANCH  23  26
ATOM     26  C   UNL     1      -8.368  52.888  53.572  0.00  0.00    +0.000 A 
ATOM     27  C   UNL     1      -7.143  52.218  53.678  0.00  0.00    +0.000 A 
ATOM     28  C   UNL     1      -8.413  54.286  53.667  0.00  0.00    +0.000 A 
ATOM     29  C   UNL     1      -5.974  52.948  53.923  0.00  0.00    +0.000 A 
ATOM     30  C   UNL     1      -7.244  55.011  53.908  0.00  0.00    +0.000 A 
ATOM     31  C   UNL     1      -6.018  54.344  54.046  0.00  0.00    +0.000 A 
BRANCH  31  32
ATOM     32  C   UNL     1      -4.819  55.087  54.312  0.00  0.00    +0.000 C 
ATOM     33  N   UNL     1      -3.848  55.690  54.525  0.00  0.00    +0.000 NA
ENDBRANCH  31  32
ENDBRANCH  23  26
ENDBRANCH   1  23
TORSDOF 7
ENDMDL
MODEL 9
REMARK VINA RESULT:      -6.6      2.819      4.448
REMARK  Name = 
REMARK  10 active torsions:
REMARK  status: ('A' for Active; 'I' for Inactive)
REMARK    1  A    between atoms: S_1  and  N_4
REMARK    2  A    between atoms: S_1  and  C_5
REMARK    3  A    between atoms: N_10  and  C_13
REMARK    4  A    between atoms: C_14  and  C_17
REMARK    5  A    between atoms: C_16  and  C_20
REMARK    6  A    between atoms: C_20  and  O_25
REMARK    7  A    between atoms: O_25  and  C_28
REMARK    8  A    between atoms: C_26  and  C_29
REMARK    9  A    between atoms: C_26  and  C_30
REMARK   10  A    between atoms: C_28  and  C_31
REMARK                            x       y       z     vdW  Elec       q    Type
REMARK                         _______ _______ _______ _____ _____    ______ ____
ROOT
ATOM      1  N   UNL     1     -10.064  52.995  46.103  0.00  0.00    +0.000 N 
ATOM      2  C   UNL     1     -10.460  54.170  46.719  0.00  0.00    +0.000 C 
ATOM      3  O   UNL     1      -9.710  55.142  46.772  0.00  0.00    +0.000 OA
ATOM      4  N   UNL     1     -11.688  54.099  47.349  0.00  0.00    +0.000 N 
ATOM      5  H   UNL     1     -10.695  52.239  46.097  0.00  0.00    +0.000 HD
ATOM      6  H   UNL     1     -12.242  53.288  47.283  0.00  0.00    +0.000 HD
ENDROOT
BRANCH   4   7
ATOM      7  C   UNL     1     -12.118  55.197  48.074  0.00  0.00    +0.000 A 
ATOM      8  S   UNL     1     -12.908  56.409  47.180  0.00  0.00    +0.000 S 
ATOM      9  C   UNL     1     -12.062  55.467  49.430  0.00  0.00    +0.000 A 
ATOM     10  C   UNL     1     -13.414  57.202  48.606  0.00  0.00    +0.000 A 
ATOM     11  C   UNL     1     -12.904  56.601  49.743  0.00  0.00    +0.000 A 
ATOM     12  C   UNL     1     -14.312  58.420  48.597  0.00  0.00    +0.000 C 
ATOM     13  C   UNL     1     -13.165  57.156  51.115  0.00  0.00    +0.000 C 
ATOM     14  C   UNL     1     -14.227  59.191  49.952  0.00  0.00    +0.000 C 
ATOM     15  C   UNL     1     -14.300  58.180  51.124  0.00  0.00    +0.000 C 
ATOM     16  C   UNL     1     -15.410  60.165  50.108  0.00  0.00    +0.000 C 
ATOM     17  C   UNL     1     -12.926  60.015  50.016  0.00  0.00    +0.000 C 
BRANCH   9  18
ATOM     18  C   UNL     1     -11.250  54.684  50.362  0.00  0.00    +0.000 C 
ATOM     19  O   UNL     1     -11.397  53.479  50.531  0.00  0.00    +0.000 OA
BRANCH  18  20
ATOM     20  O   UNL     1     -10.325  55.448  51.005  0.00  0.00    +0.000 OA
BRANCH  20  21
ATOM     21  C   UNL     1      -9.289  56.026  50.208  0.00  0.00    +0.000 C 
ATOM     22  C   UNL     1      -8.191  55.007  49.985  0.00  0.00    +0.000 C 
ENDBRANCH  20  21
ENDBRANCH  18  20
ENDBRANCH   9  18
ENDBRANCH   4   7
BRANCH   1  23
ATOM     23  S   UNL     1      -8.576  52.784  45.373  0.00  0.00    +0.000 S 
ATOM     24  O   UNL     1      -8.291  53.929  44.541  0.00  0.00    +0.000 OA
ATOM     25  O   UNL     1      -8.606  51.449  44.811  0.00  0.00    +0.000 OA
BRANCH  23  26
ATOM     26  C   UNL     1      -7.400  52.734  46.717  0.00  0.00    +0.000 A 
ATOM     27  C   UNL     1      -6.398  53.707  46.817  0.00  0.00    +0.000 A 
ATOM     28  C   UNL     1      -7.514  51.739  47.698  0.00  0.00    +0.000 A 
ATOM     29  C   UNL     1      -5.485  53.652  47.879  0.00  0.00    +0.000 A 
ATOM     30  C   UNL     1      -6.605  51.692  48.757  0.00  0.00    +0.000 A 
ATOM     31  C   UNL     1      -5.579  52.643  48.848  0.00  0.00    +0.000 A 
BRANCH  31  32
ATOM     32  C   UNL     1      -4.632  52.583  49.926  0.00  0.00    +0.000 C 
ATOM     33  N   UNL     1      -3.865  52.536  50.798  0.00  0.00    +0.000 NA
ENDBRANCH  31  32
ENDBRANCH  23  26
ENDBRANCH   1  23
TORSDOF 7
ENDMDL
