MODEL 1
REMARK VINA RESULT:      -7.8      0.000      0.000
REMARK  Name = 
REMARK  9 active torsions:
REMARK  status: ('A' for Active; 'I' for Inactive)
REMARK    1  A    between atoms: S_1  and  N_4
REMARK    2  A    between atoms: S_1  and  C_5
REMARK    3  A    between atoms: N_10  and  C_13
REMARK    4  A    between atoms: C_16  and  C_19
REMARK    5  A    between atoms: C_19  and  O_23
REMARK    6  A    between atoms: O_23  and  C_26
REMARK    7  A    between atoms: C_24  and  C_27
REMARK    8  A    between atoms: C_24  and  C_28
REMARK    9  A    between atoms: C_26  and  C_29
REMARK                            x       y       z     vdW  Elec       q    Type
REMARK                         _______ _______ _______ _____ _____    ______ ____
ROOT
ATOM      1  C   UNL     1     -11.023  54.319  51.522  0.00  0.00    +0.000 A 
ATOM      2  S   UNL     1     -10.580  53.731  53.058  0.00  0.00    +0.000 S 
ATOM      3  C   UNL     1      -9.947  54.829  50.805  0.00  0.00    +0.000 A 
ATOM      4  C   UNL     1      -8.913  53.922  52.717  0.00  0.00    +0.000 A 
ATOM      5  C   UNL     1      -8.709  54.510  51.479  0.00  0.00    +0.000 A 
ATOM      6  C   UNL     1      -7.804  53.506  53.668  0.00  0.00    +0.000 C 
ATOM      7  C   UNL     1      -7.336  54.842  50.973  0.00  0.00    +0.000 C 
ATOM      8  C   UNL     1      -6.451  54.209  53.305  0.00  0.00    +0.000 C 
ATOM      9  C   UNL     1      -6.237  54.137  51.772  0.00  0.00    +0.000 C 
ATOM     10  C   UNL     1      -5.242  53.516  53.965  0.00  0.00    +0.000 C 
ATOM     11  C   UNL     1      -6.467  55.673  53.796  0.00  0.00    +0.000 C 
ENDROOT
BRANCH   1  15
ATOM     12  N   UNL     1     -14.521  55.204  51.170  0.00  0.00    +0.000 N 
ATOM     13  C   UNL     1     -13.175  55.302  51.487  0.00  0.00    +0.000 C 
ATOM     14  O   UNL     1     -12.741  56.329  51.995  0.00  0.00    +0.000 OA
ATOM     15  N   UNL     1     -12.374  54.222  51.185  0.00  0.00    +0.000 N 
ATOM     16  H   UNL     1     -14.871  54.361  50.802  0.00  0.00    +0.000 HD
ATOM     17  H   UNL     1     -12.739  53.417  50.749  0.00  0.00    +0.000 HD
BRANCH  12  18
ATOM     18  S   UNL     1     -15.577  56.510  51.402  0.00  0.00    +0.000 S 
ATOM     19  O   UNL     1     -15.631  56.766  52.832  0.00  0.00    +0.000 OA
ATOM     20  O   UNL     1     -16.790  56.158  50.697  0.00  0.00    +0.000 OA
BRANCH  18  21
ATOM     21  C   UNL     1     -14.816  57.913  50.542  0.00  0.00    +0.000 A 
ATOM     22  N   UNL     1     -14.768  59.074  51.241  0.00  0.00    +0.000 NA
ATOM     23  N   UNL     1     -14.340  57.688  49.297  0.00  0.00    +0.000 NA
ATOM     24  C   UNL     1     -14.166  60.086  50.589  0.00  0.00    +0.000 A 
ATOM     25  C   UNL     1     -13.794  58.752  48.699  0.00  0.00    +0.000 A 
ATOM     26  C   UNL     1     -13.668  59.983  49.309  0.00  0.00    +0.000 A 
ENDBRANCH  18  21
ENDBRANCH  12  18
ENDBRANCH   1  15
BRANCH   3  27
ATOM     27  C   UNL     1     -10.062  55.650  49.594  0.00  0.00    +0.000 C 
ATOM     28  O   UNL     1      -9.766  56.837  49.548  0.00  0.00    +0.000 OA
BRANCH  27  29
ATOM     29  O   UNL     1     -10.694  54.982  48.588  0.00  0.00    +0.000 OA
BRANCH  29  30
ATOM     30  C   UNL     1     -11.735  55.652  47.879  0.00  0.00    +0.000 C 
ATOM     31  C   UNL     1     -11.696  55.265  46.417  0.00  0.00    +0.000 C 
ENDBRANCH  29  30
ENDBRANCH  27  29
ENDBRANCH   3  27
TORSDOF 6
ENDMDL
MODEL 2
REMARK VINA RESULT:      -7.5      3.073      7.624
REMARK  Name = 
REMARK  9 active torsions:
REMARK  status: ('A' for Active; 'I' for Inactive)
REMARK    1  A    between atoms: S_1  and  N_4
REMARK    2  A    between atoms: S_1  and  C_5
REMARK    3  A    between atoms: N_10  and  C_13
REMARK    4  A    between atoms: C_16  and  C_19
REMARK    5  A    between atoms: C_19  and  O_23
REMARK    6  A    between atoms: O_23  and  C_26
REMARK    7  A    between atoms: C_24  and  C_27
REMARK    8  A    between atoms: C_24  and  C_28
REMARK    9  A    between atoms: C_26  and  C_29
REMARK                            x       y       z     vdW  Elec       q    Type
REMARK                         _______ _______ _______ _____ _____    ______ ____
ROOT
ATOM      1  C   UNL     1     -11.066  54.850  50.185  0.00  0.00    +0.000 A 
ATOM      2  S   UNL     1     -11.701  54.868  51.766  0.00  0.00    +0.000 S 
ATOM      3  C   UNL     1     -11.703  55.747  49.335  0.00  0.00    +0.000 A 
ATOM      4  C   UNL     1     -12.676  56.233  51.424  0.00  0.00    +0.000 A 
ATOM      5  C   UNL     1     -12.580  56.610  50.094  0.00  0.00    +0.000 A 
ATOM      6  C   UNL     1     -13.546  56.929  52.456  0.00  0.00    +0.000 C 
ATOM      7  C   UNL     1     -13.386  57.741  49.527  0.00  0.00    +0.000 C 
ATOM      8  C   UNL     1     -14.644  57.815  51.771  0.00  0.00    +0.000 C 
ATOM      9  C   UNL     1     -13.995  58.624  50.619  0.00  0.00    +0.000 C 
ATOM     10  C   UNL     1     -15.261  58.834  52.750  0.00  0.00    +0.000 C 
ATOM     11  C   UNL     1     -15.791  56.925  51.248  0.00  0.00    +0.000 C 
ENDROOT
BRANCH   1  15
ATOM     12  N   UNL     1      -7.703  53.505  50.030  0.00  0.00    +0.000 N 
ATOM     13  C   UNL     1      -8.750  54.379  50.282  0.00  0.00    +0.000 C 
ATOM     14  O   UNL     1      -8.526  55.464  50.805  0.00  0.00    +0.000 OA
ATOM     15  N   UNL     1     -10.019  53.960  49.946  0.00  0.00    +0.000 N 
ATOM     16  H   UNL     1      -7.885  52.654  49.570  0.00  0.00    +0.000 HD
ATOM     17  H   UNL     1     -10.179  53.071  49.553  0.00  0.00    +0.000 HD
BRANCH  12  18
ATOM     18  S   UNL     1      -6.117  53.874  50.499  0.00  0.00    +0.000 S 
ATOM     19  O   UNL     1      -5.817  55.201  49.983  0.00  0.00    +0.000 OA
ATOM     20  O   UNL     1      -5.314  52.750  50.072  0.00  0.00    +0.000 OA
BRANCH  18  21
ATOM     21  C   UNL     1      -6.134  53.895  52.312  0.00  0.00    +0.000 A 
ATOM     22  N   UNL     1      -6.325  52.693  52.910  0.00  0.00    +0.000 NA
ATOM     23  N   UNL     1      -5.933  55.087  52.915  0.00  0.00    +0.000 NA
ATOM     24  C   UNL     1      -6.297  52.737  54.255  0.00  0.00    +0.000 A 
ATOM     25  C   UNL     1      -5.961  55.055  54.252  0.00  0.00    +0.000 A 
ATOM     26  C   UNL     1      -6.128  53.896  54.980  0.00  0.00    +0.000 A 
ENDBRANCH  18  21
ENDBRANCH  12  18
ENDBRANCH   1  15
BRANCH   3  27
ATOM     27  C   UNL     1     -11.571  55.752  47.874  0.00  0.00    +0.000 C 
ATOM     28  O   UNL     1     -12.516  55.625  47.106  0.00  0.00    +0.000 OA
BRANCH  27  29
ATOM     29  O   UNL     1     -10.265  55.740  47.483  0.00  0.00    +0.000 OA
BRANCH  29  30
ATOM     30  C   UNL     1      -9.869  54.816  46.471  0.00  0.00    +0.000 C 
ATOM     31  C   UNL     1      -8.390  54.961  46.189  0.00  0.00    +0.000 C 
ENDBRANCH  29  30
ENDBRANCH  27  29
ENDBRANCH   3  27
TORSDOF 6
ENDMDL
MODEL 3
REMARK VINA RESULT:      -6.9      4.016      7.341
REMARK  Name = 
REMARK  9 active torsions:
REMARK  status: ('A' for Active; 'I' for Inactive)
REMARK    1  A    between atoms: S_1  and  N_4
REMARK    2  A    between atoms: S_1  and  C_5
REMARK    3  A    between atoms: N_10  and  C_13
REMARK    4  A    between atoms: C_16  and  C_19
REMARK    5  A    between atoms: C_19  and  O_23
REMARK    6  A    between atoms: O_23  and  C_26
REMARK    7  A    between atoms: C_24  and  C_27
REMARK    8  A    between atoms: C_24  and  C_28
REMARK    9  A    between atoms: C_26  and  C_29
REMARK                            x       y       z     vdW  Elec       q    Type
REMARK                         _______ _______ _______ _____ _____    ______ ____
ROOT
ATOM      1  C   UNL     1     -11.100  54.800  50.096  0.00  0.00    +0.000 A 
ATOM      2  S   UNL     1     -11.750  54.800  51.671  0.00  0.00    +0.000 S 
ATOM      3  C   UNL     1     -11.707  55.731  49.260  0.00  0.00    +0.000 A 
ATOM      4  C   UNL     1     -12.688  56.195  51.350  0.00  0.00    +0.000 A 
ATOM      5  C   UNL     1     -12.570  56.598  50.029  0.00  0.00    +0.000 A 
ATOM      6  C   UNL     1     -13.550  56.890  52.389  0.00  0.00    +0.000 C 
ATOM      7  C   UNL     1     -13.343  57.761  49.480  0.00  0.00    +0.000 C 
ATOM      8  C   UNL     1     -14.619  57.817  51.714  0.00  0.00    +0.000 C 
ATOM      9  C   UNL     1     -13.940  58.635  50.585  0.00  0.00    +0.000 C 
ATOM     10  C   UNL     1     -15.220  58.830  52.709  0.00  0.00    +0.000 C 
ATOM     11  C   UNL     1     -15.783  56.967  51.161  0.00  0.00    +0.000 C 
ENDROOT
BRANCH   1  15
ATOM     12  N   UNL     1      -9.419  51.740  49.120  0.00  0.00    +0.000 N 
ATOM     13  C   UNL     1     -10.435  52.654  49.354  0.00  0.00    +0.000 C 
ATOM     14  O   UNL     1     -11.596  52.354  49.102  0.00  0.00    +0.000 OA
ATOM     15  N   UNL     1     -10.073  53.890  49.846  0.00  0.00    +0.000 N 
ATOM     16  H   UNL     1      -8.495  51.971  49.366  0.00  0.00    +0.000 HD
ATOM     17  H   UNL     1      -9.129  54.119  50.014  0.00  0.00    +0.000 HD
BRANCH  12  18
ATOM     18  S   UNL     1      -9.739  50.230  48.419  0.00  0.00    +0.000 S 
ATOM     19  O   UNL     1     -10.836  49.637  49.167  0.00  0.00    +0.000 OA
ATOM     20  O   UNL     1      -8.465  49.548  48.368  0.00  0.00    +0.000 OA
BRANCH  18  21
ATOM     21  C   UNL     1     -10.256  50.581  46.717  0.00  0.00    +0.000 A 
ATOM     22  N   UNL     1     -11.513  50.190  46.393  0.00  0.00    +0.000 NA
ATOM     23  N   UNL     1      -9.367  51.218  45.923  0.00  0.00    +0.000 NA
ATOM     24  C   UNL     1     -11.878  50.496  45.134  0.00  0.00    +0.000 A 
ATOM     25  C   UNL     1      -9.788  51.450  44.675  0.00  0.00    +0.000 A 
ATOM     26  C   UNL     1     -11.050  51.118  44.226  0.00  0.00    +0.000 A 
ENDBRANCH  18  21
ENDBRANCH  12  18
ENDBRANCH   1  15
BRANCH   3  27
ATOM     27  C   UNL     1     -11.561  55.763  47.800  0.00  0.00    +0.000 C 
ATOM     28  O   UNL     1     -12.504  55.711  47.022  0.00  0.00    +0.000 OA
BRANCH  27  29
ATOM     29  O   UNL     1     -10.254  55.685  47.420  0.00  0.00    +0.000 OA
BRANCH  29  30
ATOM     30  C   UNL     1      -9.909  54.796  46.359  0.00  0.00    +0.000 C 
ATOM     31  C   UNL     1      -8.428  54.887  46.069  0.00  0.00    +0.000 C 
ENDBRANCH  29  30
ENDBRANCH  27  29
ENDBRANCH   3  27
TORSDOF 6
ENDMDL
MODEL 4
REMARK VINA RESULT:      -6.8      2.313      4.566
REMARK  Name = 
REMARK  9 active torsions:
REMARK  status: ('A' for Active; 'I' for Inactive)
REMARK    1  A    between atoms: S_1  and  N_4
REMARK    2  A    between atoms: S_1  and  C_5
REMARK    3  A    between atoms: N_10  and  C_13
REMARK    4  A    between atoms: C_16  and  C_19
REMARK    5  A    between atoms: C_19  and  O_23
REMARK    6  A    between atoms: O_23  and  C_26
REMARK    7  A    between atoms: C_24  and  C_27
REMARK    8  A    between atoms: C_24  and  C_28
REMARK    9  A    between atoms: C_26  and  C_29
REMARK                            x       y       z     vdW  Elec       q    Type
REMARK                         _______ _______ _______ _____ _____    ______ ____
ROOT
ATOM      1  C   UNL     1     -11.513  54.050  49.305  0.00  0.00    +0.000 A 
ATOM      2  S   UNL     1     -11.963  52.972  48.065  0.00  0.00    +0.000 S 
ATOM      3  C   UNL     1     -10.281  54.653  49.078  0.00  0.00    +0.000 A 
ATOM      4  C   UNL     1     -10.647  53.457  47.083  0.00  0.00    +0.000 A 
ATOM      5  C   UNL     1      -9.829  54.364  47.736  0.00  0.00    +0.000 A 
ATOM      6  C   UNL     1     -10.409  52.938  45.675  0.00  0.00    +0.000 C 
ATOM      7  C   UNL     1      -8.572  54.895  47.111  0.00  0.00    +0.000 C 
ATOM      8  C   UNL     1      -8.929  53.185  45.221  0.00  0.00    +0.000 C 
ATOM      9  C   UNL     1      -8.516  54.629  45.605  0.00  0.00    +0.000 C 
ATOM     10  C   UNL     1      -8.762  53.056  43.694  0.00  0.00    +0.000 C 
ATOM     11  C   UNL     1      -7.994  52.147  45.876  0.00  0.00    +0.000 C 
ENDROOT
BRANCH   1  15
ATOM     12  N   UNL     1     -14.233  55.339  51.326  0.00  0.00    +0.000 N 
ATOM     13  C   UNL     1     -13.352  55.187  50.266  0.00  0.00    +0.000 C 
ATOM     14  O   UNL     1     -13.447  55.913  49.284  0.00  0.00    +0.000 OA
ATOM     15  N   UNL     1     -12.408  54.187  50.366  0.00  0.00    +0.000 N 
ATOM     16  H   UNL     1     -14.123  54.781  52.129  0.00  0.00    +0.000 HD
ATOM     17  H   UNL     1     -12.369  53.595  51.153  0.00  0.00    +0.000 HD
BRANCH  12  18
ATOM     18  S   UNL     1     -15.497  56.466  51.263  0.00  0.00    +0.000 S 
ATOM     19  O   UNL     1     -15.990  56.629  52.622  0.00  0.00    +0.000 OA
ATOM     20  O   UNL     1     -16.394  55.986  50.236  0.00  0.00    +0.000 OA
BRANCH  18  21
ATOM     21  C   UNL     1     -14.748  58.010  50.678  0.00  0.00    +0.000 A 
ATOM     22  N   UNL     1     -14.800  58.217  49.339  0.00  0.00    +0.000 NA
ATOM     23  N   UNL     1     -14.226  58.834  51.613  0.00  0.00    +0.000 NA
ATOM     24  C   UNL     1     -14.268  59.387  48.941  0.00  0.00    +0.000 A 
ATOM     25  C   UNL     1     -13.679  59.957  51.135  0.00  0.00    +0.000 A 
ATOM     26  C   UNL     1     -13.683  60.293  49.798  0.00  0.00    +0.000 A 
ENDBRANCH  18  21
ENDBRANCH  12  18
ENDBRANCH   1  15
BRANCH   3  27
ATOM     27  C   UNL     1      -9.514  55.393  50.086  0.00  0.00    +0.000 C 
ATOM     28  O   UNL     1      -9.169  56.560  49.955  0.00  0.00    +0.000 OA
BRANCH  27  29
ATOM     29  O   UNL     1      -9.091  54.583  51.097  0.00  0.00    +0.000 OA
BRANCH  29  30
ATOM     30  C   UNL     1      -9.333  54.993  52.442  0.00  0.00    +0.000 C 
ATOM     31  C   UNL     1     -10.194  53.970  53.147  0.00  0.00    +0.000 C 
ENDBRANCH  29  30
ENDBRANCH  27  29
ENDBRANCH   3  27
TORSDOF 6
ENDMDL
MODEL 5
REMARK VINA RESULT:      -6.8      3.682      7.314
REMARK  Name = 
REMARK  9 active torsions:
REMARK  status: ('A' for Active; 'I' for Inactive)
REMARK    1  A    between atoms: S_1  and  N_4
REMARK    2  A    between atoms: S_1  and  C_5
REMARK    3  A    between atoms: N_10  and  C_13
REMARK    4  A    between atoms: C_16  and  C_19
REMARK    5  A    between atoms: C_19  and  O_23
REMARK    6  A    between atoms: O_23  and  C_26
REMARK    7  A    between atoms: C_24  and  C_27
REMARK    8  A    between atoms: C_24  and  C_28
REMARK    9  A    between atoms: C_26  and  C_29
REMARK                            x       y       z     vdW  Elec       q    Type
REMARK                         _______ _______ _______ _____ _____    ______ ____
ROOT
ATOM      1  C   UNL     1     -11.204  54.410  50.767  0.00  0.00    +0.000 A 
ATOM      2  S   UNL     1     -11.379  55.112  52.309  0.00  0.00    +0.000 S 
ATOM      3  C   UNL     1     -12.171  54.838  49.864  0.00  0.00    +0.000 A 
ATOM      4  C   UNL     1     -12.595  56.180  51.752  0.00  0.00    +0.000 A 
ATOM      5  C   UNL     1     -12.921  55.938  50.427  0.00  0.00    +0.000 A 
ATOM      6  C   UNL     1     -13.239  57.250  52.617  0.00  0.00    +0.000 C 
ATOM      7  C   UNL     1     -14.004  56.699  49.722  0.00  0.00    +0.000 C 
ATOM      8  C   UNL     1     -14.597  57.736  52.002  0.00  0.00    +0.000 C 
ATOM      9  C   UNL     1     -14.411  57.966  50.480  0.00  0.00    +0.000 C 
ATOM     10  C   UNL     1     -15.061  59.075  52.609  0.00  0.00    +0.000 C 
ATOM     11  C   UNL     1     -15.705  56.697  52.276  0.00  0.00    +0.000 C 
ENDROOT
BRANCH   1  15
ATOM     12  N   UNL     1      -8.093  52.988  49.566  0.00  0.00    +0.000 N 
ATOM     13  C   UNL     1      -9.138  53.882  49.742  0.00  0.00    +0.000 C 
ATOM     14  O   UNL     1      -9.126  54.958  49.156  0.00  0.00    +0.000 OA
ATOM     15  N   UNL     1     -10.147  53.514  50.607  0.00  0.00    +0.000 N 
ATOM     16  H   UNL     1      -8.131  52.108  50.005  0.00  0.00    +0.000 HD
ATOM     17  H   UNL     1     -10.121  52.655  51.090  0.00  0.00    +0.000 HD
BRANCH  12  18
ATOM     18  S   UNL     1      -6.751  53.381  48.608  0.00  0.00    +0.000 S 
ATOM     19  O   UNL     1      -5.802  52.286  48.733  0.00  0.00    +0.000 OA
ATOM     20  O   UNL     1      -6.358  54.711  49.020  0.00  0.00    +0.000 OA
BRANCH  18  21
ATOM     21  C   UNL     1      -7.374  53.482  46.909  0.00  0.00    +0.000 A 
ATOM     22  N   UNL     1      -7.344  54.715  46.345  0.00  0.00    +0.000 NA
ATOM     23  N   UNL     1      -7.791  52.330  46.337  0.00  0.00    +0.000 NA
ATOM     24  C   UNL     1      -7.780  54.748  45.072  0.00  0.00    +0.000 A 
ATOM     25  C   UNL     1      -8.248  52.453  45.087  0.00  0.00    +0.000 A 
ATOM     26  C   UNL     1      -8.254  53.647  44.395  0.00  0.00    +0.000 A 
ENDBRANCH  18  21
ENDBRANCH  12  18
ENDBRANCH   1  15
BRANCH   3  27
ATOM     27  C   UNL     1     -12.445  54.204  48.569  0.00  0.00    +0.000 C 
ATOM     28  O   UNL     1     -12.533  52.993  48.412  0.00  0.00    +0.000 OA
BRANCH  27  29
ATOM     29  O   UNL     1     -12.418  55.105  47.547  0.00  0.00    +0.000 OA
BRANCH  29  30
ATOM     30  C   UNL     1     -11.314  55.073  46.644  0.00  0.00    +0.000 C 
ATOM     31  C   UNL     1     -11.651  54.213  45.447  0.00  0.00    +0.000 C 
ENDBRANCH  29  30
ENDBRANCH  27  29
ENDBRANCH   3  27
TORSDOF 6
ENDMDL
MODEL 6
REMARK VINA RESULT:      -6.8      3.677      6.042
REMARK  Name = 
REMARK  9 active torsions:
REMARK  status: ('A' for Active; 'I' for Inactive)
REMARK    1  A    between atoms: S_1  and  N_4
REMARK    2  A    between atoms: S_1  and  C_5
REMARK    3  A    between atoms: N_10  and  C_13
REMARK    4  A    between atoms: C_16  and  C_19
REMARK    5  A    between atoms: C_19  and  O_23
REMARK    6  A    between atoms: O_23  and  C_26
REMARK    7  A    between atoms: C_24  and  C_27
REMARK    8  A    between atoms: C_24  and  C_28
REMARK    9  A    between atoms: C_26  and  C_29
REMARK                            x       y       z     vdW  Elec       q    Type
REMARK                         _______ _______ _______ _____ _____    ______ ____
ROOT
ATOM      1  C   UNL     1     -11.264  52.987  47.587  0.00  0.00    +0.000 A 
ATOM      2  S   UNL     1     -12.178  52.179  46.398  0.00  0.00    +0.000 S 
ATOM      3  C   UNL     1      -9.894  52.900  47.369  0.00  0.00    +0.000 A 
ATOM      4  C   UNL     1     -10.790  51.896  45.437  0.00  0.00    +0.000 A 
ATOM      5  C   UNL     1      -9.636  52.336  46.063  0.00  0.00    +0.000 A 
ATOM      6  C   UNL     1     -10.831  51.230  44.072  0.00  0.00    +0.000 C 
ATOM      7  C   UNL     1      -8.278  52.147  45.454  0.00  0.00    +0.000 C 
ATOM      8  C   UNL     1      -9.416  50.697  43.657  0.00  0.00    +0.000 C 
ATOM      9  C   UNL     1      -8.354  51.783  43.969  0.00  0.00    +0.000 C 
ATOM     10  C   UNL     1      -9.330  50.397  42.147  0.00  0.00    +0.000 C 
ATOM     11  C   UNL     1      -9.105  49.384  44.407  0.00  0.00    +0.000 C 
ENDROOT
BRANCH   1  15
ATOM     12  N   UNL     1     -13.026  55.568  49.425  0.00  0.00    +0.000 N 
ATOM     13  C   UNL     1     -12.327  54.935  48.409  0.00  0.00    +0.000 C 
ATOM     14  O   UNL     1     -12.060  55.544  47.380  0.00  0.00    +0.000 OA
ATOM     15  N   UNL     1     -11.982  53.615  48.605  0.00  0.00    +0.000 N 
ATOM     16  H   UNL     1     -13.198  55.086  50.266  0.00  0.00    +0.000 HD
ATOM     17  H   UNL     1     -12.233  53.136  49.429  0.00  0.00    +0.000 HD
BRANCH  12  18
ATOM     18  S   UNL     1     -13.590  57.156  49.247  0.00  0.00    +0.000 S 
ATOM     19  O   UNL     1     -14.621  57.130  48.222  0.00  0.00    +0.000 OA
ATOM     20  O   UNL     1     -12.410  57.967  49.045  0.00  0.00    +0.000 OA
BRANCH  18  21
ATOM     21  C   UNL     1     -14.310  57.603  50.850  0.00  0.00    +0.000 A 
ATOM     22  N   UNL     1     -14.973  56.610  51.493  0.00  0.00    +0.000 NA
ATOM     23  N   UNL     1     -14.109  58.867  51.284  0.00  0.00    +0.000 NA
ATOM     24  C   UNL     1     -15.464  56.964  52.695  0.00  0.00    +0.000 A 
ATOM     25  C   UNL     1     -14.664  59.154  52.467  0.00  0.00    +0.000 A 
ATOM     26  C   UNL     1     -15.347  58.229  53.228  0.00  0.00    +0.000 A 
ENDBRANCH  18  21
ENDBRANCH  12  18
ENDBRANCH   1  15
BRANCH   3  27
ATOM     27  C   UNL     1      -8.866  53.245  48.358  0.00  0.00    +0.000 C 
ATOM     28  O   UNL     1      -8.210  52.414  48.972  0.00  0.00    +0.000 OA
BRANCH  27  29
ATOM     29  O   UNL     1      -8.853  54.580  48.631  0.00  0.00    +0.000 OA
BRANCH  29  30
ATOM     30  C   UNL     1      -7.606  55.195  48.949  0.00  0.00    +0.000 C 
ATOM     31  C   UNL     1      -7.732  55.989  50.229  0.00  0.00    +0.000 C 
ENDBRANCH  29  30
ENDBRANCH  27  29
ENDBRANCH   3  27
TORSDOF 6
ENDMDL
MODEL 7
REMARK VINA RESULT:      -6.6      2.409      3.041
REMARK  Name = 
REMARK  9 active torsions:
REMARK  status: ('A' for Active; 'I' for Inactive)
REMARK    1  A    between atoms: S_1  and  N_4
REMARK    2  A    between atoms: S_1  and  C_5
REMARK    3  A    between atoms: N_10  and  C_13
REMARK    4  A    between atoms: C_16  and  C_19
REMARK    5  A    between atoms: C_19  and  O_23
REMARK    6  A    between atoms: O_23  and  C_26
REMARK    7  A    between atoms: C_24  and  C_27
REMARK    8  A    between atoms: C_24  and  C_28
REMARK    9  A    between atoms: C_26  and  C_29
REMARK                            x       y       z     vdW  Elec       q    Type
REMARK                         _______ _______ _______ _____ _____    ______ ____
ROOT
ATOM      1  C   UNL     1      -8.447  55.713  49.895  0.00  0.00    +0.000 A 
ATOM      2  S   UNL     1      -7.934  56.026  51.489  0.00  0.00    +0.000 S 
ATOM      3  C   UNL     1      -7.761  54.658  49.303  0.00  0.00    +0.000 A 
ATOM      4  C   UNL     1      -6.957  54.620  51.516  0.00  0.00    +0.000 A 
ATOM      5  C   UNL     1      -6.958  53.974  50.291  0.00  0.00    +0.000 A 
ATOM      6  C   UNL     1      -6.180  54.156  52.736  0.00  0.00    +0.000 C 
ATOM      7  C   UNL     1      -6.129  52.749  50.037  0.00  0.00    +0.000 C 
ATOM      8  C   UNL     1      -5.048  53.147  52.338  0.00  0.00    +0.000 C 
ATOM      9  C   UNL     1      -5.619  52.114  51.333  0.00  0.00    +0.000 C 
ATOM     10  C   UNL     1      -4.523  52.356  53.553  0.00  0.00    +0.000 C 
ATOM     11  C   UNL     1      -3.849  53.908  51.731  0.00  0.00    +0.000 C 
ENDROOT
BRANCH   1  15
ATOM     12  N   UNL     1     -11.763  56.889  49.024  0.00  0.00    +0.000 N 
ATOM     13  C   UNL     1     -10.755  56.086  49.536  0.00  0.00    +0.000 C 
ATOM     14  O   UNL     1     -11.038  55.039  50.105  0.00  0.00    +0.000 OA
ATOM     15  N   UNL     1      -9.458  56.532  49.394  0.00  0.00    +0.000 N 
ATOM     16  H   UNL     1     -11.526  57.706  48.530  0.00  0.00    +0.000 HD
ATOM     17  H   UNL     1      -9.256  57.392  48.958  0.00  0.00    +0.000 HD
BRANCH  12  18
ATOM     18  S   UNL     1     -13.397  56.490  49.234  0.00  0.00    +0.000 S 
ATOM     19  O   UNL     1     -13.453  55.067  49.533  0.00  0.00    +0.000 OA
ATOM     20  O   UNL     1     -14.074  56.995  48.060  0.00  0.00    +0.000 OA
BRANCH  18  21
ATOM     21  C   UNL     1     -13.957  57.455  50.663  0.00  0.00    +0.000 A 
ATOM     22  N   UNL     1     -13.724  56.895  51.877  0.00  0.00    +0.000 NA
ATOM     23  N   UNL     1     -14.533  58.651  50.410  0.00  0.00    +0.000 NA
ATOM     24  C   UNL     1     -14.119  57.653  52.917  0.00  0.00    +0.000 A 
ATOM     25  C   UNL     1     -14.936  59.324  51.493  0.00  0.00    +0.000 A 
ATOM     26  C   UNL     1     -14.742  58.874  52.783  0.00  0.00    +0.000 A 
ENDBRANCH  18  21
ENDBRANCH  12  18
ENDBRANCH   1  15
BRANCH   3  27
ATOM     27  C   UNL     1      -7.782  54.347  47.869  0.00  0.00    +0.000 C 
ATOM     28  O   UNL     1      -6.849  54.576  47.112  0.00  0.00    +0.000 OA
BRANCH  27  29
ATOM     29  O   UNL     1      -9.016  53.938  47.457  0.00  0.00    +0.000 OA
BRANCH  29  30
ATOM     30  C   UNL     1      -9.602  54.585  46.329  0.00  0.00    +0.000 C 
ATOM     31  C   UNL     1      -9.700  53.617  45.171  0.00  0.00    +0.000 C 
ENDBRANCH  29  30
ENDBRANCH  27  29
ENDBRANCH   3  27
TORSDOF 6
ENDMDL
MODEL 8
REMARK VINA RESULT:      -6.5      1.501      2.012
REMARK  Name = 
REMARK  9 active torsions:
REMARK  status: ('A' for Active; 'I' for Inactive)
REMARK    1  A    between atoms: S_1  and  N_4
REMARK    2  A    between atoms: S_1  and  C_5
REMARK    3  A    between atoms: N_10  and  C_13
REMARK    4  A    between atoms: C_16  and  C_19
REMARK    5  A    between atoms: C_19  and  O_23
REMARK    6  A    between atoms: O_23  and  C_26
REMARK    7  A    between atoms: C_24  and  C_27
REMARK    8  A    between atoms: C_24  and  C_28
REMARK    9  A    between atoms: C_26  and  C_29
REMARK                            x       y       z     vdW  Elec       q    Type
REMARK                         _______ _______ _______ _____ _____    ______ ____
ROOT
ATOM      1  C   UNL     1     -10.720  53.521  51.753  0.00  0.00    +0.000 A 
ATOM      2  S   UNL     1     -10.040  53.556  53.315  0.00  0.00    +0.000 S 
ATOM      3  C   UNL     1      -9.777  53.303  50.756  0.00  0.00    +0.000 A 
ATOM      4  C   UNL     1      -8.515  53.047  52.727  0.00  0.00    +0.000 A 
ATOM      5  C   UNL     1      -8.509  52.940  51.346  0.00  0.00    +0.000 A 
ATOM      6  C   UNL     1      -7.319  52.764  53.620  0.00  0.00    +0.000 C 
ATOM      7  C   UNL     1      -7.271  52.571  50.582  0.00  0.00    +0.000 C 
ATOM      8  C   UNL     1      -5.982  52.777  52.800  0.00  0.00    +0.000 C 
ATOM      9  C   UNL     1      -6.186  51.980  51.486  0.00  0.00    +0.000 C 
ATOM     10  C   UNL     1      -4.826  52.102  53.565  0.00  0.00    +0.000 C 
ATOM     11  C   UNL     1      -5.554  54.231  52.508  0.00  0.00    +0.000 C 
ENDROOT
BRANCH   1  15
ATOM     12  N   UNL     1     -13.931  55.204  51.724  0.00  0.00    +0.000 N 
ATOM     13  C   UNL     1     -12.560  55.009  51.787  0.00  0.00    +0.000 C 
ATOM     14  O   UNL     1     -11.812  55.970  51.920  0.00  0.00    +0.000 OA
ATOM     15  N   UNL     1     -12.100  53.715  51.671  0.00  0.00    +0.000 N 
ATOM     16  H   UNL     1     -14.528  54.424  51.661  0.00  0.00    +0.000 HD
ATOM     17  H   UNL     1     -12.718  52.960  51.536  0.00  0.00    +0.000 HD
BRANCH  12  18
ATOM     18  S   UNL     1     -14.600  56.762  51.750  0.00  0.00    +0.000 S 
ATOM     19  O   UNL     1     -13.835  57.537  52.715  0.00  0.00    +0.000 OA
ATOM     20  O   UNL     1     -16.018  56.572  51.958  0.00  0.00    +0.000 OA
BRANCH  18  21
ATOM     21  C   UNL     1     -14.361  57.426  50.080  0.00  0.00    +0.000 A 
ATOM     22  N   UNL     1     -14.302  56.506  49.086  0.00  0.00    +0.000 NA
ATOM     23  N   UNL     1     -14.287  58.770  49.957  0.00  0.00    +0.000 NA
ATOM     24  C   UNL     1     -14.160  57.033  47.856  0.00  0.00    +0.000 A 
ATOM     25  C   UNL     1     -14.104  59.214  48.709  0.00  0.00    +0.000 A 
ATOM     26  C   UNL     1     -14.045  58.383  47.609  0.00  0.00    +0.000 A 
ENDBRANCH  18  21
ENDBRANCH  12  18
ENDBRANCH   1  15
BRANCH   3  27
ATOM     27  C   UNL     1     -10.015  53.503  49.322  0.00  0.00    +0.000 C 
ATOM     28  O   UNL     1     -10.434  52.629  48.575  0.00  0.00    +0.000 OA
BRANCH  27  29
ATOM     29  O   UNL     1      -9.555  54.714  48.896  0.00  0.00    +0.000 OA
BRANCH  29  30
ATOM     30  C   UNL     1      -8.507  54.738  47.929  0.00  0.00    +0.000 C 
ATOM     31  C   UNL     1      -9.028  55.275  46.615  0.00  0.00    +0.000 C 
ENDBRANCH  29  30
ENDBRANCH  27  29
ENDBRANCH   3  27
TORSDOF 6
ENDMDL
MODEL 9
REMARK VINA RESULT:      -6.5      3.586      8.093
REMARK  Name = 
REMARK  9 active torsions:
REMARK  status: ('A' for Active; 'I' for Inactive)
REMARK    1  A    between atoms: S_1  and  N_4
REMARK    2  A    between atoms: S_1  and  C_5
REMARK    3  A    between atoms: N_10  and  C_13
REMARK    4  A    between atoms: C_16  and  C_19
REMARK    5  A    between atoms: C_19  and  O_23
REMARK    6  A    between atoms: O_23  and  C_26
REMARK    7  A    between atoms: C_24  and  C_27
REMARK    8  A    between atoms: C_24  and  C_28
REMARK    9  A    between atoms: C_26  and  C_29
REMARK                            x       y       z     vdW  Elec       q    Type
REMARK                         _______ _______ _______ _____ _____    ______ ____
ROOT
ATOM      1  C   UNL     1     -11.163  54.609  50.685  0.00  0.00    +0.000 A 
ATOM      2  S   UNL     1     -11.428  55.185  52.266  0.00  0.00    +0.000 S 
ATOM      3  C   UNL     1     -12.101  55.079  49.773  0.00  0.00    +0.000 A 
ATOM      4  C   UNL     1     -12.651  56.259  51.735  0.00  0.00    +0.000 A 
ATOM      5  C   UNL     1     -12.910  56.110  50.382  0.00  0.00    +0.000 A 
ATOM      6  C   UNL     1     -13.367  57.241  52.647  0.00  0.00    +0.000 C 
ATOM      7  C   UNL     1     -13.984  56.893  49.686  0.00  0.00    +0.000 C 
ATOM      8  C   UNL     1     -14.710  57.735  52.007  0.00  0.00    +0.000 C 
ATOM      9  C   UNL     1     -14.464  58.085  50.517  0.00  0.00    +0.000 C 
ATOM     10  C   UNL     1     -15.243  59.010  52.691  0.00  0.00    +0.000 C 
ATOM     11  C   UNL     1     -15.796  56.647  52.150  0.00  0.00    +0.000 C 
ENDROOT
BRANCH   1  15
ATOM     12  N   UNL     1      -7.806  53.489  49.898  0.00  0.00    +0.000 N 
ATOM     13  C   UNL     1      -8.890  54.332  50.093  0.00  0.00    +0.000 C 
ATOM     14  O   UNL     1      -8.763  55.538  49.916  0.00  0.00    +0.000 OA
ATOM     15  N   UNL     1     -10.072  53.758  50.508  0.00  0.00    +0.000 N 
ATOM     16  H   UNL     1      -7.926  52.517  49.999  0.00  0.00    +0.000 HD
ATOM     17  H   UNL     1     -10.142  52.789  50.672  0.00  0.00    +0.000 HD
BRANCH  12  18
ATOM     18  S   UNL     1      -6.279  54.099  49.489  0.00  0.00    +0.000 S 
ATOM     19  O   UNL     1      -5.736  54.726  50.684  0.00  0.00    +0.000 OA
ATOM     20  O   UNL     1      -6.485  54.897  48.301  0.00  0.00    +0.000 OA
BRANCH  18  21
ATOM     21  C   UNL     1      -5.282  52.656  49.029  0.00  0.00    +0.000 A 
ATOM     22  N   UNL     1      -5.265  51.643  49.930  0.00  0.00    +0.000 NA
ATOM     23  N   UNL     1      -4.663  52.694  47.828  0.00  0.00    +0.000 NA
ATOM     24  C   UNL     1      -4.546  50.573  49.543  0.00  0.00    +0.000 A 
ATOM     25  C   UNL     1      -3.934  51.612  47.534  0.00  0.00    +0.000 A 
ATOM     26  C   UNL     1      -3.849  50.508  48.357  0.00  0.00    +0.000 A 
ENDBRANCH  18  21
ENDBRANCH  12  18
ENDBRANCH   1  15
BRANCH   3  27
ATOM     27  C   UNL     1     -12.297  54.538  48.423  0.00  0.00    +0.000 C 
ATOM     28  O   UNL     1     -12.527  53.358  48.191  0.00  0.00    +0.000 OA
BRANCH  27  29
ATOM     29  O   UNL     1     -12.024  55.465  47.461  0.00  0.00    +0.000 OA
BRANCH  29  30
ATOM     30  C   UNL     1     -11.760  55.008  46.136  0.00  0.00    +0.000 C 
ATOM     31  C   UNL     1     -10.368  54.423  46.059  0.00  0.00    +0.000 C 
ENDBRANCH  29  30
ENDBRANCH  27  29
ENDBRANCH   3  27
TORSDOF 6
ENDMDL
