MODEL 1
REMARK VINA RESULT:      -7.9      0.000      0.000
REMARK  Name = 
REMARK  9 active torsions:
REMARK  status: ('A' for Active; 'I' for Inactive)
REMARK    1  A    between atoms: S_1  and  N_4
REMARK    2  A    between atoms: S_1  and  C_5
REMARK    3  A    between atoms: N_10  and  C_13
REMARK    4  A    between atoms: C_16  and  C_20
REMARK    5  A    between atoms: C_20  and  O_24
REMARK    6  A    between atoms: O_24  and  C_27
REMARK    7  A    between atoms: C_25  and  C_28
REMARK    8  A    between atoms: C_25  and  C_29
REMARK    9  A    between atoms: C_27  and  C_30
REMARK                            x       y       z     vdW  Elec       q    Type
REMARK                         _______ _______ _______ _____ _____    ______ ____
ROOT
ATOM      1  N   UNL     1     -14.388  55.193  51.162  0.00  0.00    +0.000 N 
ATOM      2  C   UNL     1     -13.088  55.319  51.625  0.00  0.00    +0.000 C 
ATOM      3  O   UNL     1     -12.718  56.321  52.225  0.00  0.00    +0.000 OA
ATOM      4  N   UNL     1     -12.260  54.281  51.247  0.00  0.00    +0.000 N 
ATOM      5  H   UNL     1     -14.635  54.364  50.693  0.00  0.00    +0.000 HD
ATOM      6  H   UNL     1     -12.613  53.509  50.749  0.00  0.00    +0.000 HD
ENDROOT
BRANCH   4   7
ATOM      7  C   UNL     1     -10.919  54.353  51.582  0.00  0.00    +0.000 A 
ATOM      8  S   UNL     1     -10.508  53.651  53.075  0.00  0.00    +0.000 S 
ATOM      9  C   UNL     1      -9.832  54.855  50.893  0.00  0.00    +0.000 A 
ATOM     10  C   UNL     1      -8.842  53.757  52.716  0.00  0.00    +0.000 A 
ATOM     11  C   UNL     1      -8.606  54.419  51.522  0.00  0.00    +0.000 A 
ATOM     12  C   UNL     1      -7.776  53.185  53.618  0.00  0.00    +0.000 C 
ATOM     13  C   UNL     1      -7.213  54.684  51.030  0.00  0.00    +0.000 C 
ATOM     14  C   UNL     1      -6.383  53.816  53.308  0.00  0.00    +0.000 C 
ATOM     15  C   UNL     1      -6.164  53.856  51.774  0.00  0.00    +0.000 C 
ATOM     16  C   UNL     1      -5.253  52.969  53.919  0.00  0.00    +0.000 C 
ATOM     17  C   UNL     1      -6.296  55.232  53.914  0.00  0.00    +0.000 C 
BRANCH   9  18
ATOM     18  C   UNL     1      -9.971  55.694  49.700  0.00  0.00    +0.000 C 
ATOM     19  O   UNL     1      -9.552  56.843  49.636  0.00  0.00    +0.000 OA
BRANCH  18  20
ATOM     20  O   UNL     1     -10.612  55.048  48.687  0.00  0.00    +0.000 OA
BRANCH  20  21
ATOM     21  C   UNL     1     -11.672  55.752  48.036  0.00  0.00    +0.000 C 
ATOM     22  C   UNL     1     -11.692  55.392  46.565  0.00  0.00    +0.000 C 
ENDBRANCH  20  21
ENDBRANCH  18  20
ENDBRANCH   9  18
ENDBRANCH   4   7
BRANCH   1  23
ATOM     23  S   UNL     1     -15.557  56.366  51.354  0.00  0.00    +0.000 S 
ATOM     24  O   UNL     1     -15.822  56.548  52.765  0.00  0.00    +0.000 OA
ATOM     25  O   UNL     1     -16.624  56.005  50.443  0.00  0.00    +0.000 OA
BRANCH  23  26
ATOM     26  C   UNL     1     -14.815  57.850  50.703  0.00  0.00    +0.000 A 
ATOM     27  C   UNL     1     -14.679  58.975  51.527  0.00  0.00    +0.000 A 
ATOM     28  C   UNL     1     -14.342  57.870  49.385  0.00  0.00    +0.000 A 
ATOM     29  C   UNL     1     -14.080  60.130  51.015  0.00  0.00    +0.000 A 
ATOM     30  C   UNL     1     -13.744  59.028  48.883  0.00  0.00    +0.000 A 
ATOM     31  C   UNL     1     -13.621  60.149  49.700  0.00  0.00    +0.000 A 
ATOM     32  F   UNL     1     -13.048  61.260  49.219  0.00  0.00    +0.000 F 
ENDBRANCH  23  26
ENDBRANCH   1  23
TORSDOF 6
ENDMDL
MODEL 2
REMARK VINA RESULT:      -7.5      4.329      7.717
REMARK  Name = 
REMARK  9 active torsions:
REMARK  status: ('A' for Active; 'I' for Inactive)
REMARK    1  A    between atoms: S_1  and  N_4
REMARK    2  A    between atoms: S_1  and  C_5
REMARK    3  A    between atoms: N_10  and  C_13
REMARK    4  A    between atoms: C_16  and  C_20
REMARK    5  A    between atoms: C_20  and  O_24
REMARK    6  A    between atoms: O_24  and  C_27
REMARK    7  A    between atoms: C_25  and  C_28
REMARK    8  A    between atoms: C_25  and  C_29
REMARK    9  A    between atoms: C_27  and  C_30
REMARK                            x       y       z     vdW  Elec       q    Type
REMARK                         _______ _______ _______ _____ _____    ______ ____
ROOT
ATOM      1  N   UNL     1      -9.628  51.770  48.618  0.00  0.00    +0.000 N 
ATOM      2  C   UNL     1     -10.709  52.596  48.881  0.00  0.00    +0.000 C 
ATOM      3  O   UNL     1     -11.813  52.376  48.397  0.00  0.00    +0.000 OA
ATOM      4  N   UNL     1     -10.387  53.715  49.624  0.00  0.00    +0.000 N 
ATOM      5  H   UNL     1      -8.765  51.988  49.038  0.00  0.00    +0.000 HD
ATOM      6  H   UNL     1      -9.475  53.844  49.971  0.00  0.00    +0.000 HD
ENDROOT
BRANCH   4   7
ATOM      7  C   UNL     1     -11.377  54.650  49.867  0.00  0.00    +0.000 A 
ATOM      8  S   UNL     1     -12.057  54.597  51.423  0.00  0.00    +0.000 S 
ATOM      9  C   UNL     1     -11.886  55.665  49.079  0.00  0.00    +0.000 A 
ATOM     10  C   UNL     1     -12.849  56.089  51.177  0.00  0.00    +0.000 A 
ATOM     11  C   UNL     1     -12.681  56.562  49.886  0.00  0.00    +0.000 A 
ATOM     12  C   UNL     1     -13.632  56.786  52.263  0.00  0.00    +0.000 C 
ATOM     13  C   UNL     1     -13.336  57.831  49.421  0.00  0.00    +0.000 C 
ATOM     14  C   UNL     1     -14.608  57.843  51.660  0.00  0.00    +0.000 C 
ATOM     15  C   UNL     1     -13.867  58.674  50.582  0.00  0.00    +0.000 C 
ATOM     16  C   UNL     1     -15.096  58.817  52.747  0.00  0.00    +0.000 C 
ATOM     17  C   UNL     1     -15.844  57.141  51.061  0.00  0.00    +0.000 C 
BRANCH   9  18
ATOM     18  C   UNL     1     -11.613  55.765  47.643  0.00  0.00    +0.000 C 
ATOM     19  O   UNL     1     -12.494  55.880  46.800  0.00  0.00    +0.000 OA
BRANCH  18  20
ATOM     20  O   UNL     1     -10.280  55.716  47.367  0.00  0.00    +0.000 OA
BRANCH  20  21
ATOM     21  C   UNL     1      -9.877  54.907  46.259  0.00  0.00    +0.000 C 
ATOM     22  C   UNL     1      -8.369  54.950  46.123  0.00  0.00    +0.000 C 
ENDBRANCH  20  21
ENDBRANCH  18  20
ENDBRANCH   9  18
ENDBRANCH   4   7
BRANCH   1  23
ATOM     23  S   UNL     1      -9.706  50.429  47.630  0.00  0.00    +0.000 S 
ATOM     24  O   UNL     1     -10.961  49.745  47.853  0.00  0.00    +0.000 OA
ATOM     25  O   UNL     1      -8.445  49.738  47.814  0.00  0.00    +0.000 OA
BRANCH  23  26
ATOM     26  C   UNL     1      -9.684  51.088  45.975  0.00  0.00    +0.000 A 
ATOM     27  C   UNL     1     -10.893  51.391  45.335  0.00  0.00    +0.000 A 
ATOM     28  C   UNL     1      -8.460  51.333  45.339  0.00  0.00    +0.000 A 
ATOM     29  C   UNL     1     -10.869  51.925  44.042  0.00  0.00    +0.000 A 
ATOM     30  C   UNL     1      -8.446  51.868  44.050  0.00  0.00    +0.000 A 
ATOM     31  C   UNL     1      -9.649  52.156  43.410  0.00  0.00    +0.000 A 
ATOM     32  F   UNL     1      -9.636  52.669  42.173  0.00  0.00    +0.000 F 
ENDBRANCH  23  26
ENDBRANCH   1  23
TORSDOF 6
ENDMDL
MODEL 3
REMARK VINA RESULT:      -7.4      3.354      7.785
REMARK  Name = 
REMARK  9 active torsions:
REMARK  status: ('A' for Active; 'I' for Inactive)
REMARK    1  A    between atoms: S_1  and  N_4
REMARK    2  A    between atoms: S_1  and  C_5
REMARK    3  A    between atoms: N_10  and  C_13
REMARK    4  A    between atoms: C_16  and  C_20
REMARK    5  A    between atoms: C_20  and  O_24
REMARK    6  A    between atoms: O_24  and  C_27
REMARK    7  A    between atoms: C_25  and  C_28
REMARK    8  A    between atoms: C_25  and  C_29
REMARK    9  A    between atoms: C_27  and  C_30
REMARK                            x       y       z     vdW  Elec       q    Type
REMARK                         _______ _______ _______ _____ _____    ______ ____
ROOT
ATOM      1  N   UNL     1      -8.128  53.024  49.535  0.00  0.00    +0.000 N 
ATOM      2  C   UNL     1      -9.033  54.057  49.718  0.00  0.00    +0.000 C 
ATOM      3  O   UNL     1      -8.670  55.166  50.094  0.00  0.00    +0.000 OA
ATOM      4  N   UNL     1     -10.351  53.679  49.550  0.00  0.00    +0.000 N 
ATOM      5  H   UNL     1      -8.472  52.156  49.225  0.00  0.00    +0.000 HD
ATOM      6  H   UNL     1     -10.581  52.766  49.263  0.00  0.00    +0.000 HD
ENDROOT
BRANCH   4   7
ATOM      7  C   UNL     1     -11.341  54.614  49.796  0.00  0.00    +0.000 A 
ATOM      8  S   UNL     1     -11.972  54.600  51.374  0.00  0.00    +0.000 S 
ATOM      9  C   UNL     1     -11.881  55.602  48.997  0.00  0.00    +0.000 A 
ATOM     10  C   UNL     1     -12.783  56.079  51.110  0.00  0.00    +0.000 A 
ATOM     11  C   UNL     1     -12.658  56.517  49.802  0.00  0.00    +0.000 A 
ATOM     12  C   UNL     1     -13.538  56.801  52.199  0.00  0.00    +0.000 C 
ATOM     13  C   UNL     1     -13.337  57.766  49.320  0.00  0.00    +0.000 C 
ATOM     14  C   UNL     1     -14.541  57.833  51.596  0.00  0.00    +0.000 C 
ATOM     15  C   UNL     1     -13.839  58.639  50.473  0.00  0.00    +0.000 C 
ATOM     16  C   UNL     1     -15.003  58.835  52.669  0.00  0.00    +0.000 C 
ATOM     17  C   UNL     1     -15.789  57.106  51.055  0.00  0.00    +0.000 C 
BRANCH   9  18
ATOM     18  C   UNL     1     -11.652  55.663  47.550  0.00  0.00    +0.000 C 
ATOM     19  O   UNL     1     -12.560  55.677  46.729  0.00  0.00    +0.000 OA
BRANCH  18  20
ATOM     20  O   UNL     1     -10.327  55.702  47.239  0.00  0.00    +0.000 OA
BRANCH  20  21
ATOM     21  C   UNL     1      -9.869  54.791  46.237  0.00  0.00    +0.000 C 
ATOM     22  C   UNL     1      -8.364  54.901  46.101  0.00  0.00    +0.000 C 
ENDBRANCH  20  21
ENDBRANCH  18  20
ENDBRANCH   9  18
ENDBRANCH   4   7
BRANCH   1  23
ATOM     23  S   UNL     1      -6.490  53.169  49.811  0.00  0.00    +0.000 S 
ATOM     24  O   UNL     1      -5.995  54.346  49.132  0.00  0.00    +0.000 OA
ATOM     25  O   UNL     1      -5.931  51.863  49.527  0.00  0.00    +0.000 OA
BRANCH  23  26
ATOM     26  C   UNL     1      -6.350  53.407  51.571  0.00  0.00    +0.000 A 
ATOM     27  C   UNL     1      -5.550  54.445  52.068  0.00  0.00    +0.000 A 
ATOM     28  C   UNL     1      -7.069  52.580  52.444  0.00  0.00    +0.000 A 
ATOM     29  C   UNL     1      -5.459  54.638  53.450  0.00  0.00    +0.000 A 
ATOM     30  C   UNL     1      -6.972  52.781  53.823  0.00  0.00    +0.000 A 
ATOM     31  C   UNL     1      -6.166  53.805  54.315  0.00  0.00    +0.000 A 
ATOM     32  F   UNL     1      -6.073  53.998  55.637  0.00  0.00    +0.000 F 
ENDBRANCH  23  26
ENDBRANCH   1  23
TORSDOF 6
ENDMDL
MODEL 4
REMARK VINA RESULT:      -7.0      2.748      4.372
REMARK  Name = 
REMARK  9 active torsions:
REMARK  status: ('A' for Active; 'I' for Inactive)
REMARK    1  A    between atoms: S_1  and  N_4
REMARK    2  A    between atoms: S_1  and  C_5
REMARK    3  A    between atoms: N_10  and  C_13
REMARK    4  A    between atoms: C_16  and  C_20
REMARK    5  A    between atoms: C_20  and  O_24
REMARK    6  A    between atoms: O_24  and  C_27
REMARK    7  A    between atoms: C_25  and  C_28
REMARK    8  A    between atoms: C_25  and  C_29
REMARK    9  A    between atoms: C_27  and  C_30
REMARK                            x       y       z     vdW  Elec       q    Type
REMARK                         _______ _______ _______ _____ _____    ______ ____
ROOT
ATOM      1  N   UNL     1     -11.809  55.649  50.768  0.00  0.00    +0.000 N 
ATOM      2  C   UNL     1     -10.548  55.248  50.355  0.00  0.00    +0.000 C 
ATOM      3  O   UNL     1     -10.114  55.545  49.247  0.00  0.00    +0.000 OA
ATOM      4  N   UNL     1      -9.910  54.411  51.249  0.00  0.00    +0.000 N 
ATOM      5  H   UNL     1     -12.106  55.390  51.669  0.00  0.00    +0.000 HD
ATOM      6  H   UNL     1     -10.319  54.195  52.117  0.00  0.00    +0.000 HD
ENDROOT
BRANCH   4   7
ATOM      7  C   UNL     1      -8.682  53.882  50.893  0.00  0.00    +0.000 A 
ATOM      8  S   UNL     1      -8.736  52.334  50.193  0.00  0.00    +0.000 S 
ATOM      9  C   UNL     1      -7.407  54.411  50.959  0.00  0.00    +0.000 A 
ATOM     10  C   UNL     1      -7.101  52.444  49.716  0.00  0.00    +0.000 A 
ATOM     11  C   UNL     1      -6.497  53.600  50.182  0.00  0.00    +0.000 A 
ATOM     12  C   UNL     1      -6.421  51.385  48.882  0.00  0.00    +0.000 C 
ATOM     13  C   UNL     1      -5.044  53.885  49.936  0.00  0.00    +0.000 C 
ATOM     14  C   UNL     1      -4.869  51.495  48.992  0.00  0.00    +0.000 C 
ATOM     15  C   UNL     1      -4.446  52.980  48.856  0.00  0.00    +0.000 C 
ATOM     16  C   UNL     1      -4.185  50.710  47.859  0.00  0.00    +0.000 C 
ATOM     17  C   UNL     1      -4.391  50.906  50.335  0.00  0.00    +0.000 C 
BRANCH   9  18
ATOM     18  C   UNL     1      -7.093  55.625  51.716  0.00  0.00    +0.000 C 
ATOM     19  O   UNL     1      -7.454  56.743  51.370  0.00  0.00    +0.000 OA
BRANCH  18  20
ATOM     20  O   UNL     1      -6.364  55.360  52.836  0.00  0.00    +0.000 OA
BRANCH  20  21
ATOM     21  C   UNL     1      -7.094  55.073  54.031  0.00  0.00    +0.000 C 
ATOM     22  C   UNL     1      -6.197  54.342  55.010  0.00  0.00    +0.000 C 
ENDBRANCH  20  21
ENDBRANCH  18  20
ENDBRANCH   9  18
ENDBRANCH   4   7
BRANCH   1  23
ATOM     23  S   UNL     1     -12.851  56.545  49.823  0.00  0.00    +0.000 S 
ATOM     24  O   UNL     1     -13.734  55.651  49.108  0.00  0.00    +0.000 OA
ATOM     25  O   UNL     1     -12.014  57.486  49.106  0.00  0.00    +0.000 OA
BRANCH  23  26
ATOM     26  C   UNL     1     -13.803  57.501  50.988  0.00  0.00    +0.000 A 
ATOM     27  C   UNL     1     -13.835  57.117  52.335  0.00  0.00    +0.000 A 
ATOM     28  C   UNL     1     -14.483  58.647  50.556  0.00  0.00    +0.000 A 
ATOM     29  C   UNL     1     -14.570  57.881  53.247  0.00  0.00    +0.000 A 
ATOM     30  C   UNL     1     -15.213  59.404  51.475  0.00  0.00    +0.000 A 
ATOM     31  C   UNL     1     -15.253  59.014  52.811  0.00  0.00    +0.000 A 
ATOM     32  F   UNL     1     -15.954  59.740  53.693  0.00  0.00    +0.000 F 
ENDBRANCH  23  26
ENDBRANCH   1  23
TORSDOF 6
ENDMDL
MODEL 5
REMARK VINA RESULT:      -7.0      4.313      7.630
REMARK  Name = 
REMARK  9 active torsions:
REMARK  status: ('A' for Active; 'I' for Inactive)
REMARK    1  A    between atoms: S_1  and  N_4
REMARK    2  A    between atoms: S_1  and  C_5
REMARK    3  A    between atoms: N_10  and  C_13
REMARK    4  A    between atoms: C_16  and  C_20
REMARK    5  A    between atoms: C_20  and  O_24
REMARK    6  A    between atoms: O_24  and  C_27
REMARK    7  A    between atoms: C_25  and  C_28
REMARK    8  A    between atoms: C_25  and  C_29
REMARK    9  A    between atoms: C_27  and  C_30
REMARK                            x       y       z     vdW  Elec       q    Type
REMARK                         _______ _______ _______ _____ _____    ______ ____
ROOT
ATOM      1  N   UNL     1      -7.598  55.998  50.310  0.00  0.00    +0.000 N 
ATOM      2  C   UNL     1      -8.104  55.146  49.342  0.00  0.00    +0.000 C 
ATOM      3  O   UNL     1      -8.240  53.946  49.554  0.00  0.00    +0.000 OA
ATOM      4  N   UNL     1      -8.316  55.755  48.121  0.00  0.00    +0.000 N 
ATOM      5  H   UNL     1      -7.515  56.953  50.091  0.00  0.00    +0.000 HD
ATOM      6  H   UNL     1      -8.171  56.722  48.008  0.00  0.00    +0.000 HD
ENDROOT
BRANCH   4   7
ATOM      7  C   UNL     1      -8.737  54.973  47.060  0.00  0.00    +0.000 A 
ATOM      8  S   UNL     1      -7.497  54.185  46.205  0.00  0.00    +0.000 S 
ATOM      9  C   UNL     1     -10.002  54.674  46.593  0.00  0.00    +0.000 A 
ATOM     10  C   UNL     1      -8.628  53.218  45.368  0.00  0.00    +0.000 A 
ATOM     11  C   UNL     1      -9.935  53.572  45.661  0.00  0.00    +0.000 A 
ATOM     12  C   UNL     1      -8.217  52.113  44.426  0.00  0.00    +0.000 C 
ATOM     13  C   UNL     1     -11.101  52.898  44.998  0.00  0.00    +0.000 C 
ATOM     14  C   UNL     1      -9.389  51.726  43.472  0.00  0.00    +0.000 C 
ATOM     15  C   UNL     1     -10.701  51.602  44.288  0.00  0.00    +0.000 C 
ATOM     16  C   UNL     1      -9.123  50.364  42.807  0.00  0.00    +0.000 C 
ATOM     17  C   UNL     1      -9.533  52.780  42.355  0.00  0.00    +0.000 C 
BRANCH   9  18
ATOM     18  C   UNL     1     -11.198  55.401  47.027  0.00  0.00    +0.000 C 
ATOM     19  O   UNL     1     -12.017  55.870  46.247  0.00  0.00    +0.000 OA
BRANCH  18  20
ATOM     20  O   UNL     1     -11.285  55.487  48.384  0.00  0.00    +0.000 OA
BRANCH  20  21
ATOM     21  C   UNL     1     -12.396  54.836  49.005  0.00  0.00    +0.000 C 
ATOM     22  C   UNL     1     -12.193  53.335  48.963  0.00  0.00    +0.000 C 
ENDBRANCH  20  21
ENDBRANCH  18  20
ENDBRANCH   9  18
ENDBRANCH   4   7
BRANCH   1  23
ATOM     23  S   UNL     1      -7.120  55.495  51.828  0.00  0.00    +0.000 S 
ATOM     24  O   UNL     1      -6.964  56.650  52.684  0.00  0.00    +0.000 OA
ATOM     25  O   UNL     1      -6.015  54.585  51.605  0.00  0.00    +0.000 OA
BRANCH  23  26
ATOM     26  C   UNL     1      -8.479  54.506  52.421  0.00  0.00    +0.000 A 
ATOM     27  C   UNL     1      -8.225  53.248  52.984  0.00  0.00    +0.000 A 
ATOM     28  C   UNL     1      -9.786  55.007  52.353  0.00  0.00    +0.000 A 
ATOM     29  C   UNL     1      -9.294  52.485  53.464  0.00  0.00    +0.000 A 
ATOM     30  C   UNL     1     -10.846  54.237  52.836  0.00  0.00    +0.000 A 
ATOM     31  C   UNL     1     -10.592  52.982  53.384  0.00  0.00    +0.000 A 
ATOM     32  F   UNL     1     -11.609  52.244  53.848  0.00  0.00    +0.000 F 
ENDBRANCH  23  26
ENDBRANCH   1  23
TORSDOF 6
ENDMDL
MODEL 6
REMARK VINA RESULT:      -6.8      2.996      4.081
REMARK  Name = 
REMARK  9 active torsions:
REMARK  status: ('A' for Active; 'I' for Inactive)
REMARK    1  A    between atoms: S_1  and  N_4
REMARK    2  A    between atoms: S_1  and  C_5
REMARK    3  A    between atoms: N_10  and  C_13
REMARK    4  A    between atoms: C_16  and  C_20
REMARK    5  A    between atoms: C_20  and  O_24
REMARK    6  A    between atoms: O_24  and  C_27
REMARK    7  A    between atoms: C_25  and  C_28
REMARK    8  A    between atoms: C_25  and  C_29
REMARK    9  A    between atoms: C_27  and  C_30
REMARK                            x       y       z     vdW  Elec       q    Type
REMARK                         _______ _______ _______ _____ _____    ______ ____
ROOT
ATOM      1  N   UNL     1     -12.154  57.528  49.179  0.00  0.00    +0.000 N 
ATOM      2  C   UNL     1     -11.527  56.294  49.234  0.00  0.00    +0.000 C 
ATOM      3  O   UNL     1     -12.164  55.249  49.160  0.00  0.00    +0.000 OA
ATOM      4  N   UNL     1     -10.172  56.370  49.491  0.00  0.00    +0.000 N 
ATOM      5  H   UNL     1     -11.595  58.336  49.236  0.00  0.00    +0.000 HD
ATOM      6  H   UNL     1      -9.719  57.241  49.557  0.00  0.00    +0.000 HD
ENDROOT
BRANCH   4   7
ATOM      7  C   UNL     1      -9.466  55.191  49.654  0.00  0.00    +0.000 A 
ATOM      8  S   UNL     1      -9.003  54.419  48.212  0.00  0.00    +0.000 S 
ATOM      9  C   UNL     1      -9.021  54.543  50.790  0.00  0.00    +0.000 A 
ATOM     10  C   UNL     1      -7.972  53.355  49.060  0.00  0.00    +0.000 A 
ATOM     11  C   UNL     1      -8.067  53.519  50.432  0.00  0.00    +0.000 A 
ATOM     12  C   UNL     1      -7.072  52.363  48.364  0.00  0.00    +0.000 C 
ATOM     13  C   UNL     1      -7.296  52.653  51.385  0.00  0.00    +0.000 C 
ATOM     14  C   UNL     1      -6.616  51.238  49.343  0.00  0.00    +0.000 C 
ATOM     15  C   UNL     1      -6.180  51.870  50.690  0.00  0.00    +0.000 C 
ATOM     16  C   UNL     1      -5.407  50.475  48.772  0.00  0.00    +0.000 C 
ATOM     17  C   UNL     1      -7.760  50.225  49.555  0.00  0.00    +0.000 C 
BRANCH   9  18
ATOM     18  C   UNL     1      -9.483  54.899  52.135  0.00  0.00    +0.000 C 
ATOM     19  O   UNL     1      -8.743  55.351  52.999  0.00  0.00    +0.000 OA
BRANCH  18  20
ATOM     20  O   UNL     1     -10.815  54.671  52.300  0.00  0.00    +0.000 OA
BRANCH  20  21
ATOM     21  C   UNL     1     -11.247  53.308  52.272  0.00  0.00    +0.000 C 
ATOM     22  C   UNL     1     -10.739  52.590  53.505  0.00  0.00    +0.000 C 
ENDBRANCH  20  21
ENDBRANCH  18  20
ENDBRANCH   9  18
ENDBRANCH   4   7
BRANCH   1  23
ATOM     23  S   UNL     1     -13.803  57.722  49.022  0.00  0.00    +0.000 S 
ATOM     24  O   UNL     1     -14.367  56.535  48.418  0.00  0.00    +0.000 OA
ATOM     25  O   UNL     1     -13.984  59.022  48.407  0.00  0.00    +0.000 OA
BRANCH  23  26
ATOM     26  C   UNL     1     -14.399  57.866  50.695  0.00  0.00    +0.000 A 
ATOM     27  C   UNL     1     -14.298  59.094  51.363  0.00  0.00    +0.000 A 
ATOM     28  C   UNL     1     -14.997  56.763  51.318  0.00  0.00    +0.000 A 
ATOM     29  C   UNL     1     -14.784  59.205  52.669  0.00  0.00    +0.000 A 
ATOM     30  C   UNL     1     -15.480  56.884  52.623  0.00  0.00    +0.000 A 
ATOM     31  C   UNL     1     -15.367  58.102  53.289  0.00  0.00    +0.000 A 
ATOM     32  F   UNL     1     -15.830  58.219  54.540  0.00  0.00    +0.000 F 
ENDBRANCH  23  26
ENDBRANCH   1  23
TORSDOF 6
ENDMDL
MODEL 7
REMARK VINA RESULT:      -6.8      3.712      8.056
REMARK  Name = 
REMARK  9 active torsions:
REMARK  status: ('A' for Active; 'I' for Inactive)
REMARK    1  A    between atoms: S_1  and  N_4
REMARK    2  A    between atoms: S_1  and  C_5
REMARK    3  A    between atoms: N_10  and  C_13
REMARK    4  A    between atoms: C_16  and  C_20
REMARK    5  A    between atoms: C_20  and  O_24
REMARK    6  A    between atoms: O_24  and  C_27
REMARK    7  A    between atoms: C_25  and  C_28
REMARK    8  A    between atoms: C_25  and  C_29
REMARK    9  A    between atoms: C_27  and  C_30
REMARK                            x       y       z     vdW  Elec       q    Type
REMARK                         _______ _______ _______ _____ _____    ______ ____
ROOT
ATOM      1  N   UNL     1      -8.358  52.470  50.358  0.00  0.00    +0.000 N 
ATOM      2  C   UNL     1      -9.214  53.550  50.498  0.00  0.00    +0.000 C 
ATOM      3  O   UNL     1      -8.949  54.482  51.249  0.00  0.00    +0.000 OA
ATOM      4  N   UNL     1     -10.406  53.407  49.816  0.00  0.00    +0.000 N 
ATOM      5  H   UNL     1      -8.615  51.751  49.737  0.00  0.00    +0.000 HD
ATOM      6  H   UNL     1     -10.567  52.625  49.241  0.00  0.00    +0.000 HD
ENDROOT
BRANCH   4   7
ATOM      7  C   UNL     1     -11.369  54.390  49.961  0.00  0.00    +0.000 A 
ATOM      8  S   UNL     1     -12.084  54.482  51.499  0.00  0.00    +0.000 S 
ATOM      9  C   UNL     1     -11.825  55.356  49.084  0.00  0.00    +0.000 A 
ATOM     10  C   UNL     1     -12.819  55.975  51.118  0.00  0.00    +0.000 A 
ATOM     11  C   UNL     1     -12.606  56.340  49.799  0.00  0.00    +0.000 A 
ATOM     12  C   UNL     1     -13.601  56.780  52.126  0.00  0.00    +0.000 C 
ATOM     13  C   UNL     1     -13.207  57.587  49.219  0.00  0.00    +0.000 C 
ATOM     14  C   UNL     1     -14.527  57.817  51.418  0.00  0.00    +0.000 C 
ATOM     15  C   UNL     1     -13.734  58.536  50.298  0.00  0.00    +0.000 C 
ATOM     16  C   UNL     1     -15.006  58.889  52.414  0.00  0.00    +0.000 C 
ATOM     17  C   UNL     1     -15.773  57.110  50.846  0.00  0.00    +0.000 C 
BRANCH   9  18
ATOM     18  C   UNL     1     -11.517  55.333  47.652  0.00  0.00    +0.000 C 
ATOM     19  O   UNL     1     -12.214  55.882  46.808  0.00  0.00    +0.000 OA
BRANCH  18  20
ATOM     20  O   UNL     1     -10.377  54.640  47.381  0.00  0.00    +0.000 OA
BRANCH  20  21
ATOM     21  C   UNL     1      -9.319  55.357  46.738  0.00  0.00    +0.000 C 
ATOM     22  C   UNL     1      -7.989  54.934  47.327  0.00  0.00    +0.000 C 
ENDBRANCH  20  21
ENDBRANCH  18  20
ENDBRANCH   9  18
ENDBRANCH   4   7
BRANCH   1  23
ATOM     23  S   UNL     1      -6.916  52.318  51.183  0.00  0.00    +0.000 S 
ATOM     24  O   UNL     1      -6.290  53.617  51.291  0.00  0.00    +0.000 OA
ATOM     25  O   UNL     1      -6.222  51.214  50.551  0.00  0.00    +0.000 OA
BRANCH  23  26
ATOM     26  C   UNL     1      -7.385  51.757  52.808  0.00  0.00    +0.000 A 
ATOM     27  C   UNL     1      -8.561  51.013  52.970  0.00  0.00    +0.000 A 
ATOM     28  C   UNL     1      -6.558  52.032  53.905  0.00  0.00    +0.000 A 
ATOM     29  C   UNL     1      -8.915  50.561  54.245  0.00  0.00    +0.000 A 
ATOM     30  C   UNL     1      -6.919  51.575  55.174  0.00  0.00    +0.000 A 
ATOM     31  C   UNL     1      -8.095  50.847  55.335  0.00  0.00    +0.000 A 
ATOM     32  F   UNL     1      -8.442  50.408  56.552  0.00  0.00    +0.000 F 
ENDBRANCH  23  26
ENDBRANCH   1  23
TORSDOF 6
ENDMDL
MODEL 8
REMARK VINA RESULT:      -6.5      4.583      8.094
REMARK  Name = 
REMARK  9 active torsions:
REMARK  status: ('A' for Active; 'I' for Inactive)
REMARK    1  A    between atoms: S_1  and  N_4
REMARK    2  A    between atoms: S_1  and  C_5
REMARK    3  A    between atoms: N_10  and  C_13
REMARK    4  A    between atoms: C_16  and  C_20
REMARK    5  A    between atoms: C_20  and  O_24
REMARK    6  A    between atoms: O_24  and  C_27
REMARK    7  A    between atoms: C_25  and  C_28
REMARK    8  A    between atoms: C_25  and  C_29
REMARK    9  A    between atoms: C_27  and  C_30
REMARK                            x       y       z     vdW  Elec       q    Type
REMARK                         _______ _______ _______ _____ _____    ______ ____
ROOT
ATOM      1  N   UNL     1     -10.710  53.880  45.121  0.00  0.00    +0.000 N 
ATOM      2  C   UNL     1     -11.196  54.200  46.378  0.00  0.00    +0.000 C 
ATOM      3  O   UNL     1     -11.647  53.341  47.127  0.00  0.00    +0.000 OA
ATOM      4  N   UNL     1     -11.224  55.557  46.635  0.00  0.00    +0.000 N 
ATOM      5  H   UNL     1     -10.352  54.607  44.563  0.00  0.00    +0.000 HD
ATOM      6  H   UNL     1     -10.861  56.201  45.984  0.00  0.00    +0.000 HD
ENDROOT
BRANCH   4   7
ATOM      7  C   UNL     1     -11.774  55.990  47.828  0.00  0.00    +0.000 A 
ATOM      8  S   UNL     1     -13.406  56.457  47.745  0.00  0.00    +0.000 S 
ATOM      9  C   UNL     1     -11.245  56.065  49.102  0.00  0.00    +0.000 A 
ATOM     10  C   UNL     1     -13.522  56.513  49.448  0.00  0.00    +0.000 A 
ATOM     11  C   UNL     1     -12.302  56.284  50.063  0.00  0.00    +0.000 A 
ATOM     12  C   UNL     1     -14.820  56.783  50.168  0.00  0.00    +0.000 C 
ATOM     13  C   UNL     1     -12.148  56.342  51.555  0.00  0.00    +0.000 C 
ATOM     14  C   UNL     1     -14.562  57.236  51.639  0.00  0.00    +0.000 C 
ATOM     15  C   UNL     1     -13.494  56.315  52.282  0.00  0.00    +0.000 C 
ATOM     16  C   UNL     1     -15.846  57.119  52.479  0.00  0.00    +0.000 C 
ATOM     17  C   UNL     1     -14.108  58.710  51.667  0.00  0.00    +0.000 C 
BRANCH   9  18
ATOM     18  C   UNL     1      -9.811  55.926  49.373  0.00  0.00    +0.000 C 
ATOM     19  O   UNL     1      -9.092  56.870  49.675  0.00  0.00    +0.000 OA
BRANCH  18  20
ATOM     20  O   UNL     1      -9.386  54.638  49.250  0.00  0.00    +0.000 OA
BRANCH  20  21
ATOM     21  C   UNL     1      -8.167  54.423  48.535  0.00  0.00    +0.000 C 
ATOM     22  C   UNL     1      -7.344  53.365  49.242  0.00  0.00    +0.000 C 
ENDBRANCH  20  21
ENDBRANCH  18  20
ENDBRANCH   9  18
ENDBRANCH   4   7
BRANCH   1  23
ATOM     23  S   UNL     1     -10.697  52.332  44.500  0.00  0.00    +0.000 S 
ATOM     24  O   UNL     1     -10.222  52.370  43.135  0.00  0.00    +0.000 OA
ATOM     25  O   UNL     1     -11.998  51.777  44.814  0.00  0.00    +0.000 OA
BRANCH  23  26
ATOM     26  C   UNL     1      -9.516  51.455  45.506  0.00  0.00    +0.000 A 
ATOM     27  C   UNL     1      -8.166  51.829  45.473  0.00  0.00    +0.000 A 
ATOM     28  C   UNL     1      -9.950  50.422  46.348  0.00  0.00    +0.000 A 
ATOM     29  C   UNL     1      -7.247  51.148  46.279  0.00  0.00    +0.000 A 
ATOM     30  C   UNL     1      -9.025  49.749  47.149  0.00  0.00    +0.000 A 
ATOM     31  C   UNL     1      -7.681  50.115  47.105  0.00  0.00    +0.000 A 
ATOM     32  F   UNL     1      -6.794  49.470  47.873  0.00  0.00    +0.000 F 
ENDBRANCH  23  26
ENDBRANCH   1  23
TORSDOF 6
ENDMDL
MODEL 9
REMARK VINA RESULT:      -6.4      3.849      5.766
REMARK  Name = 
REMARK  9 active torsions:
REMARK  status: ('A' for Active; 'I' for Inactive)
REMARK    1  A    between atoms: S_1  and  N_4
REMARK    2  A    between atoms: S_1  and  C_5
REMARK    3  A    between atoms: N_10  and  C_13
REMARK    4  A    between atoms: C_16  and  C_20
REMARK    5  A    between atoms: C_20  and  O_24
REMARK    6  A    between atoms: O_24  and  C_27
REMARK    7  A    between atoms: C_25  and  C_28
REMARK    8  A    between atoms: C_25  and  C_29
REMARK    9  A    between atoms: C_27  and  C_30
REMARK                            x       y       z     vdW  Elec       q    Type
REMARK                         _______ _______ _______ _____ _____    ______ ____
ROOT
ATOM      1  N   UNL     1     -12.062  57.796  49.225  0.00  0.00    +0.000 N 
ATOM      2  C   UNL     1     -12.010  56.651  48.445  0.00  0.00    +0.000 C 
ATOM      3  O   UNL     1     -12.969  56.296  47.769  0.00  0.00    +0.000 OA
ATOM      4  N   UNL     1     -10.847  55.923  48.602  0.00  0.00    +0.000 N 
ATOM      5  H   UNL     1     -11.262  58.040  49.743  0.00  0.00    +0.000 HD
ATOM      6  H   UNL     1     -10.118  56.254  49.175  0.00  0.00    +0.000 HD
ENDROOT
BRANCH   4   7
ATOM      7  C   UNL     1     -10.732  54.716  47.935  0.00  0.00    +0.000 A 
ATOM      8  S   UNL     1     -11.932  53.570  48.300  0.00  0.00    +0.000 S 
ATOM      9  C   UNL     1      -9.835  54.286  46.976  0.00  0.00    +0.000 A 
ATOM     10  C   UNL     1     -11.445  52.579  46.998  0.00  0.00    +0.000 A 
ATOM     11  C   UNL     1     -10.315  53.068  46.364  0.00  0.00    +0.000 A 
ATOM     12  C   UNL     1     -12.185  51.323  46.607  0.00  0.00    +0.000 C 
ATOM     13  C   UNL     1      -9.669  52.333  45.226  0.00  0.00    +0.000 C 
ATOM     14  C   UNL     1     -11.289  50.395  45.729  0.00  0.00    +0.000 C 
ATOM     15  C   UNL     1     -10.574  51.243  44.647  0.00  0.00    +0.000 C 
ATOM     16  C   UNL     1     -12.143  49.339  45.006  0.00  0.00    +0.000 C 
ATOM     17  C   UNL     1     -10.266  49.655  46.615  0.00  0.00    +0.000 C 
BRANCH   9  18
ATOM     18  C   UNL     1      -8.600  55.012  46.666  0.00  0.00    +0.000 C 
ATOM     19  O   UNL     1      -8.306  55.383  45.537  0.00  0.00    +0.000 OA
BRANCH  18  20
ATOM     20  O   UNL     1      -7.833  55.219  47.773  0.00  0.00    +0.000 OA
BRANCH  20  21
ATOM     21  C   UNL     1      -7.138  54.087  48.301  0.00  0.00    +0.000 C 
ATOM     22  C   UNL     1      -6.091  53.626  47.309  0.00  0.00    +0.000 C 
ENDBRANCH  20  21
ENDBRANCH  18  20
ENDBRANCH   9  18
ENDBRANCH   4   7
BRANCH   1  23
ATOM     23  S   UNL     1     -13.402  58.781  49.335  0.00  0.00    +0.000 S 
ATOM     24  O   UNL     1     -14.170  58.681  48.114  0.00  0.00    +0.000 OA
ATOM     25  O   UNL     1     -12.905  60.064  49.792  0.00  0.00    +0.000 OA
BRANCH  23  26
ATOM     26  C   UNL     1     -14.352  58.099  50.680  0.00  0.00    +0.000 A 
ATOM     27  C   UNL     1     -14.252  58.669  51.957  0.00  0.00    +0.000 A 
ATOM     28  C   UNL     1     -15.216  57.022  50.446  0.00  0.00    +0.000 A 
ATOM     29  C   UNL     1     -15.014  58.140  53.004  0.00  0.00    +0.000 A 
ATOM     30  C   UNL     1     -15.973  56.502  51.497  0.00  0.00    +0.000 A 
ATOM     31  C   UNL     1     -15.863  57.062  52.768  0.00  0.00    +0.000 A 
ATOM     32  F   UNL     1     -16.589  56.563  53.777  0.00  0.00    +0.000 F 
ENDBRANCH  23  26
ENDBRANCH   1  23
TORSDOF 6
ENDMDL
