MODEL 1
REMARK VINA RESULT:      -7.0      0.000      0.000
REMARK  Name = 
REMARK  10 active torsions:
REMARK  status: ('A' for Active; 'I' for Inactive)
REMARK    1  A    between atoms: S_1  and  N_4
REMARK    2  A    between atoms: S_1  and  C_5
REMARK    3  A    between atoms: N_10  and  C_13
REMARK    4  A    between atoms: C_14  and  C_17
REMARK    5  A    between atoms: C_16  and  C_20
REMARK    6  A    between atoms: C_20  and  O_24
REMARK    7  A    between atoms: O_24  and  C_27
REMARK    8  A    between atoms: C_25  and  C_28
REMARK    9  A    between atoms: C_25  and  C_29
REMARK   10  A    between atoms: C_27  and  C_30
REMARK                            x       y       z     vdW  Elec       q    Type
REMARK                         _______ _______ _______ _____ _____    ______ ____
ROOT
ATOM      1  N   UNL     1      -9.033  52.124  49.400  0.00  0.00    +0.000 N 
ATOM      2  C   UNL     1     -10.172  52.884  49.649  0.00  0.00    +0.000 C 
ATOM      3  O   UNL     1     -11.273  52.536  49.252  0.00  0.00    +0.000 OA
ATOM      4  N   UNL     1      -9.939  54.108  50.273  0.00  0.00    +0.000 N 
ATOM      5  H   UNL     1      -8.167  52.460  49.725  0.00  0.00    +0.000 HD
ATOM      6  H   UNL     1      -9.034  54.374  50.557  0.00  0.00    +0.000 HD
ENDROOT
BRANCH   4   7
ATOM      7  C   UNL     1     -11.035  54.939  50.479  0.00  0.00    +0.000 A 
ATOM      8  S   UNL     1     -11.623  55.043  52.075  0.00  0.00    +0.000 S 
ATOM      9  C   UNL     1     -11.724  55.756  49.599  0.00  0.00    +0.000 A 
ATOM     10  C   UNL     1     -12.657  56.349  51.673  0.00  0.00    +0.000 A 
ATOM     11  C   UNL     1     -12.606  56.647  50.322  0.00  0.00    +0.000 A 
ATOM     12  C   UNL     1     -13.524  57.075  52.685  0.00  0.00    +0.000 C 
ATOM     13  C   UNL     1     -13.462  57.724  49.716  0.00  0.00    +0.000 C 
ATOM     14  C   UNL     1     -14.670  57.874  51.977  0.00  0.00    +0.000 C 
ATOM     15  C   UNL     1     -14.084  58.641  50.767  0.00  0.00    +0.000 C 
ATOM     16  C   UNL     1     -15.300  58.921  52.915  0.00  0.00    +0.000 C 
ATOM     17  C   UNL     1     -15.791  56.913  51.530  0.00  0.00    +0.000 C 
BRANCH   9  18
ATOM     18  C   UNL     1     -11.548  55.688  48.149  0.00  0.00    +0.000 C 
ATOM     19  O   UNL     1     -12.470  55.483  47.366  0.00  0.00    +0.000 OA
BRANCH  18  20
ATOM     20  O   UNL     1     -10.253  55.880  47.783  0.00  0.00    +0.000 OA
BRANCH  20  21
ATOM     21  C   UNL     1      -9.765  55.112  46.684  0.00  0.00    +0.000 C 
ATOM     22  C   UNL     1      -8.270  54.912  46.818  0.00  0.00    +0.000 C 
ENDBRANCH  20  21
ENDBRANCH  18  20
ENDBRANCH   9  18
ENDBRANCH   4   7
BRANCH   1  23
ATOM     23  S   UNL     1      -9.061  50.659  48.572  0.00  0.00    +0.000 S 
ATOM     24  O   UNL     1     -10.220  49.884  48.971  0.00  0.00    +0.000 OA
ATOM     25  O   UNL     1      -7.730  50.107  48.729  0.00  0.00    +0.000 OA
BRANCH  23  26
ATOM     26  C   UNL     1      -9.243  51.116  46.858  0.00  0.00    +0.000 A 
ATOM     27  C   UNL     1     -10.508  51.336  46.307  0.00  0.00    +0.000 A 
ATOM     28  C   UNL     1      -8.098  51.354  46.093  0.00  0.00    +0.000 A 
ATOM     29  C   UNL     1     -10.627  51.733  44.964  0.00  0.00    +0.000 A 
ATOM     30  C   UNL     1      -8.219  51.744  44.756  0.00  0.00    +0.000 A 
ATOM     31  C   UNL     1      -9.479  51.924  44.176  0.00  0.00    +0.000 A 
ATOM     32  C   UNL     1      -9.579  52.315  42.730  0.00  0.00    +0.000 C 
ENDBRANCH  23  26
ENDBRANCH   1  23
TORSDOF 6
ENDMDL
MODEL 2
REMARK VINA RESULT:      -6.9      2.911      4.629
REMARK  Name = 
REMARK  10 active torsions:
REMARK  status: ('A' for Active; 'I' for Inactive)
REMARK    1  A    between atoms: S_1  and  N_4
REMARK    2  A    between atoms: S_1  and  C_5
REMARK    3  A    between atoms: N_10  and  C_13
REMARK    4  A    between atoms: C_14  and  C_17
REMARK    5  A    between atoms: C_16  and  C_20
REMARK    6  A    between atoms: C_20  and  O_24
REMARK    7  A    between atoms: O_24  and  C_27
REMARK    8  A    between atoms: C_25  and  C_28
REMARK    9  A    between atoms: C_25  and  C_29
REMARK   10  A    between atoms: C_27  and  C_30
REMARK                            x       y       z     vdW  Elec       q    Type
REMARK                         _______ _______ _______ _____ _____    ______ ____
ROOT
ATOM      1  N   UNL     1      -8.387  52.613  48.915  0.00  0.00    +0.000 N 
ATOM      2  C   UNL     1      -9.288  53.636  49.197  0.00  0.00    +0.000 C 
ATOM      3  O   UNL     1      -8.913  54.727  49.597  0.00  0.00    +0.000 OA
ATOM      4  N   UNL     1     -10.632  53.280  49.099  0.00  0.00    +0.000 N 
ATOM      5  H   UNL     1      -8.744  51.746  48.614  0.00  0.00    +0.000 HD
ATOM      6  H   UNL     1     -10.904  52.382  48.800  0.00  0.00    +0.000 HD
ENDROOT
BRANCH   4   7
ATOM      7  C   UNL     1     -11.573  54.245  49.442  0.00  0.00    +0.000 A 
ATOM      8  S   UNL     1     -12.063  54.288  51.074  0.00  0.00    +0.000 S 
ATOM      9  C   UNL     1     -12.167  55.236  48.678  0.00  0.00    +0.000 A 
ATOM     10  C   UNL     1     -12.896  55.767  50.848  0.00  0.00    +0.000 A 
ATOM     11  C   UNL     1     -12.863  56.179  49.526  0.00  0.00    +0.000 A 
ATOM     12  C   UNL     1     -13.590  56.519  51.969  0.00  0.00    +0.000 C 
ATOM     13  C   UNL     1     -13.567  57.426  49.068  0.00  0.00    +0.000 C 
ATOM     14  C   UNL     1     -14.629  57.546  51.402  0.00  0.00    +0.000 C 
ATOM     15  C   UNL     1     -13.987  58.324  50.229  0.00  0.00    +0.000 C 
ATOM     16  C   UNL     1     -15.042  58.584  52.463  0.00  0.00    +0.000 C 
ATOM     17  C   UNL     1     -15.907  56.811  50.944  0.00  0.00    +0.000 C 
BRANCH   9  18
ATOM     18  C   UNL     1     -12.072  55.277  47.219  0.00  0.00    +0.000 C 
ATOM     19  O   UNL     1     -12.034  56.320  46.575  0.00  0.00    +0.000 OA
BRANCH  18  20
ATOM     20  O   UNL     1     -12.028  54.032  46.677  0.00  0.00    +0.000 OA
BRANCH  20  21
ATOM     21  C   UNL     1     -11.467  53.910  45.370  0.00  0.00    +0.000 C 
ATOM     22  C   UNL     1      -9.975  53.668  45.471  0.00  0.00    +0.000 C 
ENDBRANCH  20  21
ENDBRANCH  18  20
ENDBRANCH   9  18
ENDBRANCH   4   7
BRANCH   1  23
ATOM     23  S   UNL     1      -6.719  52.782  49.063  0.00  0.00    +0.000 S 
ATOM     24  O   UNL     1      -6.261  53.905  48.266  0.00  0.00    +0.000 OA
ATOM     25  O   UNL     1      -6.179  51.458  48.827  0.00  0.00    +0.000 OA
BRANCH  23  26
ATOM     26  C   UNL     1      -6.457  53.159  50.786  0.00  0.00    +0.000 A 
ATOM     27  C   UNL     1      -5.746  54.300  51.167  0.00  0.00    +0.000 A 
ATOM     28  C   UNL     1      -7.058  52.355  51.756  0.00  0.00    +0.000 A 
ATOM     29  C   UNL     1      -5.583  54.599  52.531  0.00  0.00    +0.000 A 
ATOM     30  C   UNL     1      -6.892  52.651  53.112  0.00  0.00    +0.000 A 
ATOM     31  C   UNL     1      -6.145  53.764  53.513  0.00  0.00    +0.000 A 
ATOM     32  C   UNL     1      -5.958  54.042  54.976  0.00  0.00    +0.000 C 
ENDBRANCH  23  26
ENDBRANCH   1  23
TORSDOF 6
ENDMDL
MODEL 3
REMARK VINA RESULT:      -6.9      3.392      8.131
REMARK  Name = 
REMARK  10 active torsions:
REMARK  status: ('A' for Active; 'I' for Inactive)
REMARK    1  A    between atoms: S_1  and  N_4
REMARK    2  A    between atoms: S_1  and  C_5
REMARK    3  A    between atoms: N_10  and  C_13
REMARK    4  A    between atoms: C_14  and  C_17
REMARK    5  A    between atoms: C_16  and  C_20
REMARK    6  A    between atoms: C_20  and  O_24
REMARK    7  A    between atoms: O_24  and  C_27
REMARK    8  A    between atoms: C_25  and  C_28
REMARK    9  A    between atoms: C_25  and  C_29
REMARK   10  A    between atoms: C_27  and  C_30
REMARK                            x       y       z     vdW  Elec       q    Type
REMARK                         _______ _______ _______ _____ _____    ______ ____
ROOT
ATOM      1  N   UNL     1     -11.649  56.847  49.132  0.00  0.00    +0.000 N 
ATOM      2  C   UNL     1     -10.633  55.994  49.551  0.00  0.00    +0.000 C 
ATOM      3  O   UNL     1     -10.873  54.882  49.996  0.00  0.00    +0.000 OA
ATOM      4  N   UNL     1      -9.354  56.547  49.530  0.00  0.00    +0.000 N 
ATOM      5  H   UNL     1     -11.402  57.740  48.800  0.00  0.00    +0.000 HD
ATOM      6  H   UNL     1      -9.195  57.458  49.190  0.00  0.00    +0.000 HD
ENDROOT
BRANCH   4   7
ATOM      7  C   UNL     1      -8.310  55.761  50.007  0.00  0.00    +0.000 A 
ATOM      8  S   UNL     1      -7.880  55.976  51.642  0.00  0.00    +0.000 S 
ATOM      9  C   UNL     1      -7.568  54.772  49.384  0.00  0.00    +0.000 A 
ATOM     10  C   UNL     1      -6.858  54.601  51.617  0.00  0.00    +0.000 A 
ATOM     11  C   UNL     1      -6.790  54.035  50.355  0.00  0.00    +0.000 A 
ATOM     12  C   UNL     1      -6.116  54.084  52.836  0.00  0.00    +0.000 C 
ATOM     13  C   UNL     1      -5.917  52.845  50.067  0.00  0.00    +0.000 C 
ATOM     14  C   UNL     1      -4.935  53.142  52.421  0.00  0.00    +0.000 C 
ATOM     15  C   UNL     1      -5.429  52.154  51.338  0.00  0.00    +0.000 C 
ATOM     16  C   UNL     1      -4.433  52.299  53.609  0.00  0.00    +0.000 C 
ATOM     17  C   UNL     1      -3.745  53.977  51.904  0.00  0.00    +0.000 C 
BRANCH   9  18
ATOM     18  C   UNL     1      -7.603  54.546  47.939  0.00  0.00    +0.000 C 
ATOM     19  O   UNL     1      -6.632  54.704  47.208  0.00  0.00    +0.000 OA
BRANCH  18  20
ATOM     20  O   UNL     1      -8.831  54.142  47.516  0.00  0.00    +0.000 OA
BRANCH  20  21
ATOM     21  C   UNL     1      -9.342  54.747  46.328  0.00  0.00    +0.000 C 
ATOM     22  C   UNL     1     -10.806  54.399  46.162  0.00  0.00    +0.000 C 
ENDBRANCH  20  21
ENDBRANCH  18  20
ENDBRANCH   9  18
ENDBRANCH   4   7
BRANCH   1  23
ATOM     23  S   UNL     1     -13.280  56.430  49.165  0.00  0.00    +0.000 S 
ATOM     24  O   UNL     1     -13.426  55.023  49.486  0.00  0.00    +0.000 OA
ATOM     25  O   UNL     1     -13.832  56.954  47.933  0.00  0.00    +0.000 OA
BRANCH  23  26
ATOM     26  C   UNL     1     -13.962  57.394  50.501  0.00  0.00    +0.000 A 
ATOM     27  C   UNL     1     -14.557  58.634  50.257  0.00  0.00    +0.000 A 
ATOM     28  C   UNL     1     -13.988  56.849  51.787  0.00  0.00    +0.000 A 
ATOM     29  C   UNL     1     -15.124  59.359  51.319  0.00  0.00    +0.000 A 
ATOM     30  C   UNL     1     -14.548  57.574  52.843  0.00  0.00    +0.000 A 
ATOM     31  C   UNL     1     -15.108  58.837  52.624  0.00  0.00    +0.000 A 
ATOM     32  C   UNL     1     -15.675  59.606  53.782  0.00  0.00    +0.000 C 
ENDBRANCH  23  26
ENDBRANCH   1  23
TORSDOF 6
ENDMDL
MODEL 4
REMARK VINA RESULT:      -6.8      3.492      7.588
REMARK  Name = 
REMARK  10 active torsions:
REMARK  status: ('A' for Active; 'I' for Inactive)
REMARK    1  A    between atoms: S_1  and  N_4
REMARK    2  A    between atoms: S_1  and  C_5
REMARK    3  A    between atoms: N_10  and  C_13
REMARK    4  A    between atoms: C_14  and  C_17
REMARK    5  A    between atoms: C_16  and  C_20
REMARK    6  A    between atoms: C_20  and  O_24
REMARK    7  A    between atoms: O_24  and  C_27
REMARK    8  A    between atoms: C_25  and  C_28
REMARK    9  A    between atoms: C_25  and  C_29
REMARK   10  A    between atoms: C_27  and  C_30
REMARK                            x       y       z     vdW  Elec       q    Type
REMARK                         _______ _______ _______ _____ _____    ______ ____
ROOT
ATOM      1  N   UNL     1     -14.424  55.031  51.214  0.00  0.00    +0.000 N 
ATOM      2  C   UNL     1     -13.102  55.175  51.624  0.00  0.00    +0.000 C 
ATOM      3  O   UNL     1     -12.688  56.221  52.098  0.00  0.00    +0.000 OA
ATOM      4  N   UNL     1     -12.278  54.086  51.345  0.00  0.00    +0.000 N 
ATOM      5  H   UNL     1     -14.701  54.173  50.820  0.00  0.00    +0.000 HD
ATOM      6  H   UNL     1     -12.636  53.264  50.936  0.00  0.00    +0.000 HD
ENDROOT
BRANCH   4   7
ATOM      7  C   UNL     1     -10.931  54.206  51.668  0.00  0.00    +0.000 A 
ATOM      8  S   UNL     1     -10.444  53.549  53.164  0.00  0.00    +0.000 S 
ATOM      9  C   UNL     1      -9.875  54.739  50.949  0.00  0.00    +0.000 A 
ATOM     10  C   UNL     1      -8.787  53.754  52.783  0.00  0.00    +0.000 A 
ATOM     11  C   UNL     1      -8.614  54.386  51.563  0.00  0.00    +0.000 A 
ATOM     12  C   UNL     1      -7.655  53.301  53.688  0.00  0.00    +0.000 C 
ATOM     13  C   UNL     1      -7.248  54.722  51.032  0.00  0.00    +0.000 C 
ATOM     14  C   UNL     1      -6.313  54.020  53.318  0.00  0.00    +0.000 C 
ATOM     15  C   UNL     1      -6.132  53.999  51.781  0.00  0.00    +0.000 C 
ATOM     16  C   UNL     1      -5.094  53.302  53.928  0.00  0.00    +0.000 C 
ATOM     17  C   UNL     1      -6.320  55.467  53.853  0.00  0.00    +0.000 C 
BRANCH   9  18
ATOM     18  C   UNL     1     -10.064  55.542  49.740  0.00  0.00    +0.000 C 
ATOM     19  O   UNL     1      -9.740  56.721  49.657  0.00  0.00    +0.000 OA
BRANCH  18  20
ATOM     20  O   UNL     1     -10.633  54.824  48.736  0.00  0.00    +0.000 OA
BRANCH  20  21
ATOM     21  C   UNL     1     -11.771  55.395  48.091  0.00  0.00    +0.000 C 
ATOM     22  C   UNL     1     -11.555  55.423  46.593  0.00  0.00    +0.000 C 
ENDBRANCH  20  21
ENDBRANCH  18  20
ENDBRANCH   9  18
ENDBRANCH   4   7
BRANCH   1  23
ATOM     23  S   UNL     1     -15.574  56.252  51.357  0.00  0.00    +0.000 S 
ATOM     24  O   UNL     1     -15.891  56.475  52.755  0.00  0.00    +0.000 OA
ATOM     25  O   UNL     1     -16.625  55.897  50.423  0.00  0.00    +0.000 OA
BRANCH  23  26
ATOM     26  C   UNL     1     -14.768  57.707  50.715  0.00  0.00    +0.000 A 
ATOM     27  C   UNL     1     -14.303  57.744  49.398  0.00  0.00    +0.000 A 
ATOM     28  C   UNL     1     -14.695  58.851  51.513  0.00  0.00    +0.000 A 
ATOM     29  C   UNL     1     -13.704  58.915  48.901  0.00  0.00    +0.000 A 
ATOM     30  C   UNL     1     -14.095  60.012  51.019  0.00  0.00    +0.000 A 
ATOM     31  C   UNL     1     -13.584  60.053  49.717  0.00  0.00    +0.000 A 
ATOM     32  C   UNL     1     -12.918  61.304  49.222  0.00  0.00    +0.000 C 
ENDBRANCH  23  26
ENDBRANCH   1  23
TORSDOF 6
ENDMDL
MODEL 5
REMARK VINA RESULT:      -6.6      3.863      8.948
REMARK  Name = 
REMARK  10 active torsions:
REMARK  status: ('A' for Active; 'I' for Inactive)
REMARK    1  A    between atoms: S_1  and  N_4
REMARK    2  A    between atoms: S_1  and  C_5
REMARK    3  A    between atoms: N_10  and  C_13
REMARK    4  A    between atoms: C_14  and  C_17
REMARK    5  A    between atoms: C_16  and  C_20
REMARK    6  A    between atoms: C_20  and  O_24
REMARK    7  A    between atoms: O_24  and  C_27
REMARK    8  A    between atoms: C_25  and  C_28
REMARK    9  A    between atoms: C_25  and  C_29
REMARK   10  A    between atoms: C_27  and  C_30
REMARK                            x       y       z     vdW  Elec       q    Type
REMARK                         _______ _______ _______ _____ _____    ______ ____
ROOT
ATOM      1  N   UNL     1     -11.646  55.387  51.234  0.00  0.00    +0.000 N 
ATOM      2  C   UNL     1     -10.387  54.884  50.918  0.00  0.00    +0.000 C 
ATOM      3  O   UNL     1      -9.912  55.004  49.799  0.00  0.00    +0.000 OA
ATOM      4  N   UNL     1      -9.777  54.146  51.931  0.00  0.00    +0.000 N 
ATOM      5  H   UNL     1     -11.990  55.247  52.145  0.00  0.00    +0.000 HD
ATOM      6  H   UNL     1     -10.198  54.044  52.815  0.00  0.00    +0.000 HD
ENDROOT
BRANCH   4   7
ATOM      7  C   UNL     1      -8.550  53.560  51.642  0.00  0.00    +0.000 A 
ATOM      8  S   UNL     1      -8.577  51.916  51.191  0.00  0.00    +0.000 S 
ATOM      9  C   UNL     1      -7.276  54.103  51.609  0.00  0.00    +0.000 A 
ATOM     10  C   UNL     1      -6.930  51.955  50.722  0.00  0.00    +0.000 A 
ATOM     11  C   UNL     1      -6.351  53.186  50.980  0.00  0.00    +0.000 A 
ATOM     12  C   UNL     1      -6.204  50.772  50.109  0.00  0.00    +0.000 C 
ATOM     13  C   UNL     1      -4.898  53.452  50.701  0.00  0.00    +0.000 C 
ATOM     14  C   UNL     1      -4.650  50.942  50.221  0.00  0.00    +0.000 C 
ATOM     15  C   UNL     1      -4.266  52.384  49.812  0.00  0.00    +0.000 C 
ATOM     16  C   UNL     1      -3.902  49.986  49.272  0.00  0.00    +0.000 C 
ATOM     17  C   UNL     1      -4.184  50.633  51.659  0.00  0.00    +0.000 C 
BRANCH   9  18
ATOM     18  C   UNL     1      -6.964  55.425  52.151  0.00  0.00    +0.000 C 
ATOM     19  O   UNL     1      -7.376  56.470  51.661  0.00  0.00    +0.000 OA
BRANCH  18  20
ATOM     20  O   UNL     1      -6.173  55.349  53.255  0.00  0.00    +0.000 OA
BRANCH  20  21
ATOM     21  C   UNL     1      -6.786  54.909  54.466  0.00  0.00    +0.000 C 
ATOM     22  C   UNL     1      -6.150  53.612  54.923  0.00  0.00    +0.000 C 
ENDBRANCH  20  21
ENDBRANCH  18  20
ENDBRANCH   9  18
ENDBRANCH   4   7
BRANCH   1  23
ATOM     23  S   UNL     1     -12.610  56.224  50.137  0.00  0.00    +0.000 S 
ATOM     24  O   UNL     1     -13.501  55.304  49.456  0.00  0.00    +0.000 OA
ATOM     25  O   UNL     1     -11.692  57.044  49.372  0.00  0.00    +0.000 OA
BRANCH  23  26
ATOM     26  C   UNL     1     -13.586  57.324  51.145  0.00  0.00    +0.000 A 
ATOM     27  C   UNL     1     -14.190  58.455  50.589  0.00  0.00    +0.000 A 
ATOM     28  C   UNL     1     -13.827  56.989  52.479  0.00  0.00    +0.000 A 
ATOM     29  C   UNL     1     -14.987  59.288  51.394  0.00  0.00    +0.000 A 
ATOM     30  C   UNL     1     -14.616  57.821  53.278  0.00  0.00    +0.000 A 
ATOM     31  C   UNL     1     -15.192  58.981  52.750  0.00  0.00    +0.000 A 
ATOM     32  C   UNL     1     -16.010  59.872  53.639  0.00  0.00    +0.000 C 
ENDBRANCH  23  26
ENDBRANCH   1  23
TORSDOF 6
ENDMDL
MODEL 6
REMARK VINA RESULT:      -6.5      3.153      7.889
REMARK  Name = 
REMARK  10 active torsions:
REMARK  status: ('A' for Active; 'I' for Inactive)
REMARK    1  A    between atoms: S_1  and  N_4
REMARK    2  A    between atoms: S_1  and  C_5
REMARK    3  A    between atoms: N_10  and  C_13
REMARK    4  A    between atoms: C_14  and  C_17
REMARK    5  A    between atoms: C_16  and  C_20
REMARK    6  A    between atoms: C_20  and  O_24
REMARK    7  A    between atoms: O_24  and  C_27
REMARK    8  A    between atoms: C_25  and  C_28
REMARK    9  A    between atoms: C_25  and  C_29
REMARK   10  A    between atoms: C_27  and  C_30
REMARK                            x       y       z     vdW  Elec       q    Type
REMARK                         _______ _______ _______ _____ _____    ______ ____
ROOT
ATOM      1  N   UNL     1     -12.945  55.489  49.176  0.00  0.00    +0.000 N 
ATOM      2  C   UNL     1     -11.876  55.281  50.043  0.00  0.00    +0.000 C 
ATOM      3  O   UNL     1     -11.347  56.205  50.640  0.00  0.00    +0.000 OA
ATOM      4  N   UNL     1     -11.395  53.973  50.080  0.00  0.00    +0.000 N 
ATOM      5  H   UNL     1     -13.322  54.712  48.704  0.00  0.00    +0.000 HD
ATOM      6  H   UNL     1     -11.826  53.254  49.564  0.00  0.00    +0.000 HD
ENDROOT
BRANCH   4   7
ATOM      7  C   UNL     1     -10.281  53.726  50.875  0.00  0.00    +0.000 A 
ATOM      8  S   UNL     1     -10.582  53.169  52.457  0.00  0.00    +0.000 S 
ATOM      9  C   UNL     1      -8.930  53.811  50.585  0.00  0.00    +0.000 A 
ATOM     10  C   UNL     1      -8.927  52.810  52.711  0.00  0.00    +0.000 A 
ATOM     11  C   UNL     1      -8.148  53.184  51.629  0.00  0.00    +0.000 A 
ATOM     12  C   UNL     1      -8.391  52.168  53.978  0.00  0.00    +0.000 C 
ATOM     13  C   UNL     1      -6.654  53.016  51.632  0.00  0.00    +0.000 C 
ATOM     14  C   UNL     1      -6.847  52.390  54.115  0.00  0.00    +0.000 C 
ATOM     15  C   UNL     1      -6.169  52.101  52.754  0.00  0.00    +0.000 C 
ATOM     16  C   UNL     1      -6.221  51.431  55.146  0.00  0.00    +0.000 C 
ATOM     17  C   UNL     1      -6.556  53.832  54.582  0.00  0.00    +0.000 C 
BRANCH   9  18
ATOM     18  C   UNL     1      -8.416  54.457  49.377  0.00  0.00    +0.000 C 
ATOM     19  O   UNL     1      -7.587  55.359  49.395  0.00  0.00    +0.000 OA
BRANCH  18  20
ATOM     20  O   UNL     1      -8.965  53.934  48.248  0.00  0.00    +0.000 OA
BRANCH  20  21
ATOM     21  C   UNL     1      -9.100  54.805  47.126  0.00  0.00    +0.000 C 
ATOM     22  C   UNL     1     -10.506  54.717  46.571  0.00  0.00    +0.000 C 
ENDBRANCH  20  21
ENDBRANCH  18  20
ENDBRANCH   9  18
ENDBRANCH   4   7
BRANCH   1  23
ATOM     23  S   UNL     1     -13.626  57.002  48.893  0.00  0.00    +0.000 S 
ATOM     24  O   UNL     1     -14.709  56.889  47.936  0.00  0.00    +0.000 OA
ATOM     25  O   UNL     1     -12.505  57.879  48.619  0.00  0.00    +0.000 OA
BRANCH  23  26
ATOM     26  C   UNL     1     -14.304  57.491  50.468  0.00  0.00    +0.000 A 
ATOM     27  C   UNL     1     -15.033  56.585  51.244  0.00  0.00    +0.000 A 
ATOM     28  C   UNL     1     -14.013  58.762  50.969  0.00  0.00    +0.000 A 
ATOM     29  C   UNL     1     -15.526  56.980  52.500  0.00  0.00    +0.000 A 
ATOM     30  C   UNL     1     -14.508  59.153  52.215  0.00  0.00    +0.000 A 
ATOM     31  C   UNL     1     -15.278  58.275  52.986  0.00  0.00    +0.000 A 
ATOM     32  C   UNL     1     -15.822  58.732  54.308  0.00  0.00    +0.000 C 
ENDBRANCH  23  26
ENDBRANCH   1  23
TORSDOF 6
ENDMDL
MODEL 7
REMARK VINA RESULT:      -6.5      3.247      8.790
REMARK  Name = 
REMARK  10 active torsions:
REMARK  status: ('A' for Active; 'I' for Inactive)
REMARK    1  A    between atoms: S_1  and  N_4
REMARK    2  A    between atoms: S_1  and  C_5
REMARK    3  A    between atoms: N_10  and  C_13
REMARK    4  A    between atoms: C_14  and  C_17
REMARK    5  A    between atoms: C_16  and  C_20
REMARK    6  A    between atoms: C_20  and  O_24
REMARK    7  A    between atoms: O_24  and  C_27
REMARK    8  A    between atoms: C_25  and  C_28
REMARK    9  A    between atoms: C_25  and  C_29
REMARK   10  A    between atoms: C_27  and  C_30
REMARK                            x       y       z     vdW  Elec       q    Type
REMARK                         _______ _______ _______ _____ _____    ______ ____
ROOT
ATOM      1  N   UNL     1     -11.356  56.619  49.372  0.00  0.00    +0.000 N 
ATOM      2  C   UNL     1     -10.401  55.631  49.149  0.00  0.00    +0.000 C 
ATOM      3  O   UNL     1     -10.717  54.489  48.854  0.00  0.00    +0.000 OA
ATOM      4  N   UNL     1      -9.085  56.018  49.399  0.00  0.00    +0.000 N 
ATOM      5  H   UNL     1     -11.048  57.518  49.627  0.00  0.00    +0.000 HD
ATOM      6  H   UNL     1      -8.864  56.941  49.663  0.00  0.00    +0.000 HD
ENDROOT
BRANCH   4   7
ATOM      7  C   UNL     1      -8.098  55.048  49.261  0.00  0.00    +0.000 A 
ATOM      8  S   UNL     1      -7.704  54.582  47.670  0.00  0.00    +0.000 S 
ATOM      9  C   UNL     1      -7.323  54.408  50.214  0.00  0.00    +0.000 A 
ATOM     10  C   UNL     1      -6.340  53.693  48.204  0.00  0.00    +0.000 A 
ATOM     11  C   UNL     1      -6.236  53.692  49.585  0.00  0.00    +0.000 A 
ATOM     12  C   UNL     1      -5.377  52.989  47.265  0.00  0.00    +0.000 C 
ATOM     13  C   UNL     1      -5.147  52.937  50.295  0.00  0.00    +0.000 C 
ATOM     14  C   UNL     1      -4.537  51.907  48.024  0.00  0.00    +0.000 C 
ATOM     15  C   UNL     1      -4.024  52.503  49.357  0.00  0.00    +0.000 C 
ATOM     16  C   UNL     1      -3.300  51.473  47.215  0.00  0.00    +0.000 C 
ATOM     17  C   UNL     1      -5.395  50.649  48.277  0.00  0.00    +0.000 C 
BRANCH   9  18
ATOM     18  C   UNL     1      -7.609  54.480  51.647  0.00  0.00    +0.000 C 
ATOM     19  O   UNL     1      -6.871  55.033  52.455  0.00  0.00    +0.000 OA
BRANCH  18  20
ATOM     20  O   UNL     1      -8.781  53.867  51.964  0.00  0.00    +0.000 OA
BRANCH  20  21
ATOM     21  C   UNL     1      -9.776  54.660  52.609  0.00  0.00    +0.000 C 
ATOM     22  C   UNL     1     -11.134  54.008  52.455  0.00  0.00    +0.000 C 
ENDBRANCH  20  21
ENDBRANCH  18  20
ENDBRANCH   9  18
ENDBRANCH   4   7
BRANCH   1  23
ATOM     23  S   UNL     1     -13.012  56.353  49.230  0.00  0.00    +0.000 S 
ATOM     24  O   UNL     1     -13.314  54.956  49.482  0.00  0.00    +0.000 OA
ATOM     25  O   UNL     1     -13.389  56.961  47.970  0.00  0.00    +0.000 OA
BRANCH  23  26
ATOM     26  C   UNL     1     -13.738  57.336  50.529  0.00  0.00    +0.000 A 
ATOM     27  C   UNL     1     -14.393  58.535  50.236  0.00  0.00    +0.000 A 
ATOM     28  C   UNL     1     -13.734  56.844  51.836  0.00  0.00    +0.000 A 
ATOM     29  C   UNL     1     -14.992  59.275  51.270  0.00  0.00    +0.000 A 
ATOM     30  C   UNL     1     -14.325  57.584  52.864  0.00  0.00    +0.000 A 
ATOM     31  C   UNL     1     -14.947  58.808  52.595  0.00  0.00    +0.000 A 
ATOM     32  C   UNL     1     -15.548  59.597  53.723  0.00  0.00    +0.000 C 
ENDBRANCH  23  26
ENDBRANCH   1  23
TORSDOF 6
ENDMDL
MODEL 8
REMARK VINA RESULT:      -6.4      2.959      4.514
REMARK  Name = 
REMARK  10 active torsions:
REMARK  status: ('A' for Active; 'I' for Inactive)
REMARK    1  A    between atoms: S_1  and  N_4
REMARK    2  A    between atoms: S_1  and  C_5
REMARK    3  A    between atoms: N_10  and  C_13
REMARK    4  A    between atoms: C_14  and  C_17
REMARK    5  A    between atoms: C_16  and  C_20
REMARK    6  A    between atoms: C_20  and  O_24
REMARK    7  A    between atoms: O_24  and  C_27
REMARK    8  A    between atoms: C_25  and  C_28
REMARK    9  A    between atoms: C_25  and  C_29
REMARK   10  A    between atoms: C_27  and  C_30
REMARK                            x       y       z     vdW  Elec       q    Type
REMARK                         _______ _______ _______ _____ _____    ______ ____
ROOT
ATOM      1  N   UNL     1      -9.021  53.072  47.461  0.00  0.00    +0.000 N 
ATOM      2  C   UNL     1      -9.692  54.147  48.038  0.00  0.00    +0.000 C 
ATOM      3  O   UNL     1      -9.153  55.233  48.187  0.00  0.00    +0.000 OA
ATOM      4  N   UNL     1     -10.962  53.852  48.529  0.00  0.00    +0.000 N 
ATOM      5  H   UNL     1      -9.495  52.214  47.382  0.00  0.00    +0.000 HD
ATOM      6  H   UNL     1     -11.360  52.958  48.418  0.00  0.00    +0.000 HD
ENDROOT
BRANCH   4   7
ATOM      7  C   UNL     1     -11.647  54.873  49.181  0.00  0.00    +0.000 A 
ATOM      8  S   UNL     1     -12.635  55.868  48.212  0.00  0.00    +0.000 S 
ATOM      9  C   UNL     1     -11.705  55.204  50.524  0.00  0.00    +0.000 A 
ATOM     10  C   UNL     1     -13.337  56.611  49.587  0.00  0.00    +0.000 A 
ATOM     11  C   UNL     1     -12.767  56.157  50.764  0.00  0.00    +0.000 A 
ATOM     12  C   UNL     1     -14.444  57.647  49.508  0.00  0.00    +0.000 C 
ATOM     13  C   UNL     1     -13.182  56.697  52.104  0.00  0.00    +0.000 C 
ATOM     14  C   UNL     1     -14.550  58.464  50.840  0.00  0.00    +0.000 C 
ATOM     15  C   UNL     1     -14.485  57.490  52.041  0.00  0.00    +0.000 C 
ATOM     16  C   UNL     1     -15.888  59.220  50.941  0.00  0.00    +0.000 C 
ATOM     17  C   UNL     1     -13.416  59.508  50.915  0.00  0.00    +0.000 C 
BRANCH   9  18
ATOM     18  C   UNL     1     -10.795  54.640  51.521  0.00  0.00    +0.000 C 
ATOM     19  O   UNL     1     -10.888  53.494  51.947  0.00  0.00    +0.000 OA
BRANCH  18  20
ATOM     20  O   UNL     1      -9.845  55.533  51.905  0.00  0.00    +0.000 OA
BRANCH  20  21
ATOM     21  C   UNL     1      -8.492  55.230  51.566  0.00  0.00    +0.000 C 
ATOM     22  C   UNL     1      -7.763  56.499  51.175  0.00  0.00    +0.000 C 
ENDBRANCH  20  21
ENDBRANCH  18  20
ENDBRANCH   9  18
ENDBRANCH   4   7
BRANCH   1  23
ATOM     23  S   UNL     1      -7.440  53.168  46.890  0.00  0.00    +0.000 S 
ATOM     24  O   UNL     1      -7.296  54.316  46.015  0.00  0.00    +0.000 OA
ATOM     25  O   UNL     1      -7.132  51.839  46.399  0.00  0.00    +0.000 OA
BRANCH  23  26
ATOM     26  C   UNL     1      -6.451  53.433  48.349  0.00  0.00    +0.000 A 
ATOM     27  C   UNL     1      -5.656  54.575  48.476  0.00  0.00    +0.000 A 
ATOM     28  C   UNL     1      -6.557  52.535  49.414  0.00  0.00    +0.000 A 
ATOM     29  C   UNL     1      -4.914  54.784  49.651  0.00  0.00    +0.000 A 
ATOM     30  C   UNL     1      -5.814  52.742  50.580  0.00  0.00    +0.000 A 
ATOM     31  C   UNL     1      -4.978  53.857  50.706  0.00  0.00    +0.000 A 
ATOM     32  C   UNL     1      -4.169  54.039  51.957  0.00  0.00    +0.000 C 
ENDBRANCH  23  26
ENDBRANCH   1  23
TORSDOF 6
ENDMDL
MODEL 9
REMARK VINA RESULT:      -5.9      3.843      6.521
REMARK  Name = 
REMARK  10 active torsions:
REMARK  status: ('A' for Active; 'I' for Inactive)
REMARK    1  A    between atoms: S_1  and  N_4
REMARK    2  A    between atoms: S_1  and  C_5
REMARK    3  A    between atoms: N_10  and  C_13
REMARK    4  A    between atoms: C_14  and  C_17
REMARK    5  A    between atoms: C_16  and  C_20
REMARK    6  A    between atoms: C_20  and  O_24
REMARK    7  A    between atoms: O_24  and  C_27
REMARK    8  A    between atoms: C_25  and  C_28
REMARK    9  A    between atoms: C_25  and  C_29
REMARK   10  A    between atoms: C_27  and  C_30
REMARK                            x       y       z     vdW  Elec       q    Type
REMARK                         _______ _______ _______ _____ _____    ______ ____
ROOT
ATOM      1  N   UNL     1     -10.855  56.187  48.980  0.00  0.00    +0.000 N 
ATOM      2  C   UNL     1      -9.896  55.355  49.550  0.00  0.00    +0.000 C 
ATOM      3  O   UNL     1     -10.107  54.167  49.737  0.00  0.00    +0.000 OA
ATOM      4  N   UNL     1      -8.742  56.002  49.988  0.00  0.00    +0.000 N 
ATOM      5  H   UNL     1     -10.641  57.140  48.870  0.00  0.00    +0.000 HD
ATOM      6  H   UNL     1      -8.612  56.969  49.848  0.00  0.00    +0.000 HD
ENDROOT
BRANCH   4   7
ATOM      7  C   UNL     1      -7.781  55.229  50.631  0.00  0.00    +0.000 A 
ATOM      8  S   UNL     1      -8.041  54.911  52.285  0.00  0.00    +0.000 S 
ATOM      9  C   UNL     1      -6.642  54.614  50.140  0.00  0.00    +0.000 A 
ATOM     10  C   UNL     1      -6.770  53.763  52.326  0.00  0.00    +0.000 A 
ATOM     11  C   UNL     1      -6.110  53.683  51.111  0.00  0.00    +0.000 A 
ATOM     12  C   UNL     1      -6.416  52.946  53.555  0.00  0.00    +0.000 C 
ATOM     13  C   UNL     1      -4.925  52.781  50.912  0.00  0.00    +0.000 C 
ATOM     14  C   UNL     1      -4.970  52.354  53.443  0.00  0.00    +0.000 C 
ATOM     15  C   UNL     1      -4.774  51.753  52.031  0.00  0.00    +0.000 C 
ATOM     16  C   UNL     1      -4.738  51.217  54.456  0.00  0.00    +0.000 C 
ATOM     17  C   UNL     1      -3.923  53.452  53.726  0.00  0.00    +0.000 C 
BRANCH   9  18
ATOM     18  C   UNL     1      -6.093  54.904  48.815  0.00  0.00    +0.000 C 
ATOM     19  O   UNL     1      -4.893  55.008  48.590  0.00  0.00    +0.000 OA
BRANCH  18  20
ATOM     20  O   UNL     1      -7.070  55.036  47.878  0.00  0.00    +0.000 OA
BRANCH  20  21
ATOM     21  C   UNL     1      -7.017  54.158  46.754  0.00  0.00    +0.000 C 
ATOM     22  C   UNL     1      -8.044  53.056  46.912  0.00  0.00    +0.000 C 
ENDBRANCH  20  21
ENDBRANCH  18  20
ENDBRANCH   9  18
ENDBRANCH   4   7
BRANCH   1  23
ATOM     23  S   UNL     1     -12.365  55.643  48.470  0.00  0.00    +0.000 S 
ATOM     24  O   UNL     1     -13.081  56.716  47.806  0.00  0.00    +0.000 OA
ATOM     25  O   UNL     1     -12.945  54.990  49.626  0.00  0.00    +0.000 OA
BRANCH  23  26
ATOM     26  C   UNL     1     -12.003  54.372  47.273  0.00  0.00    +0.000 A 
ATOM     27  C   UNL     1     -12.294  53.032  47.543  0.00  0.00    +0.000 A 
ATOM     28  C   UNL     1     -11.518  54.741  46.016  0.00  0.00    +0.000 A 
ATOM     29  C   UNL     1     -12.036  52.051  46.570  0.00  0.00    +0.000 A 
ATOM     30  C   UNL     1     -11.258  53.764  45.052  0.00  0.00    +0.000 A 
ATOM     31  C   UNL     1     -11.501  52.413  45.321  0.00  0.00    +0.000 A 
ATOM     32  C   UNL     1     -11.185  51.381  44.277  0.00  0.00    +0.000 C 
ENDBRANCH  23  26
ENDBRANCH   1  23
TORSDOF 6
ENDMDL
