MODEL 1
REMARK VINA RESULT:      -7.4      0.000      0.000
REMARK  Name = 
REMARK  10 active torsions:
REMARK  status: ('A' for Active; 'I' for Inactive)
REMARK    1  A    between atoms: S_1  and  N_4
REMARK    2  A    between atoms: S_1  and  C_5
REMARK    3  A    between atoms: N_10  and  C_13
REMARK    4  A    between atoms: C_14  and  C_17
REMARK    5  A    between atoms: C_16  and  C_20
REMARK    6  A    between atoms: C_20  and  O_24
REMARK    7  A    between atoms: O_24  and  C_27
REMARK    8  A    between atoms: C_25  and  C_28
REMARK    9  A    between atoms: C_25  and  C_29
REMARK   10  A    between atoms: C_27  and  C_30
REMARK                            x       y       z     vdW  Elec       q    Type
REMARK                         _______ _______ _______ _____ _____    ______ ____
ROOT
ATOM      1  N   UNL     1      -9.598  51.809  48.801  0.00  0.00    +0.000 N 
ATOM      2  C   UNL     1     -10.637  52.713  49.126  0.00  0.00    +0.000 C 
ATOM      3  O   UNL     1     -11.762  52.573  48.654  0.00  0.00    +0.000 OA
ATOM      4  N   UNL     1     -10.278  53.795  49.918  0.00  0.00    +0.000 N 
ATOM      5  H   UNL     1      -8.697  51.977  49.162  0.00  0.00    +0.000 HD
ATOM      6  H   UNL     1      -9.369  53.887  50.284  0.00  0.00    +0.000 HD
ENDROOT
BRANCH   4   7
ATOM      7  C   UNL     1     -11.268  54.747  50.171  0.00  0.00    +0.000 A 
ATOM      8  S   UNL     1     -11.951  54.775  51.741  0.00  0.00    +0.000 S 
ATOM      9  C   UNL     1     -11.799  55.728  49.353  0.00  0.00    +0.000 A 
ATOM     10  C   UNL     1     -12.803  56.230  51.417  0.00  0.00    +0.000 A 
ATOM     11  C   UNL     1     -12.609  56.647  50.108  0.00  0.00    +0.000 A 
ATOM     12  C   UNL     1     -13.672  56.955  52.435  0.00  0.00    +0.000 C 
ATOM     13  C   UNL     1     -13.290  57.874  49.565  0.00  0.00    +0.000 C 
ATOM     14  C   UNL     1     -14.657  57.955  51.730  0.00  0.00    +0.000 C 
ATOM     15  C   UNL     1     -13.885  58.758  50.656  0.00  0.00    +0.000 C 
ATOM     16  C   UNL     1     -15.247  58.986  52.713  0.00  0.00    +0.000 C 
ATOM     17  C   UNL     1     -15.839  57.188  51.101  0.00  0.00    +0.000 C 
BRANCH   9  18
ATOM     18  C   UNL     1     -11.555  55.775  47.915  0.00  0.00    +0.000 C 
ATOM     19  O   UNL     1     -12.445  55.856  47.075  0.00  0.00    +0.000 OA
BRANCH  18  20
ATOM     20  O   UNL     1     -10.226  55.715  47.628  0.00  0.00    +0.000 OA
BRANCH  20  21
ATOM     21  C   UNL     1      -9.851  54.998  46.451  0.00  0.00    +0.000 C 
ATOM     22  C   UNL     1      -8.344  54.892  46.375  0.00  0.00    +0.000 C 
ENDBRANCH  20  21
ENDBRANCH  18  20
ENDBRANCH   9  18
ENDBRANCH   4   7
BRANCH   1  23
ATOM     23  S   UNL     1      -9.833  50.466  47.827  0.00  0.00    +0.000 S 
ATOM     24  O   UNL     1     -11.167  49.946  48.021  0.00  0.00    +0.000 OA
ATOM     25  O   UNL     1      -8.681  49.611  48.040  0.00  0.00    +0.000 OA
BRANCH  23  26
ATOM     26  C   UNL     1      -9.713  51.086  46.139  0.00  0.00    +0.000 A 
ATOM     27  C   UNL     1     -10.849  51.516  45.427  0.00  0.00    +0.000 A 
ATOM     28  C   UNL     1      -8.448  51.243  45.585  0.00  0.00    +0.000 A 
ATOM     29  C   UNL     1     -10.687  52.028  44.132  0.00  0.00    +0.000 A 
ATOM     30  C   UNL     1      -8.296  51.751  44.294  0.00  0.00    +0.000 A 
ATOM     31  C   UNL     1      -9.421  52.133  43.552  0.00  0.00    +0.000 A 
ATOM     32  C   UNL     1      -9.233  52.650  42.147  0.00  0.00    +0.000 C 
ENDBRANCH  23  26
ENDBRANCH   1  23
TORSDOF 6
ENDMDL
MODEL 2
REMARK VINA RESULT:      -7.2      1.839      2.643
REMARK  Name = 
REMARK  10 active torsions:
REMARK  status: ('A' for Active; 'I' for Inactive)
REMARK    1  A    between atoms: S_1  and  N_4
REMARK    2  A    between atoms: S_1  and  C_5
REMARK    3  A    between atoms: N_10  and  C_13
REMARK    4  A    between atoms: C_14  and  C_17
REMARK    5  A    between atoms: C_16  and  C_20
REMARK    6  A    between atoms: C_20  and  O_24
REMARK    7  A    between atoms: O_24  and  C_27
REMARK    8  A    between atoms: C_25  and  C_28
REMARK    9  A    between atoms: C_25  and  C_29
REMARK   10  A    between atoms: C_27  and  C_30
REMARK                            x       y       z     vdW  Elec       q    Type
REMARK                         _______ _______ _______ _____ _____    ______ ____
ROOT
ATOM      1  N   UNL     1      -8.047  53.240  49.546  0.00  0.00    +0.000 N 
ATOM      2  C   UNL     1      -9.172  54.088  49.672  0.00  0.00    +0.000 C 
ATOM      3  O   UNL     1      -9.208  55.175  49.101  0.00  0.00    +0.000 OA
ATOM      4  N   UNL     1     -10.165  53.657  50.542  0.00  0.00    +0.000 N 
ATOM      5  H   UNL     1      -8.034  52.396  50.052  0.00  0.00    +0.000 HD
ATOM      6  H   UNL     1     -10.114  52.782  50.990  0.00  0.00    +0.000 HD
ENDROOT
BRANCH   4   7
ATOM      7  C   UNL     1     -11.240  54.525  50.752  0.00  0.00    +0.000 A 
ATOM      8  S   UNL     1     -11.390  55.230  52.305  0.00  0.00    +0.000 S 
ATOM      9  C   UNL     1     -12.229  54.953  49.886  0.00  0.00    +0.000 A 
ATOM     10  C   UNL     1     -12.644  56.279  51.780  0.00  0.00    +0.000 A 
ATOM     11  C   UNL     1     -12.977  56.044  50.453  0.00  0.00    +0.000 A 
ATOM     12  C   UNL     1     -13.314  57.319  52.667  0.00  0.00    +0.000 C 
ATOM     13  C   UNL     1     -14.083  56.804  49.773  0.00  0.00    +0.000 C 
ATOM     14  C   UNL     1     -14.691  57.777  52.063  0.00  0.00    +0.000 C 
ATOM     15  C   UNL     1     -14.519  58.042  50.549  0.00  0.00    +0.000 C 
ATOM     16  C   UNL     1     -15.194  59.093  52.688  0.00  0.00    +0.000 C 
ATOM     17  C   UNL     1     -15.770  56.703  52.317  0.00  0.00    +0.000 C 
BRANCH   9  18
ATOM     18  C   UNL     1     -12.460  54.336  48.583  0.00  0.00    +0.000 C 
ATOM     19  O   UNL     1     -12.578  53.127  48.413  0.00  0.00    +0.000 OA
BRANCH  18  20
ATOM     20  O   UNL     1     -12.525  55.264  47.591  0.00  0.00    +0.000 OA
BRANCH  20  21
ATOM     21  C   UNL     1     -11.424  55.317  46.683  0.00  0.00    +0.000 C 
ATOM     22  C   UNL     1     -11.650  54.347  45.545  0.00  0.00    +0.000 C 
ENDBRANCH  20  21
ENDBRANCH  18  20
ENDBRANCH   9  18
ENDBRANCH   4   7
BRANCH   1  23
ATOM     23  S   UNL     1      -6.734  53.610  48.571  0.00  0.00    +0.000 S 
ATOM     24  O   UNL     1      -5.666  52.666  48.805  0.00  0.00    +0.000 OA
ATOM     25  O   UNL     1      -6.500  55.031  48.741  0.00  0.00    +0.000 OA
BRANCH  23  26
ATOM     26  C   UNL     1      -7.326  53.380  46.885  0.00  0.00    +0.000 A 
ATOM     27  C   UNL     1      -7.674  52.109  46.390  0.00  0.00    +0.000 A 
ATOM     28  C   UNL     1      -7.547  54.510  46.105  0.00  0.00    +0.000 A 
ATOM     29  C   UNL     1      -8.169  51.999  45.083  0.00  0.00    +0.000 A 
ATOM     30  C   UNL     1      -8.036  54.391  44.804  0.00  0.00    +0.000 A 
ATOM     31  C   UNL     1      -8.336  53.128  44.278  0.00  0.00    +0.000 A 
ATOM     32  C   UNL     1      -8.834  53.024  42.858  0.00  0.00    +0.000 C 
ENDBRANCH  23  26
ENDBRANCH   1  23
TORSDOF 6
ENDMDL
MODEL 3
REMARK VINA RESULT:      -7.1      3.508      5.006
REMARK  Name = 
REMARK  10 active torsions:
REMARK  status: ('A' for Active; 'I' for Inactive)
REMARK    1  A    between atoms: S_1  and  N_4
REMARK    2  A    between atoms: S_1  and  C_5
REMARK    3  A    between atoms: N_10  and  C_13
REMARK    4  A    between atoms: C_14  and  C_17
REMARK    5  A    between atoms: C_16  and  C_20
REMARK    6  A    between atoms: C_20  and  O_24
REMARK    7  A    between atoms: O_24  and  C_27
REMARK    8  A    between atoms: C_25  and  C_28
REMARK    9  A    between atoms: C_25  and  C_29
REMARK   10  A    between atoms: C_27  and  C_30
REMARK                            x       y       z     vdW  Elec       q    Type
REMARK                         _______ _______ _______ _____ _____    ______ ____
ROOT
ATOM      1  N   UNL     1      -8.079  53.255  48.976  0.00  0.00    +0.000 N 
ATOM      2  C   UNL     1      -9.105  54.196  49.227  0.00  0.00    +0.000 C 
ATOM      3  O   UNL     1      -8.857  55.398  49.278  0.00  0.00    +0.000 OA
ATOM      4  N   UNL     1     -10.361  53.670  49.500  0.00  0.00    +0.000 N 
ATOM      5  H   UNL     1      -8.306  52.297  48.985  0.00  0.00    +0.000 HD
ATOM      6  H   UNL     1     -10.536  52.703  49.454  0.00  0.00    +0.000 HD
ENDROOT
BRANCH   4   7
ATOM      7  C   UNL     1     -11.365  54.580  49.843  0.00  0.00    +0.000 A 
ATOM      8  S   UNL     1     -11.726  54.763  51.506  0.00  0.00    +0.000 S 
ATOM      9  C   UNL     1     -12.132  55.411  49.047  0.00  0.00    +0.000 A 
ATOM     10  C   UNL     1     -12.753  56.105  51.204  0.00  0.00    +0.000 A 
ATOM     11  C   UNL     1     -12.858  56.363  49.844  0.00  0.00    +0.000 A 
ATOM     12  C   UNL     1     -13.468  56.895  52.291  0.00  0.00    +0.000 C 
ATOM     13  C   UNL     1     -13.740  57.463  49.319  0.00  0.00    +0.000 C 
ATOM     14  C   UNL     1     -14.658  57.730  51.695  0.00  0.00    +0.000 C 
ATOM     15  C   UNL     1     -14.187  58.438  50.403  0.00  0.00    +0.000 C 
ATOM     16  C   UNL     1     -15.135  58.837  52.657  0.00  0.00    +0.000 C 
ATOM     17  C   UNL     1     -15.867  56.813  51.412  0.00  0.00    +0.000 C 
BRANCH   9  18
ATOM     18  C   UNL     1     -12.179  55.290  47.593  0.00  0.00    +0.000 C 
ATOM     19  O   UNL     1     -12.298  56.244  46.833  0.00  0.00    +0.000 OA
BRANCH  18  20
ATOM     20  O   UNL     1     -12.076  53.993  47.193  0.00  0.00    +0.000 OA
BRANCH  20  21
ATOM     21  C   UNL     1     -11.677  53.764  45.841  0.00  0.00    +0.000 C 
ATOM     22  C   UNL     1     -10.168  53.794  45.741  0.00  0.00    +0.000 C 
ENDBRANCH  20  21
ENDBRANCH  18  20
ENDBRANCH   9  18
ENDBRANCH   4   7
BRANCH   1  23
ATOM     23  S   UNL     1      -6.494  53.700  48.663  0.00  0.00    +0.000 S 
ATOM     24  O   UNL     1      -6.468  54.944  47.928  0.00  0.00    +0.000 OA
ATOM     25  O   UNL     1      -5.848  52.521  48.120  0.00  0.00    +0.000 OA
BRANCH  23  26
ATOM     26  C   UNL     1      -5.762  53.992  50.283  0.00  0.00    +0.000 A 
ATOM     27  C   UNL     1      -6.517  54.511  51.353  0.00  0.00    +0.000 A 
ATOM     28  C   UNL     1      -4.451  53.581  50.497  0.00  0.00    +0.000 A 
ATOM     29  C   UNL     1      -5.902  54.677  52.602  0.00  0.00    +0.000 A 
ATOM     30  C   UNL     1      -3.847  53.752  51.742  0.00  0.00    +0.000 A 
ATOM     31  C   UNL     1      -4.568  54.318  52.802  0.00  0.00    +0.000 A 
ATOM     32  C   UNL     1      -3.882  54.521  54.130  0.00  0.00    +0.000 C 
ENDBRANCH  23  26
ENDBRANCH   1  23
TORSDOF 6
ENDMDL
MODEL 4
REMARK VINA RESULT:      -6.9      3.657      7.633
REMARK  Name = 
REMARK  10 active torsions:
REMARK  status: ('A' for Active; 'I' for Inactive)
REMARK    1  A    between atoms: S_1  and  N_4
REMARK    2  A    between atoms: S_1  and  C_5
REMARK    3  A    between atoms: N_10  and  C_13
REMARK    4  A    between atoms: C_14  and  C_17
REMARK    5  A    between atoms: C_16  and  C_20
REMARK    6  A    between atoms: C_20  and  O_24
REMARK    7  A    between atoms: O_24  and  C_27
REMARK    8  A    between atoms: C_25  and  C_28
REMARK    9  A    between atoms: C_25  and  C_29
REMARK   10  A    between atoms: C_27  and  C_30
REMARK                            x       y       z     vdW  Elec       q    Type
REMARK                         _______ _______ _______ _____ _____    ______ ____
ROOT
ATOM      1  N   UNL     1     -14.532  55.033  51.163  0.00  0.00    +0.000 N 
ATOM      2  C   UNL     1     -13.181  55.109  51.579  0.00  0.00    +0.000 C 
ATOM      3  O   UNL     1     -12.729  56.143  52.062  0.00  0.00    +0.000 OA
ATOM      4  N   UNL     1     -12.401  53.990  51.319  0.00  0.00    +0.000 N 
ATOM      5  H   UNL     1     -14.849  54.203  50.740  0.00  0.00    +0.000 HD
ATOM      6  H   UNL     1     -12.785  53.172  50.930  0.00  0.00    +0.000 HD
ENDROOT
BRANCH   4   7
ATOM      7  C   UNL     1     -11.043  54.081  51.637  0.00  0.00    +0.000 A 
ATOM      8  S   UNL     1     -10.543  53.440  53.143  0.00  0.00    +0.000 S 
ATOM      9  C   UNL     1      -9.985  54.595  50.910  0.00  0.00    +0.000 A 
ATOM     10  C   UNL     1      -8.883  53.642  52.754  0.00  0.00    +0.000 A 
ATOM     11  C   UNL     1      -8.726  54.246  51.514  0.00  0.00    +0.000 A 
ATOM     12  C   UNL     1      -7.735  53.227  53.663  0.00  0.00    +0.000 C 
ATOM     13  C   UNL     1      -7.364  54.575  50.966  0.00  0.00    +0.000 C 
ATOM     14  C   UNL     1      -6.399  53.944  53.253  0.00  0.00    +0.000 C 
ATOM     15  C   UNL     1      -6.235  53.877  51.716  0.00  0.00    +0.000 C 
ATOM     16  C   UNL     1      -5.158  53.259  53.860  0.00  0.00    +0.000 C 
ATOM     17  C   UNL     1      -6.404  55.407  53.744  0.00  0.00    +0.000 C 
BRANCH   9  18
ATOM     18  C   UNL     1     -10.170  55.395  49.703  0.00  0.00    +0.000 C 
ATOM     19  O   UNL     1      -9.836  56.571  49.608  0.00  0.00    +0.000 OA
BRANCH  18  20
ATOM     20  O   UNL     1     -10.756  54.677  48.708  0.00  0.00    +0.000 OA
BRANCH  20  21
ATOM     21  C   UNL     1     -11.881  55.270  48.060  0.00  0.00    +0.000 C 
ATOM     22  C   UNL     1     -11.539  55.578  46.619  0.00  0.00    +0.000 C 
ENDBRANCH  20  21
ENDBRANCH  18  20
ENDBRANCH   9  18
ENDBRANCH   4   7
BRANCH   1  23
ATOM     23  S   UNL     1     -15.615  56.297  51.359  0.00  0.00    +0.000 S 
ATOM     24  O   UNL     1     -15.857  56.524  52.765  0.00  0.00    +0.000 OA
ATOM     25  O   UNL     1     -16.722  56.016  50.466  0.00  0.00    +0.000 OA
BRANCH  23  26
ATOM     26  C   UNL     1     -14.769  57.744  50.696  0.00  0.00    +0.000 A 
ATOM     27  C   UNL     1     -14.318  57.791  49.363  0.00  0.00    +0.000 A 
ATOM     28  C   UNL     1     -14.670  58.874  51.501  0.00  0.00    +0.000 A 
ATOM     29  C   UNL     1     -13.704  58.961  48.893  0.00  0.00    +0.000 A 
ATOM     30  C   UNL     1     -14.055  60.032  51.026  0.00  0.00    +0.000 A 
ATOM     31  C   UNL     1     -13.552  60.077  49.719  0.00  0.00    +0.000 A 
ATOM     32  C   UNL     1     -12.864  61.330  49.239  0.00  0.00    +0.000 C 
ENDBRANCH  23  26
ENDBRANCH   1  23
TORSDOF 6
ENDMDL
MODEL 5
REMARK VINA RESULT:      -6.8      3.841      7.681
REMARK  Name = 
REMARK  10 active torsions:
REMARK  status: ('A' for Active; 'I' for Inactive)
REMARK    1  A    between atoms: S_1  and  N_4
REMARK    2  A    between atoms: S_1  and  C_5
REMARK    3  A    between atoms: N_10  and  C_13
REMARK    4  A    between atoms: C_14  and  C_17
REMARK    5  A    between atoms: C_16  and  C_20
REMARK    6  A    between atoms: C_20  and  O_24
REMARK    7  A    between atoms: O_24  and  C_27
REMARK    8  A    between atoms: C_25  and  C_28
REMARK    9  A    between atoms: C_25  and  C_29
REMARK   10  A    between atoms: C_27  and  C_30
REMARK                            x       y       z     vdW  Elec       q    Type
REMARK                         _______ _______ _______ _____ _____    ______ ____
ROOT
ATOM      1  N   UNL     1      -7.872  55.958  50.667  0.00  0.00    +0.000 N 
ATOM      2  C   UNL     1      -8.363  55.155  49.610  0.00  0.00    +0.000 C 
ATOM      3  O   UNL     1      -8.680  53.984  49.804  0.00  0.00    +0.000 OA
ATOM      4  N   UNL     1      -8.368  55.741  48.351  0.00  0.00    +0.000 N 
ATOM      5  H   UNL     1      -7.586  56.878  50.466  0.00  0.00    +0.000 HD
ATOM      6  H   UNL     1      -8.109  56.682  48.219  0.00  0.00    +0.000 HD
ENDROOT
BRANCH   4   7
ATOM      7  C   UNL     1      -8.760  54.933  47.281  0.00  0.00    +0.000 A 
ATOM      8  S   UNL     1      -7.534  54.065  46.461  0.00  0.00    +0.000 S 
ATOM      9  C   UNL     1     -10.016  54.681  46.761  0.00  0.00    +0.000 A 
ATOM     10  C   UNL     1      -8.683  53.177  45.545  0.00  0.00    +0.000 A 
ATOM     11  C   UNL     1      -9.978  53.587  45.827  0.00  0.00    +0.000 A 
ATOM     12  C   UNL     1      -8.320  52.090  44.542  0.00  0.00    +0.000 C 
ATOM     13  C   UNL     1     -11.164  52.992  45.116  0.00  0.00    +0.000 C 
ATOM     14  C   UNL     1      -9.512  51.805  43.560  0.00  0.00    +0.000 C 
ATOM     15  C   UNL     1     -10.827  51.707  44.369  0.00  0.00    +0.000 C 
ATOM     16  C   UNL     1      -9.349  50.464  42.817  0.00  0.00    +0.000 C 
ATOM     17  C   UNL     1      -9.604  52.915  42.492  0.00  0.00    +0.000 C 
BRANCH   9  18
ATOM     18  C   UNL     1     -11.195  55.460  47.129  0.00  0.00    +0.000 C 
ATOM     19  O   UNL     1     -11.857  56.113  46.329  0.00  0.00    +0.000 OA
BRANCH  18  20
ATOM     20  O   UNL     1     -11.461  55.371  48.460  0.00  0.00    +0.000 OA
BRANCH  20  21
ATOM     21  C   UNL     1     -12.271  54.275  48.884  0.00  0.00    +0.000 C 
ATOM     22  C   UNL     1     -12.086  54.045  50.368  0.00  0.00    +0.000 C 
ENDBRANCH  20  21
ENDBRANCH  18  20
ENDBRANCH   9  18
ENDBRANCH   4   7
BRANCH   1  23
ATOM     23  S   UNL     1      -7.756  55.409  52.246  0.00  0.00    +0.000 S 
ATOM     24  O   UNL     1      -9.030  54.883  52.679  0.00  0.00    +0.000 OA
ATOM     25  O   UNL     1      -7.118  56.476  52.994  0.00  0.00    +0.000 OA
BRANCH  23  26
ATOM     26  C   UNL     1      -6.580  54.046  52.182  0.00  0.00    +0.000 A 
ATOM     27  C   UNL     1      -5.291  54.206  51.637  0.00  0.00    +0.000 A 
ATOM     28  C   UNL     1      -6.928  52.847  52.794  0.00  0.00    +0.000 A 
ATOM     29  C   UNL     1      -4.406  53.119  51.654  0.00  0.00    +0.000 A 
ATOM     30  C   UNL     1      -6.042  51.770  52.803  0.00  0.00    +0.000 A 
ATOM     31  C   UNL     1      -4.776  51.896  52.216  0.00  0.00    +0.000 A 
ATOM     32  C   UNL     1      -3.847  50.707  52.212  0.00  0.00    +0.000 C 
ENDBRANCH  23  26
ENDBRANCH   1  23
TORSDOF 6
ENDMDL
MODEL 6
REMARK VINA RESULT:      -6.7      3.615      8.107
REMARK  Name = 
REMARK  10 active torsions:
REMARK  status: ('A' for Active; 'I' for Inactive)
REMARK    1  A    between atoms: S_1  and  N_4
REMARK    2  A    between atoms: S_1  and  C_5
REMARK    3  A    between atoms: N_10  and  C_13
REMARK    4  A    between atoms: C_14  and  C_17
REMARK    5  A    between atoms: C_16  and  C_20
REMARK    6  A    between atoms: C_20  and  O_24
REMARK    7  A    between atoms: O_24  and  C_27
REMARK    8  A    between atoms: C_25  and  C_28
REMARK    9  A    between atoms: C_25  and  C_29
REMARK   10  A    between atoms: C_27  and  C_30
REMARK                            x       y       z     vdW  Elec       q    Type
REMARK                         _______ _______ _______ _____ _____    ______ ____
ROOT
ATOM      1  N   UNL     1     -12.952  55.314  49.297  0.00  0.00    +0.000 N 
ATOM      2  C   UNL     1     -11.889  55.018  50.184  0.00  0.00    +0.000 C 
ATOM      3  O   UNL     1     -11.282  55.916  50.760  0.00  0.00    +0.000 OA
ATOM      4  N   UNL     1     -11.530  53.680  50.279  0.00  0.00    +0.000 N 
ATOM      5  H   UNL     1     -13.388  54.571  48.820  0.00  0.00    +0.000 HD
ATOM      6  H   UNL     1     -12.031  52.976  49.807  0.00  0.00    +0.000 HD
ENDROOT
BRANCH   4   7
ATOM      7  C   UNL     1     -10.423  53.379  51.076  0.00  0.00    +0.000 A 
ATOM      8  S   UNL     1     -10.710  53.063  52.734  0.00  0.00    +0.000 S 
ATOM      9  C   UNL     1      -9.085  53.263  50.746  0.00  0.00    +0.000 A 
ATOM     10  C   UNL     1      -9.089  52.555  52.986  0.00  0.00    +0.000 A 
ATOM     11  C   UNL     1      -8.334  52.686  51.829  0.00  0.00    +0.000 A 
ATOM     12  C   UNL     1      -8.551  52.044  54.315  0.00  0.00    +0.000 C 
ATOM     13  C   UNL     1      -6.867  52.350  51.805  0.00  0.00    +0.000 C 
ATOM     14  C   UNL     1      -6.981  52.103  54.352  0.00  0.00    +0.000 C 
ATOM     15  C   UNL     1      -6.420  51.548  53.022  0.00  0.00    +0.000 C 
ATOM     16  C   UNL     1      -6.390  51.233  55.479  0.00  0.00    +0.000 C 
ATOM     17  C   UNL     1      -6.505  53.551  54.590  0.00  0.00    +0.000 C 
BRANCH   9  18
ATOM     18  C   UNL     1      -8.548  53.698  49.460  0.00  0.00    +0.000 C 
ATOM     19  O   UNL     1      -8.195  52.928  48.573  0.00  0.00    +0.000 OA
BRANCH  18  20
ATOM     20  O   UNL     1      -8.489  55.055  49.373  0.00  0.00    +0.000 OA
BRANCH  20  21
ATOM     21  C   UNL     1      -7.305  55.683  49.863  0.00  0.00    +0.000 C 
ATOM     22  C   UNL     1      -7.663  56.677  50.945  0.00  0.00    +0.000 C 
ENDBRANCH  20  21
ENDBRANCH  18  20
ENDBRANCH   9  18
ENDBRANCH   4   7
BRANCH   1  23
ATOM     23  S   UNL     1     -13.500  56.874  49.025  0.00  0.00    +0.000 S 
ATOM     24  O   UNL     1     -14.539  56.862  48.022  0.00  0.00    +0.000 OA
ATOM     25  O   UNL     1     -12.314  57.686  48.835  0.00  0.00    +0.000 OA
BRANCH  23  26
ATOM     26  C   UNL     1     -14.236  57.389  50.587  0.00  0.00    +0.000 A 
ATOM     27  C   UNL     1     -14.917  56.480  51.419  0.00  0.00    +0.000 A 
ATOM     28  C   UNL     1     -14.017  58.693  51.019  0.00  0.00    +0.000 A 
ATOM     29  C   UNL     1     -15.432  56.932  52.643  0.00  0.00    +0.000 A 
ATOM     30  C   UNL     1     -14.536  59.134  52.236  0.00  0.00    +0.000 A 
ATOM     31  C   UNL     1     -15.262  58.257  53.051  0.00  0.00    +0.000 A 
ATOM     32  C   UNL     1     -15.839  58.767  54.348  0.00  0.00    +0.000 C 
ENDBRANCH  23  26
ENDBRANCH   1  23
TORSDOF 6
ENDMDL
MODEL 7
REMARK VINA RESULT:      -6.7      3.703      8.252
REMARK  Name = 
REMARK  10 active torsions:
REMARK  status: ('A' for Active; 'I' for Inactive)
REMARK    1  A    between atoms: S_1  and  N_4
REMARK    2  A    between atoms: S_1  and  C_5
REMARK    3  A    between atoms: N_10  and  C_13
REMARK    4  A    between atoms: C_14  and  C_17
REMARK    5  A    between atoms: C_16  and  C_20
REMARK    6  A    between atoms: C_20  and  O_24
REMARK    7  A    between atoms: O_24  and  C_27
REMARK    8  A    between atoms: C_25  and  C_28
REMARK    9  A    between atoms: C_25  and  C_29
REMARK   10  A    between atoms: C_27  and  C_30
REMARK                            x       y       z     vdW  Elec       q    Type
REMARK                         _______ _______ _______ _____ _____    ______ ____
ROOT
ATOM      1  N   UNL     1     -11.707  56.828  49.154  0.00  0.00    +0.000 N 
ATOM      2  C   UNL     1     -10.681  55.971  49.618  0.00  0.00    +0.000 C 
ATOM      3  O   UNL     1     -10.948  54.880  50.112  0.00  0.00    +0.000 OA
ATOM      4  N   UNL     1      -9.390  56.482  49.565  0.00  0.00    +0.000 N 
ATOM      5  H   UNL     1     -11.458  57.714  48.804  0.00  0.00    +0.000 HD
ATOM      6  H   UNL     1      -9.200  57.361  49.165  0.00  0.00    +0.000 HD
ENDROOT
BRANCH   4   7
ATOM      7  C   UNL     1      -8.375  55.688  50.106  0.00  0.00    +0.000 A 
ATOM      8  S   UNL     1      -8.016  55.894  51.767  0.00  0.00    +0.000 S 
ATOM      9  C   UNL     1      -7.594  54.708  49.520  0.00  0.00    +0.000 A 
ATOM     10  C   UNL     1      -6.970  54.533  51.777  0.00  0.00    +0.000 A 
ATOM     11  C   UNL     1      -6.857  53.973  50.512  0.00  0.00    +0.000 A 
ATOM     12  C   UNL     1      -6.247  54.021  53.016  0.00  0.00    +0.000 C 
ATOM     13  C   UNL     1      -5.959  52.795  50.251  0.00  0.00    +0.000 C 
ATOM     14  C   UNL     1      -5.044  53.089  52.625  0.00  0.00    +0.000 C 
ATOM     15  C   UNL     1      -5.502  52.099  51.528  0.00  0.00    +0.000 C 
ATOM     16  C   UNL     1      -4.555  52.237  53.814  0.00  0.00    +0.000 C 
ATOM     17  C   UNL     1      -3.848  53.935  52.141  0.00  0.00    +0.000 C 
BRANCH   9  18
ATOM     18  C   UNL     1      -7.544  54.497  48.076  0.00  0.00    +0.000 C 
ATOM     19  O   UNL     1      -6.519  54.589  47.409  0.00  0.00    +0.000 OA
BRANCH  18  20
ATOM     20  O   UNL     1      -8.769  54.189  47.570  0.00  0.00    +0.000 OA
BRANCH  20  21
ATOM     21  C   UNL     1      -9.226  52.849  47.756  0.00  0.00    +0.000 C 
ATOM     22  C   UNL     1      -8.335  51.893  46.992  0.00  0.00    +0.000 C 
ENDBRANCH  20  21
ENDBRANCH  18  20
ENDBRANCH   9  18
ENDBRANCH   4   7
BRANCH   1  23
ATOM     23  S   UNL     1     -13.327  56.399  49.175  0.00  0.00    +0.000 S 
ATOM     24  O   UNL     1     -13.459  54.991  49.467  0.00  0.00    +0.000 OA
ATOM     25  O   UNL     1     -13.900  56.948  47.961  0.00  0.00    +0.000 OA
BRANCH  23  26
ATOM     26  C   UNL     1     -14.037  57.325  50.547  0.00  0.00    +0.000 A 
ATOM     27  C   UNL     1     -13.985  56.844  51.870  0.00  0.00    +0.000 A 
ATOM     28  C   UNL     1     -14.543  58.595  50.292  0.00  0.00    +0.000 A 
ATOM     29  C   UNL     1     -14.518  57.630  52.901  0.00  0.00    +0.000 A 
ATOM     30  C   UNL     1     -15.074  59.369  51.325  0.00  0.00    +0.000 A 
ATOM     31  C   UNL     1     -15.079  58.881  52.638  0.00  0.00    +0.000 A 
ATOM     32  C   UNL     1     -15.687  59.724  53.731  0.00  0.00    +0.000 C 
ENDBRANCH  23  26
ENDBRANCH   1  23
TORSDOF 6
ENDMDL
MODEL 8
REMARK VINA RESULT:      -6.6      3.687      5.596
REMARK  Name = 
REMARK  10 active torsions:
REMARK  status: ('A' for Active; 'I' for Inactive)
REMARK    1  A    between atoms: S_1  and  N_4
REMARK    2  A    between atoms: S_1  and  C_5
REMARK    3  A    between atoms: N_10  and  C_13
REMARK    4  A    between atoms: C_14  and  C_17
REMARK    5  A    between atoms: C_16  and  C_20
REMARK    6  A    between atoms: C_20  and  O_24
REMARK    7  A    between atoms: O_24  and  C_27
REMARK    8  A    between atoms: C_25  and  C_28
REMARK    9  A    between atoms: C_25  and  C_29
REMARK   10  A    between atoms: C_27  and  C_30
REMARK                            x       y       z     vdW  Elec       q    Type
REMARK                         _______ _______ _______ _____ _____    ______ ____
ROOT
ATOM      1  N   UNL     1      -8.117  53.268  50.460  0.00  0.00    +0.000 N 
ATOM      2  C   UNL     1      -9.141  54.204  50.739  0.00  0.00    +0.000 C 
ATOM      3  O   UNL     1      -9.042  54.981  51.684  0.00  0.00    +0.000 OA
ATOM      4  N   UNL     1     -10.279  54.116  49.947  0.00  0.00    +0.000 N 
ATOM      5  H   UNL     1      -8.250  52.630  49.721  0.00  0.00    +0.000 HD
ATOM      6  H   UNL     1     -10.336  53.484  49.195  0.00  0.00    +0.000 HD
ENDROOT
BRANCH   4   7
ATOM      7  C   UNL     1     -11.338  54.969  50.269  0.00  0.00    +0.000 A 
ATOM      8  S   UNL     1     -11.715  55.163  51.928  0.00  0.00    +0.000 S 
ATOM      9  C   UNL     1     -12.153  55.734  49.454  0.00  0.00    +0.000 A 
ATOM     10  C   UNL     1     -12.822  56.432  51.595  0.00  0.00    +0.000 A 
ATOM     11  C   UNL     1     -12.939  56.656  50.230  0.00  0.00    +0.000 A 
ATOM     12  C   UNL     1     -13.588  57.199  52.664  0.00  0.00    +0.000 C 
ATOM     13  C   UNL     1     -13.886  57.687  49.680  0.00  0.00    +0.000 C 
ATOM     14  C   UNL     1     -14.826  57.946  52.049  0.00  0.00    +0.000 C 
ATOM     15  C   UNL     1     -14.396  58.655  50.743  0.00  0.00    +0.000 C 
ATOM     16  C   UNL     1     -15.374  59.041  52.986  0.00  0.00    +0.000 C 
ATOM     17  C   UNL     1     -15.975  56.950  51.783  0.00  0.00    +0.000 C 
BRANCH   9  18
ATOM     18  C   UNL     1     -12.188  55.579  48.003  0.00  0.00    +0.000 C 
ATOM     19  O   UNL     1     -12.548  56.462  47.232  0.00  0.00    +0.000 OA
BRANCH  18  20
ATOM     20  O   UNL     1     -11.775  54.341  47.619  0.00  0.00    +0.000 OA
BRANCH  20  21
ATOM     21  C   UNL     1     -11.057  54.252  46.389  0.00  0.00    +0.000 C 
ATOM     22  C   UNL     1      -9.696  54.895  46.542  0.00  0.00    +0.000 C 
ENDBRANCH  20  21
ENDBRANCH  18  20
ENDBRANCH   9  18
ENDBRANCH   4   7
BRANCH   1  23
ATOM     23  S   UNL     1      -6.688  53.197  51.332  0.00  0.00    +0.000 S 
ATOM     24  O   UNL     1      -6.276  54.529  51.710  0.00  0.00    +0.000 OA
ATOM     25  O   UNL     1      -5.795  52.349  50.567  0.00  0.00    +0.000 OA
BRANCH  23  26
ATOM     26  C   UNL     1      -7.102  52.291  52.834  0.00  0.00    +0.000 A 
ATOM     27  C   UNL     1      -6.340  52.422  54.010  0.00  0.00    +0.000 A 
ATOM     28  C   UNL     1      -8.272  51.540  52.847  0.00  0.00    +0.000 A 
ATOM     29  C   UNL     1      -6.737  51.724  55.160  0.00  0.00    +0.000 A 
ATOM     30  C   UNL     1      -8.657  50.846  53.994  0.00  0.00    +0.000 A 
ATOM     31  C   UNL     1      -7.880  50.922  55.157  0.00  0.00    +0.000 A 
ATOM     32  C   UNL     1      -8.302  50.138  56.375  0.00  0.00    +0.000 C 
ENDBRANCH  23  26
ENDBRANCH   1  23
TORSDOF 6
ENDMDL
MODEL 9
REMARK VINA RESULT:      -6.5      3.947      8.116
REMARK  Name = 
REMARK  10 active torsions:
REMARK  status: ('A' for Active; 'I' for Inactive)
REMARK    1  A    between atoms: S_1  and  N_4
REMARK    2  A    between atoms: S_1  and  C_5
REMARK    3  A    between atoms: N_10  and  C_13
REMARK    4  A    between atoms: C_14  and  C_17
REMARK    5  A    between atoms: C_16  and  C_20
REMARK    6  A    between atoms: C_20  and  O_24
REMARK    7  A    between atoms: O_24  and  C_27
REMARK    8  A    between atoms: C_25  and  C_28
REMARK    9  A    between atoms: C_25  and  C_29
REMARK   10  A    between atoms: C_27  and  C_30
REMARK                            x       y       z     vdW  Elec       q    Type
REMARK                         _______ _______ _______ _____ _____    ______ ____
ROOT
ATOM      1  N   UNL     1      -8.325  55.355  51.740  0.00  0.00    +0.000 N 
ATOM      2  C   UNL     1      -8.432  54.570  50.568  0.00  0.00    +0.000 C 
ATOM      3  O   UNL     1      -7.659  53.639  50.361  0.00  0.00    +0.000 OA
ATOM      4  N   UNL     1      -9.389  54.978  49.647  0.00  0.00    +0.000 N 
ATOM      5  H   UNL     1      -8.933  56.121  51.852  0.00  0.00    +0.000 HD
ATOM      6  H   UNL     1      -9.997  55.729  49.834  0.00  0.00    +0.000 HD
ENDROOT
BRANCH   4   7
ATOM      7  C   UNL     1      -9.446  54.273  48.442  0.00  0.00    +0.000 A 
ATOM      8  S   UNL     1      -8.502  54.860  47.141  0.00  0.00    +0.000 S 
ATOM      9  C   UNL     1     -10.138  53.123  48.109  0.00  0.00    +0.000 A 
ATOM     10  C   UNL     1      -8.833  53.472  46.187  0.00  0.00    +0.000 A 
ATOM     11  C   UNL     1      -9.701  52.607  46.839  0.00  0.00    +0.000 A 
ATOM     12  C   UNL     1      -8.259  53.234  44.797  0.00  0.00    +0.000 C 
ATOM     13  C   UNL     1     -10.182  51.338  46.189  0.00  0.00    +0.000 C 
ATOM     14  C   UNL     1      -9.087  52.148  44.020  0.00  0.00    +0.000 C 
ATOM     15  C   UNL     1      -9.367  50.952  44.960  0.00  0.00    +0.000 C 
ATOM     16  C   UNL     1      -8.321  51.587  42.806  0.00  0.00    +0.000 C 
ATOM     17  C   UNL     1     -10.405  52.755  43.493  0.00  0.00    +0.000 C 
BRANCH   9  18
ATOM     18  C   UNL     1     -11.180  52.554  48.958  0.00  0.00    +0.000 C 
ATOM     19  O   UNL     1     -12.373  52.561  48.671  0.00  0.00    +0.000 OA
BRANCH  18  20
ATOM     20  O   UNL     1     -10.665  52.020  50.098  0.00  0.00    +0.000 OA
BRANCH  20  21
ATOM     21  C   UNL     1     -10.293  50.642  50.056  0.00  0.00    +0.000 C 
ATOM     22  C   UNL     1      -9.010  50.433  50.829  0.00  0.00    +0.000 C 
ENDBRANCH  20  21
ENDBRANCH  18  20
ENDBRANCH   9  18
ENDBRANCH   4   7
BRANCH   1  23
ATOM     23  S   UNL     1      -7.205  55.038  52.946  0.00  0.00    +0.000 S 
ATOM     24  O   UNL     1      -7.227  56.097  53.928  0.00  0.00    +0.000 OA
ATOM     25  O   UNL     1      -5.969  54.703  52.265  0.00  0.00    +0.000 OA
BRANCH  23  26
ATOM     26  C   UNL     1      -7.787  53.528  53.738  0.00  0.00    +0.000 A 
ATOM     27  C   UNL     1      -9.120  53.094  53.613  0.00  0.00    +0.000 A 
ATOM     28  C   UNL     1      -6.856  52.725  54.387  0.00  0.00    +0.000 A 
ATOM     29  C   UNL     1      -9.503  51.888  54.217  0.00  0.00    +0.000 A 
ATOM     30  C   UNL     1      -7.246  51.528  54.988  0.00  0.00    +0.000 A 
ATOM     31  C   UNL     1      -8.581  51.109  54.919  0.00  0.00    +0.000 A 
ATOM     32  C   UNL     1      -8.984  49.827  55.604  0.00  0.00    +0.000 C 
ENDBRANCH  23  26
ENDBRANCH   1  23
TORSDOF 6
ENDMDL
