MODEL 1
REMARK VINA RESULT:      -8.0      0.000      0.000
REMARK  Name = 
REMARK  9 active torsions:
REMARK  status: ('A' for Active; 'I' for Inactive)
REMARK    1  A    between atoms: S_1  and  N_4
REMARK    2  A    between atoms: S_1  and  C_5
REMARK    3  A    between atoms: N_10  and  C_13
REMARK    4  A    between atoms: C_16  and  C_19
REMARK    5  A    between atoms: C_19  and  O_23
REMARK    6  A    between atoms: O_23  and  C_26
REMARK    7  A    between atoms: C_24  and  C_27
REMARK    8  A    between atoms: C_24  and  C_28
REMARK    9  A    between atoms: C_26  and  C_29
REMARK                            x       y       z     vdW  Elec       q    Type
REMARK                         _______ _______ _______ _____ _____    ______ ____
ROOT
ATOM      1  C   UNL     1     -10.986  54.466  51.580  0.00  0.00    +0.000 A 
ATOM      2  S   UNL     1     -10.579  53.812  53.093  0.00  0.00    +0.000 S 
ATOM      3  C   UNL     1      -9.903  54.993  50.894  0.00  0.00    +0.000 A 
ATOM      4  C   UNL     1      -8.915  53.940  52.750  0.00  0.00    +0.000 A 
ATOM      5  C   UNL     1      -8.678  54.576  51.542  0.00  0.00    +0.000 A 
ATOM      6  C   UNL     1      -7.853  53.413  53.681  0.00  0.00    +0.000 C 
ATOM      7  C   UNL     1      -7.284  54.844  51.050  0.00  0.00    +0.000 C 
ATOM      8  C   UNL     1      -6.460  54.035  53.357  0.00  0.00    +0.000 C 
ATOM      9  C   UNL     1      -6.236  54.031  51.821  0.00  0.00    +0.000 C 
ATOM     10  C   UNL     1      -5.340  53.202  54.009  0.00  0.00    +0.000 C 
ATOM     11  C   UNL     1      -6.373  55.468  53.923  0.00  0.00    +0.000 C 
ENDROOT
BRANCH   1  15
ATOM     12  N   UNL     1     -14.475  55.245  51.267  0.00  0.00    +0.000 N 
ATOM     13  C   UNL     1     -13.141  55.439  51.586  0.00  0.00    +0.000 C 
ATOM     14  O   UNL     1     -12.750  56.489  52.075  0.00  0.00    +0.000 OA
ATOM     15  N   UNL     1     -12.326  54.380  51.249  0.00  0.00    +0.000 N 
ATOM     16  H   UNL     1     -14.766  54.358  50.954  0.00  0.00    +0.000 HD
ATOM     17  H   UNL     1     -12.685  53.588  50.788  0.00  0.00    +0.000 HD
BRANCH  12  18
ATOM     18  S   UNL     1     -15.609  56.470  51.396  0.00  0.00    +0.000 S 
ATOM     19  O   UNL     1     -15.720  56.848  52.790  0.00  0.00    +0.000 OA
ATOM     20  O   UNL     1     -16.782  55.995  50.681  0.00  0.00    +0.000 OA
BRANCH  18  21
ATOM     21  C   UNL     1     -14.898  57.827  50.467  0.00  0.00    +0.000 A 
ATOM     22  N   UNL     1     -14.358  57.468  49.267  0.00  0.00    +0.000 NA
ATOM     23  C   UNL     1     -14.898  59.115  50.984  0.00  0.00    +0.000 A 
ATOM     24  C   UNL     1     -13.829  58.475  48.541  0.00  0.00    +0.000 A 
ATOM     25  C   UNL     1     -14.325  60.117  50.209  0.00  0.00    +0.000 A 
ATOM     26  C   UNL     1     -13.787  59.797  48.965  0.00  0.00    +0.000 A 
ENDBRANCH  18  21
ENDBRANCH  12  18
ENDBRANCH   1  15
BRANCH   3  27
ATOM     27  C   UNL     1      -9.992  55.885  49.727  0.00  0.00    +0.000 C 
ATOM     28  O   UNL     1      -9.383  56.945  49.639  0.00  0.00    +0.000 OA
BRANCH  27  29
ATOM     29  O   UNL     1     -10.947  55.480  48.838  0.00  0.00    +0.000 OA
BRANCH  29  30
ATOM     30  C   UNL     1     -10.593  55.409  47.453  0.00  0.00    +0.000 C 
ATOM     31  C   UNL     1     -11.795  55.678  46.571  0.00  0.00    +0.000 C 
ENDBRANCH  29  30
ENDBRANCH  27  29
ENDBRANCH   3  27
TORSDOF 6
ENDMDL
MODEL 2
REMARK VINA RESULT:      -7.7      2.772      7.674
REMARK  Name = 
REMARK  9 active torsions:
REMARK  status: ('A' for Active; 'I' for Inactive)
REMARK    1  A    between atoms: S_1  and  N_4
REMARK    2  A    between atoms: S_1  and  C_5
REMARK    3  A    between atoms: N_10  and  C_13
REMARK    4  A    between atoms: C_16  and  C_19
REMARK    5  A    between atoms: C_19  and  O_23
REMARK    6  A    between atoms: O_23  and  C_26
REMARK    7  A    between atoms: C_24  and  C_27
REMARK    8  A    between atoms: C_24  and  C_28
REMARK    9  A    between atoms: C_26  and  C_29
REMARK                            x       y       z     vdW  Elec       q    Type
REMARK                         _______ _______ _______ _____ _____    ______ ____
ROOT
ATOM      1  C   UNL     1     -11.099  54.912  50.201  0.00  0.00    +0.000 A 
ATOM      2  S   UNL     1     -11.785  54.909  51.754  0.00  0.00    +0.000 S 
ATOM      3  C   UNL     1     -11.722  55.783  49.321  0.00  0.00    +0.000 A 
ATOM      4  C   UNL     1     -12.732  56.277  51.385  0.00  0.00    +0.000 A 
ATOM      5  C   UNL     1     -12.604  56.659  50.060  0.00  0.00    +0.000 A 
ATOM      6  C   UNL     1     -13.599  56.962  52.411  0.00  0.00    +0.000 C 
ATOM      7  C   UNL     1     -13.380  57.813  49.492  0.00  0.00    +0.000 C 
ATOM      8  C   UNL     1     -14.663  57.876  51.730  0.00  0.00    +0.000 C 
ATOM      9  C   UNL     1     -13.993  58.691  50.591  0.00  0.00    +0.000 C 
ATOM     10  C   UNL     1     -15.246  58.868  52.753  0.00  0.00    +0.000 C 
ATOM     11  C   UNL     1     -15.826  57.021  51.184  0.00  0.00    +0.000 C 
ENDROOT
BRANCH   1  15
ATOM     12  N   UNL     1      -7.746  53.642  50.044  0.00  0.00    +0.000 N 
ATOM     13  C   UNL     1      -8.764  54.550  50.286  0.00  0.00    +0.000 C 
ATOM     14  O   UNL     1      -8.529  55.665  50.729  0.00  0.00    +0.000 OA
ATOM     15  N   UNL     1     -10.026  54.055  50.036  0.00  0.00    +0.000 N 
ATOM     16  H   UNL     1      -7.965  52.787  49.607  0.00  0.00    +0.000 HD
ATOM     17  H   UNL     1     -10.159  53.123  49.750  0.00  0.00    +0.000 HD
BRANCH  12  18
ATOM     18  S   UNL     1      -6.156  53.952  50.468  0.00  0.00    +0.000 S 
ATOM     19  O   UNL     1      -5.816  55.288  50.027  0.00  0.00    +0.000 OA
ATOM     20  O   UNL     1      -5.393  52.814  49.983  0.00  0.00    +0.000 OA
BRANCH  18  21
ATOM     21  C   UNL     1      -6.161  53.900  52.259  0.00  0.00    +0.000 A 
ATOM     22  N   UNL     1      -5.894  55.096  52.858  0.00  0.00    +0.000 NA
ATOM     23  C   UNL     1      -6.397  52.710  52.931  0.00  0.00    +0.000 A 
ATOM     24  C   UNL     1      -5.906  55.087  54.208  0.00  0.00    +0.000 A 
ATOM     25  C   UNL     1      -6.381  52.744  54.321  0.00  0.00    +0.000 A 
ATOM     26  C   UNL     1      -6.139  53.951  54.973  0.00  0.00    +0.000 A 
ENDBRANCH  18  21
ENDBRANCH  12  18
ENDBRANCH   1  15
BRANCH   3  27
ATOM     27  C   UNL     1     -11.554  55.773  47.859  0.00  0.00    +0.000 C 
ATOM     28  O   UNL     1     -12.481  55.612  47.074  0.00  0.00    +0.000 OA
BRANCH  27  29
ATOM     29  O   UNL     1     -10.239  55.799  47.489  0.00  0.00    +0.000 OA
BRANCH  29  30
ATOM     30  C   UNL     1      -9.789  54.839  46.526  0.00  0.00    +0.000 C 
ATOM     31  C   UNL     1      -8.279  54.853  46.411  0.00  0.00    +0.000 C 
ENDBRANCH  29  30
ENDBRANCH  27  29
ENDBRANCH   3  27
TORSDOF 6
ENDMDL
MODEL 3
REMARK VINA RESULT:      -7.4      3.150      8.164
REMARK  Name = 
REMARK  9 active torsions:
REMARK  status: ('A' for Active; 'I' for Inactive)
REMARK    1  A    between atoms: S_1  and  N_4
REMARK    2  A    between atoms: S_1  and  C_5
REMARK    3  A    between atoms: N_10  and  C_13
REMARK    4  A    between atoms: C_16  and  C_19
REMARK    5  A    between atoms: C_19  and  O_23
REMARK    6  A    between atoms: O_23  and  C_26
REMARK    7  A    between atoms: C_24  and  C_27
REMARK    8  A    between atoms: C_24  and  C_28
REMARK    9  A    between atoms: C_26  and  C_29
REMARK                            x       y       z     vdW  Elec       q    Type
REMARK                         _______ _______ _______ _____ _____    ______ ____
ROOT
ATOM      1  C   UNL     1     -10.922  55.029  50.281  0.00  0.00    +0.000 A 
ATOM      2  S   UNL     1     -11.554  55.044  51.856  0.00  0.00    +0.000 S 
ATOM      3  C   UNL     1     -11.642  55.804  49.386  0.00  0.00    +0.000 A 
ATOM      4  C   UNL     1     -12.622  56.312  51.462  0.00  0.00    +0.000 A 
ATOM      5  C   UNL     1     -12.569  56.640  50.117  0.00  0.00    +0.000 A 
ATOM      6  C   UNL     1     -13.508  56.973  52.487  0.00  0.00    +0.000 C 
ATOM      7  C   UNL     1     -13.455  57.699  49.526  0.00  0.00    +0.000 C 
ATOM      8  C   UNL     1     -14.665  57.764  51.805  0.00  0.00    +0.000 C 
ATOM      9  C   UNL     1     -14.102  58.576  50.607  0.00  0.00    +0.000 C 
ATOM     10  C   UNL     1     -15.295  58.754  52.803  0.00  0.00    +0.000 C 
ATOM     11  C   UNL     1     -15.771  56.794  51.340  0.00  0.00    +0.000 C 
ENDROOT
BRANCH   1  15
ATOM     12  N   UNL     1      -7.483  54.026  50.062  0.00  0.00    +0.000 N 
ATOM     13  C   UNL     1      -8.563  54.859  50.300  0.00  0.00    +0.000 C 
ATOM     14  O   UNL     1      -8.407  56.008  50.688  0.00  0.00    +0.000 OA
ATOM     15  N   UNL     1      -9.787  54.254  50.115  0.00  0.00    +0.000 N 
ATOM     16  H   UNL     1      -7.644  53.137  49.670  0.00  0.00    +0.000 HD
ATOM     17  H   UNL     1      -9.853  53.302  49.874  0.00  0.00    +0.000 HD
BRANCH  12  18
ATOM     18  S   UNL     1      -5.911  54.481  50.418  0.00  0.00    +0.000 S 
ATOM     19  O   UNL     1      -5.818  54.736  51.840  0.00  0.00    +0.000 OA
ATOM     20  O   UNL     1      -5.585  55.536  49.472  0.00  0.00    +0.000 OA
BRANCH  18  21
ATOM     21  C   UNL     1      -4.931  53.039  50.008  0.00  0.00    +0.000 A 
ATOM     22  N   UNL     1      -5.165  52.534  48.762  0.00  0.00    +0.000 NA
ATOM     23  C   UNL     1      -4.042  52.503  50.928  0.00  0.00    +0.000 A 
ATOM     24  C   UNL     1      -4.428  51.455  48.423  0.00  0.00    +0.000 A 
ATOM     25  C   UNL     1      -3.318  51.380  50.542  0.00  0.00    +0.000 A 
ATOM     26  C   UNL     1      -3.507  50.849  49.268  0.00  0.00    +0.000 A 
ENDBRANCH  18  21
ENDBRANCH  12  18
ENDBRANCH   1  15
BRANCH   3  27
ATOM     27  C   UNL     1     -11.521  55.738  47.920  0.00  0.00    +0.000 C 
ATOM     28  O   UNL     1     -12.465  55.500  47.175  0.00  0.00    +0.000 OA
BRANCH  27  29
ATOM     29  O   UNL     1     -10.222  55.810  47.504  0.00  0.00    +0.000 OA
BRANCH  29  30
ATOM     30  C   UNL     1      -9.767  54.851  46.544  0.00  0.00    +0.000 C 
ATOM     31  C   UNL     1      -8.260  54.901  46.400  0.00  0.00    +0.000 C 
ENDBRANCH  29  30
ENDBRANCH  27  29
ENDBRANCH   3  27
TORSDOF 6
ENDMDL
MODEL 4
REMARK VINA RESULT:      -7.2      2.453      3.141
REMARK  Name = 
REMARK  9 active torsions:
REMARK  status: ('A' for Active; 'I' for Inactive)
REMARK    1  A    between atoms: S_1  and  N_4
REMARK    2  A    between atoms: S_1  and  C_5
REMARK    3  A    between atoms: N_10  and  C_13
REMARK    4  A    between atoms: C_16  and  C_19
REMARK    5  A    between atoms: C_19  and  O_23
REMARK    6  A    between atoms: O_23  and  C_26
REMARK    7  A    between atoms: C_24  and  C_27
REMARK    8  A    between atoms: C_24  and  C_28
REMARK    9  A    between atoms: C_26  and  C_29
REMARK                            x       y       z     vdW  Elec       q    Type
REMARK                         _______ _______ _______ _____ _____    ______ ____
ROOT
ATOM      1  C   UNL     1     -10.006  54.928  50.683  0.00  0.00    +0.000 A 
ATOM      2  S   UNL     1      -9.874  54.987  52.374  0.00  0.00    +0.000 S 
ATOM      3  C   UNL     1      -9.572  53.732  50.134  0.00  0.00    +0.000 A 
ATOM      4  C   UNL     1      -9.519  53.323  52.448  0.00  0.00    +0.000 A 
ATOM      5  C   UNL     1      -9.396  52.758  51.189  0.00  0.00    +0.000 A 
ATOM      6  C   UNL     1      -9.362  52.585  53.754  0.00  0.00    +0.000 C 
ATOM      7  C   UNL     1      -9.040  51.310  51.003  0.00  0.00    +0.000 C 
ATOM      8  C   UNL     1      -8.624  51.227  53.549  0.00  0.00    +0.000 C 
ATOM      9  C   UNL     1      -9.203  50.507  52.300  0.00  0.00    +0.000 C 
ATOM     10  C   UNL     1      -8.838  50.315  54.772  0.00  0.00    +0.000 C 
ATOM     11  C   UNL     1      -7.108  51.463  53.394  0.00  0.00    +0.000 C 
ENDROOT
BRANCH   1  15
ATOM     12  N   UNL     1     -12.311  57.275  49.249  0.00  0.00    +0.000 N 
ATOM     13  C   UNL     1     -11.886  56.122  49.887  0.00  0.00    +0.000 C 
ATOM     14  O   UNL     1     -12.681  55.272  50.261  0.00  0.00    +0.000 OA
ATOM     15  N   UNL     1     -10.525  56.069  50.098  0.00  0.00    +0.000 N 
ATOM     16  H   UNL     1     -11.637  57.896  48.887  0.00  0.00    +0.000 HD
ATOM     17  H   UNL     1      -9.941  56.819  49.841  0.00  0.00    +0.000 HD
BRANCH  12  18
ATOM     18  S   UNL     1     -13.934  57.649  49.072  0.00  0.00    +0.000 S 
ATOM     19  O   UNL     1     -14.596  56.529  48.436  0.00  0.00    +0.000 OA
ATOM     20  O   UNL     1     -13.968  58.960  48.445  0.00  0.00    +0.000 OA
BRANCH  18  21
ATOM     21  C   UNL     1     -14.532  57.816  50.752  0.00  0.00    +0.000 A 
ATOM     22  N   UNL     1     -14.150  58.968  51.375  0.00  0.00    +0.000 NA
ATOM     23  C   UNL     1     -15.296  56.814  51.334  0.00  0.00    +0.000 A 
ATOM     24  C   UNL     1     -14.601  59.124  52.638  0.00  0.00    +0.000 A 
ATOM     25  C   UNL     1     -15.722  57.010  52.643  0.00  0.00    +0.000 A 
ATOM     26  C   UNL     1     -15.376  58.186  53.306  0.00  0.00    +0.000 A 
ENDBRANCH  18  21
ENDBRANCH  12  18
ENDBRANCH   1  15
BRANCH   3  27
ATOM     27  C   UNL     1      -9.280  53.510  48.708  0.00  0.00    +0.000 C 
ATOM     28  O   UNL     1      -8.144  53.470  48.250  0.00  0.00    +0.000 OA
BRANCH  27  29
ATOM     29  O   UNL     1     -10.411  53.520  47.941  0.00  0.00    +0.000 OA
BRANCH  29  30
ATOM     30  C   UNL     1     -10.332  54.090  46.630  0.00  0.00    +0.000 C 
ATOM     31  C   UNL     1     -11.384  55.163  46.441  0.00  0.00    +0.000 C 
ENDBRANCH  29  30
ENDBRANCH  27  29
ENDBRANCH   3  27
TORSDOF 6
ENDMDL
MODEL 5
REMARK VINA RESULT:      -7.1      2.306      3.018
REMARK  Name = 
REMARK  9 active torsions:
REMARK  status: ('A' for Active; 'I' for Inactive)
REMARK    1  A    between atoms: S_1  and  N_4
REMARK    2  A    between atoms: S_1  and  C_5
REMARK    3  A    between atoms: N_10  and  C_13
REMARK    4  A    between atoms: C_16  and  C_19
REMARK    5  A    between atoms: C_19  and  O_23
REMARK    6  A    between atoms: O_23  and  C_26
REMARK    7  A    between atoms: C_24  and  C_27
REMARK    8  A    between atoms: C_24  and  C_28
REMARK    9  A    between atoms: C_26  and  C_29
REMARK                            x       y       z     vdW  Elec       q    Type
REMARK                         _______ _______ _______ _____ _____    ______ ____
ROOT
ATOM      1  C   UNL     1      -8.474  55.708  49.934  0.00  0.00    +0.000 A 
ATOM      2  S   UNL     1      -7.890  56.054  51.490  0.00  0.00    +0.000 S 
ATOM      3  C   UNL     1      -7.806  54.665  49.311  0.00  0.00    +0.000 A 
ATOM      4  C   UNL     1      -6.939  54.640  51.496  0.00  0.00    +0.000 A 
ATOM      5  C   UNL     1      -6.985  53.975  50.281  0.00  0.00    +0.000 A 
ATOM      6  C   UNL     1      -6.151  54.199  52.702  0.00  0.00    +0.000 C 
ATOM      7  C   UNL     1      -6.189  52.725  50.034  0.00  0.00    +0.000 C 
ATOM      8  C   UNL     1      -5.056  53.159  52.311  0.00  0.00    +0.000 C 
ATOM      9  C   UNL     1      -5.661  52.112  51.337  0.00  0.00    +0.000 C 
ATOM     10  C   UNL     1      -4.554  52.418  53.564  0.00  0.00    +0.000 C 
ATOM     11  C   UNL     1      -3.849  53.874  51.669  0.00  0.00    +0.000 C 
ENDROOT
BRANCH   1  15
ATOM     12  N   UNL     1     -11.775  56.822  49.076  0.00  0.00    +0.000 N 
ATOM     13  C   UNL     1     -10.794  55.976  49.565  0.00  0.00    +0.000 C 
ATOM     14  O   UNL     1     -11.074  54.884  50.039  0.00  0.00    +0.000 OA
ATOM     15  N   UNL     1      -9.523  56.505  49.514  0.00  0.00    +0.000 N 
ATOM     16  H   UNL     1     -11.505  57.654  48.625  0.00  0.00    +0.000 HD
ATOM     17  H   UNL     1      -9.366  57.421  49.189  0.00  0.00    +0.000 HD
BRANCH  12  18
ATOM     18  S   UNL     1     -13.406  56.474  49.225  0.00  0.00    +0.000 S 
ATOM     19  O   UNL     1     -13.552  55.057  49.488  0.00  0.00    +0.000 OA
ATOM     20  O   UNL     1     -14.040  57.060  48.056  0.00  0.00    +0.000 OA
BRANCH  18  21
ATOM     21  C   UNL     1     -13.924  57.402  50.667  0.00  0.00    +0.000 A 
ATOM     22  N   UNL     1     -14.480  58.616  50.387  0.00  0.00    +0.000 NA
ATOM     23  C   UNL     1     -13.727  56.894  51.943  0.00  0.00    +0.000 A 
ATOM     24  C   UNL     1     -14.891  59.329  51.457  0.00  0.00    +0.000 A 
ATOM     25  C   UNL     1     -14.149  57.672  53.016  0.00  0.00    +0.000 A 
ATOM     26  C   UNL     1     -14.748  58.906  52.772  0.00  0.00    +0.000 A 
ENDBRANCH  18  21
ENDBRANCH  12  18
ENDBRANCH   1  15
BRANCH   3  27
ATOM     27  C   UNL     1      -7.879  54.353  47.874  0.00  0.00    +0.000 C 
ATOM     28  O   UNL     1      -6.985  54.620  47.079  0.00  0.00    +0.000 OA
BRANCH  27  29
ATOM     29  O   UNL     1      -9.109  53.886  47.507  0.00  0.00    +0.000 OA
BRANCH  29  30
ATOM     30  C   UNL     1      -9.574  54.174  46.184  0.00  0.00    +0.000 C 
ATOM     31  C   UNL     1     -10.990  54.711  46.212  0.00  0.00    +0.000 C 
ENDBRANCH  29  30
ENDBRANCH  27  29
ENDBRANCH   3  27
TORSDOF 6
ENDMDL
MODEL 6
REMARK VINA RESULT:      -7.1      3.865      7.427
REMARK  Name = 
REMARK  9 active torsions:
REMARK  status: ('A' for Active; 'I' for Inactive)
REMARK    1  A    between atoms: S_1  and  N_4
REMARK    2  A    between atoms: S_1  and  C_5
REMARK    3  A    between atoms: N_10  and  C_13
REMARK    4  A    between atoms: C_16  and  C_19
REMARK    5  A    between atoms: C_19  and  O_23
REMARK    6  A    between atoms: O_23  and  C_26
REMARK    7  A    between atoms: C_24  and  C_27
REMARK    8  A    between atoms: C_24  and  C_28
REMARK    9  A    between atoms: C_26  and  C_29
REMARK                            x       y       z     vdW  Elec       q    Type
REMARK                         _______ _______ _______ _____ _____    ______ ____
ROOT
ATOM      1  C   UNL     1     -11.251  54.799  50.040  0.00  0.00    +0.000 A 
ATOM      2  S   UNL     1     -11.968  54.741  51.578  0.00  0.00    +0.000 S 
ATOM      3  C   UNL     1     -11.801  55.761  49.208  0.00  0.00    +0.000 A 
ATOM      4  C   UNL     1     -12.821  56.186  51.283  0.00  0.00    +0.000 A 
ATOM      5  C   UNL     1     -12.643  56.643  49.988  0.00  0.00    +0.000 A 
ATOM      6  C   UNL     1     -13.664  56.858  52.337  0.00  0.00    +0.000 C 
ATOM      7  C   UNL     1     -13.335  57.876  49.482  0.00  0.00    +0.000 C 
ATOM      8  C   UNL     1     -14.657  57.878  51.699  0.00  0.00    +0.000 C 
ATOM      9  C   UNL     1     -13.914  58.719  50.626  0.00  0.00    +0.000 C 
ATOM     10  C   UNL     1     -15.198  58.838  52.774  0.00  0.00    +0.000 C 
ATOM     11  C   UNL     1     -15.859  57.134  51.081  0.00  0.00    +0.000 C 
ENDROOT
BRANCH   1  15
ATOM     12  N   UNL     1      -9.476  51.815  49.132  0.00  0.00    +0.000 N 
ATOM     13  C   UNL     1     -10.547  52.686  49.246  0.00  0.00    +0.000 C 
ATOM     14  O   UNL     1     -11.650  52.399  48.802  0.00  0.00    +0.000 OA
ATOM     15  N   UNL     1     -10.229  53.889  49.838  0.00  0.00    +0.000 N 
ATOM     16  H   UNL     1      -8.627  52.044  49.575  0.00  0.00    +0.000 HD
ATOM     17  H   UNL     1      -9.306  54.094  50.109  0.00  0.00    +0.000 HD
BRANCH  12  18
ATOM     18  S   UNL     1      -9.578  50.386  48.266  0.00  0.00    +0.000 S 
ATOM     19  O   UNL     1     -10.870  49.784  48.525  0.00  0.00    +0.000 OA
ATOM     20  O   UNL     1      -8.364  49.651  48.579  0.00  0.00    +0.000 OA
BRANCH  18  21
ATOM     21  C   UNL     1      -9.496  50.902  46.553  0.00  0.00    +0.000 A 
ATOM     22  N   UNL     1      -8.232  51.117  46.089  0.00  0.00    +0.000 NA
ATOM     23  C   UNL     1     -10.656  51.080  45.812  0.00  0.00    +0.000 A 
ATOM     24  C   UNL     1      -8.142  51.494  44.796  0.00  0.00    +0.000 A 
ATOM     25  C   UNL     1     -10.516  51.486  44.489  0.00  0.00    +0.000 A 
ATOM     26  C   UNL     1      -9.240  51.691  43.968  0.00  0.00    +0.000 A 
ENDBRANCH  18  21
ENDBRANCH  12  18
ENDBRANCH   1  15
BRANCH   3  27
ATOM     27  C   UNL     1     -11.605  55.833  47.751  0.00  0.00    +0.000 C 
ATOM     28  O   UNL     1     -12.528  55.827  46.944  0.00  0.00    +0.000 OA
BRANCH  27  29
ATOM     29  O   UNL     1     -10.287  55.742  47.401  0.00  0.00    +0.000 OA
BRANCH  29  30
ATOM     30  C   UNL     1      -9.926  54.825  46.363  0.00  0.00    +0.000 C 
ATOM     31  C   UNL     1      -8.444  54.903  46.062  0.00  0.00    +0.000 C 
ENDBRANCH  29  30
ENDBRANCH  27  29
ENDBRANCH   3  27
TORSDOF 6
ENDMDL
MODEL 7
REMARK VINA RESULT:      -7.0      3.950      7.520
REMARK  Name = 
REMARK  9 active torsions:
REMARK  status: ('A' for Active; 'I' for Inactive)
REMARK    1  A    between atoms: S_1  and  N_4
REMARK    2  A    between atoms: S_1  and  C_5
REMARK    3  A    between atoms: N_10  and  C_13
REMARK    4  A    between atoms: C_16  and  C_19
REMARK    5  A    between atoms: C_19  and  O_23
REMARK    6  A    between atoms: O_23  and  C_26
REMARK    7  A    between atoms: C_24  and  C_27
REMARK    8  A    between atoms: C_24  and  C_28
REMARK    9  A    between atoms: C_26  and  C_29
REMARK                            x       y       z     vdW  Elec       q    Type
REMARK                         _______ _______ _______ _____ _____    ______ ____
ROOT
ATOM      1  C   UNL     1      -8.819  55.061  47.503  0.00  0.00    +0.000 A 
ATOM      2  S   UNL     1      -7.572  54.299  46.640  0.00  0.00    +0.000 S 
ATOM      3  C   UNL     1     -10.084  54.795  47.003  0.00  0.00    +0.000 A 
ATOM      4  C   UNL     1      -8.693  53.359  45.766  0.00  0.00    +0.000 A 
ATOM      5  C   UNL     1     -10.003  53.705  46.055  0.00  0.00    +0.000 A 
ATOM      6  C   UNL     1      -8.268  52.286  44.796  0.00  0.00    +0.000 C 
ATOM      7  C   UNL     1     -11.165  53.043  45.370  0.00  0.00    +0.000 C 
ATOM      8  C   UNL     1      -9.434  51.901  43.834  0.00  0.00    +0.000 C 
ATOM      9  C   UNL     1     -10.748  51.755  44.648  0.00  0.00    +0.000 C 
ATOM     10  C   UNL     1      -9.138  50.552  43.152  0.00  0.00    +0.000 C 
ATOM     11  C   UNL     1      -9.585  52.967  42.730  0.00  0.00    +0.000 C 
ENDROOT
BRANCH   1  15
ATOM     12  N   UNL     1      -7.733  56.032  50.783  0.00  0.00    +0.000 N 
ATOM     13  C   UNL     1      -8.089  55.182  49.750  0.00  0.00    +0.000 C 
ATOM     14  O   UNL     1      -8.069  53.967  49.889  0.00  0.00    +0.000 OA
ATOM     15  N   UNL     1      -8.401  55.830  48.574  0.00  0.00    +0.000 N 
ATOM     16  H   UNL     1      -7.844  57.003  50.661  0.00  0.00    +0.000 HD
ATOM     17  H   UNL     1      -8.328  56.809  48.499  0.00  0.00    +0.000 HD
BRANCH  12  18
ATOM     18  S   UNL     1      -7.122  55.462  52.234  0.00  0.00    +0.000 S 
ATOM     19  O   UNL     1      -6.987  56.579  53.146  0.00  0.00    +0.000 OA
ATOM     20  O   UNL     1      -5.954  54.671  51.883  0.00  0.00    +0.000 OA
BRANCH  18  21
ATOM     21  C   UNL     1      -8.389  54.350  52.840  0.00  0.00    +0.000 A 
ATOM     22  N   UNL     1      -7.935  53.113  53.188  0.00  0.00    +0.000 NA
ATOM     23  C   UNL     1      -9.715  54.757  52.903  0.00  0.00    +0.000 A 
ATOM     24  C   UNL     1      -8.869  52.261  53.661  0.00  0.00    +0.000 A 
ATOM     25  C   UNL     1     -10.645  53.840  53.380  0.00  0.00    +0.000 A 
ATOM     26  C   UNL     1     -10.218  52.573  53.772  0.00  0.00    +0.000 A 
ENDBRANCH  18  21
ENDBRANCH  12  18
ENDBRANCH   1  15
BRANCH   3  27
ATOM     27  C   UNL     1     -11.304  55.545  47.342  0.00  0.00    +0.000 C 
ATOM     28  O   UNL     1     -11.998  56.117  46.509  0.00  0.00    +0.000 OA
BRANCH  27  29
ATOM     29  O   UNL     1     -11.479  55.667  48.691  0.00  0.00    +0.000 OA
BRANCH  29  30
ATOM     30  C   UNL     1     -12.533  54.918  49.306  0.00  0.00    +0.000 C 
ATOM     31  C   UNL     1     -12.011  53.617  49.877  0.00  0.00    +0.000 C 
ENDBRANCH  29  30
ENDBRANCH  27  29
ENDBRANCH   3  27
TORSDOF 6
ENDMDL
MODEL 8
REMARK VINA RESULT:      -6.9      3.206      4.095
REMARK  Name = 
REMARK  9 active torsions:
REMARK  status: ('A' for Active; 'I' for Inactive)
REMARK    1  A    between atoms: S_1  and  N_4
REMARK    2  A    between atoms: S_1  and  C_5
REMARK    3  A    between atoms: N_10  and  C_13
REMARK    4  A    between atoms: C_16  and  C_19
REMARK    5  A    between atoms: C_19  and  O_23
REMARK    6  A    between atoms: O_23  and  C_26
REMARK    7  A    between atoms: C_24  and  C_27
REMARK    8  A    between atoms: C_24  and  C_28
REMARK    9  A    between atoms: C_26  and  C_29
REMARK                            x       y       z     vdW  Elec       q    Type
REMARK                         _______ _______ _______ _____ _____    ______ ____
ROOT
ATOM      1  C   UNL     1      -8.291  55.047  48.401  0.00  0.00    +0.000 A 
ATOM      2  S   UNL     1      -6.968  55.122  49.463  0.00  0.00    +0.000 S 
ATOM      3  C   UNL     1      -8.146  54.099  47.401  0.00  0.00    +0.000 A 
ATOM      4  C   UNL     1      -6.302  53.699  48.804  0.00  0.00    +0.000 A 
ATOM      5  C   UNL     1      -7.026  53.238  47.716  0.00  0.00    +0.000 A 
ATOM      6  C   UNL     1      -5.065  53.048  49.366  0.00  0.00    +0.000 C 
ATOM      7  C   UNL     1      -6.603  52.023  46.942  0.00  0.00    +0.000 C 
ATOM      8  C   UNL     1      -4.436  52.053  48.342  0.00  0.00    +0.000 C 
ATOM      9  C   UNL     1      -5.558  51.194  47.700  0.00  0.00    +0.000 C 
ATOM     10  C   UNL     1      -3.452  51.106  49.055  0.00  0.00    +0.000 C 
ATOM     11  C   UNL     1      -3.650  52.827  47.264  0.00  0.00    +0.000 C 
ENDROOT
BRANCH   1  15
ATOM     12  N   UNL     1     -11.385  56.401  49.614  0.00  0.00    +0.000 N 
ATOM     13  C   UNL     1     -10.381  55.466  49.425  0.00  0.00    +0.000 C 
ATOM     14  O   UNL     1     -10.444  54.354  49.929  0.00  0.00    +0.000 OA
ATOM     15  N   UNL     1      -9.316  55.931  48.684  0.00  0.00    +0.000 N 
ATOM     16  H   UNL     1     -11.340  57.254  49.124  0.00  0.00    +0.000 HD
ATOM     17  H   UNL     1      -9.286  56.862  48.365  0.00  0.00    +0.000 HD
BRANCH  12  18
ATOM     18  S   UNL     1     -12.674  56.127  50.647  0.00  0.00    +0.000 S 
ATOM     19  O   UNL     1     -12.155  55.925  51.984  0.00  0.00    +0.000 OA
ATOM     20  O   UNL     1     -13.468  55.087  50.016  0.00  0.00    +0.000 OA
BRANCH  18  21
ATOM     21  C   UNL     1     -13.609  57.655  50.599  0.00  0.00    +0.000 A 
ATOM     22  N   UNL     1     -13.424  58.393  49.467  0.00  0.00    +0.000 NA
ATOM     23  C   UNL     1     -14.419  58.022  51.663  0.00  0.00    +0.000 A 
ATOM     24  C   UNL     1     -14.129  59.542  49.400  0.00  0.00    +0.000 A 
ATOM     25  C   UNL     1     -15.112  59.223  51.558  0.00  0.00    +0.000 A 
ATOM     26  C   UNL     1     -14.973  59.994  50.406  0.00  0.00    +0.000 A 
ENDBRANCH  18  21
ENDBRANCH  12  18
ENDBRANCH   1  15
BRANCH   3  27
ATOM     27  C   UNL     1      -8.967  54.023  46.181  0.00  0.00    +0.000 C 
ATOM     28  O   UNL     1      -8.540  54.289  45.063  0.00  0.00    +0.000 OA
BRANCH  27  29
ATOM     29  O   UNL     1     -10.283  53.785  46.457  0.00  0.00    +0.000 OA
BRANCH  29  30
ATOM     30  C   UNL     1     -11.238  53.970  45.406  0.00  0.00    +0.000 C 
ATOM     31  C   UNL     1     -11.868  52.652  45.007  0.00  0.00    +0.000 C 
ENDBRANCH  29  30
ENDBRANCH  27  29
ENDBRANCH   3  27
TORSDOF 6
ENDMDL
MODEL 9
REMARK VINA RESULT:      -6.8      1.636      2.268
REMARK  Name = 
REMARK  9 active torsions:
REMARK  status: ('A' for Active; 'I' for Inactive)
REMARK    1  A    between atoms: S_1  and  N_4
REMARK    2  A    between atoms: S_1  and  C_5
REMARK    3  A    between atoms: N_10  and  C_13
REMARK    4  A    between atoms: C_16  and  C_19
REMARK    5  A    between atoms: C_19  and  O_23
REMARK    6  A    between atoms: O_23  and  C_26
REMARK    7  A    between atoms: C_24  and  C_27
REMARK    8  A    between atoms: C_24  and  C_28
REMARK    9  A    between atoms: C_26  and  C_29
REMARK                            x       y       z     vdW  Elec       q    Type
REMARK                         _______ _______ _______ _____ _____    ______ ____
ROOT
ATOM      1  C   UNL     1     -10.979  53.819  51.326  0.00  0.00    +0.000 A 
ATOM      2  S   UNL     1     -10.599  53.745  52.979  0.00  0.00    +0.000 S 
ATOM      3  C   UNL     1      -9.865  53.897  50.505  0.00  0.00    +0.000 A 
ATOM      4  C   UNL     1      -8.947  53.514  52.634  0.00  0.00    +0.000 A 
ATOM      5  C   UNL     1      -8.678  53.602  51.278  0.00  0.00    +0.000 A 
ATOM      6  C   UNL     1      -7.924  53.248  53.709  0.00  0.00    +0.000 C 
ATOM      7  C   UNL     1      -7.282  53.478  50.738  0.00  0.00    +0.000 C 
ATOM      8  C   UNL     1      -6.478  53.512  53.189  0.00  0.00    +0.000 C 
ATOM      9  C   UNL     1      -6.315  52.892  51.775  0.00  0.00    +0.000 C 
ATOM     10  C   UNL     1      -5.447  52.852  54.125  0.00  0.00    +0.000 C 
ATOM     11  C   UNL     1      -6.190  55.027  53.163  0.00  0.00    +0.000 C 
ENDROOT
BRANCH   1  15
ATOM     12  N   UNL     1     -14.324  54.870  50.565  0.00  0.00    +0.000 N 
ATOM     13  C   UNL     1     -12.963  54.988  50.791  0.00  0.00    +0.000 C 
ATOM     14  O   UNL     1     -12.398  56.071  50.722  0.00  0.00    +0.000 OA
ATOM     15  N   UNL     1     -12.331  53.789  51.037  0.00  0.00    +0.000 N 
ATOM     16  H   UNL     1     -14.758  53.998  50.713  0.00  0.00    +0.000 HD
ATOM     17  H   UNL     1     -12.825  52.938  51.007  0.00  0.00    +0.000 HD
BRANCH  12  18
ATOM     18  S   UNL     1     -15.257  56.161  50.048  0.00  0.00    +0.000 S 
ATOM     19  O   UNL     1     -16.638  55.732  49.982  0.00  0.00    +0.000 OA
ATOM     20  O   UNL     1     -14.599  56.665  48.854  0.00  0.00    +0.000 OA
BRANCH  18  21
ATOM     21  C   UNL     1     -15.075  57.383  51.345  0.00  0.00    +0.000 A 
ATOM     22  N   UNL     1     -14.527  58.563  50.936  0.00  0.00    +0.000 NA
ATOM     23  C   UNL     1     -15.451  57.091  52.649  0.00  0.00    +0.000 A 
ATOM     24  C   UNL     1     -14.392  59.505  51.893  0.00  0.00    +0.000 A 
ATOM     25  C   UNL     1     -15.277  58.086  53.605  0.00  0.00    +0.000 A 
ATOM     26  C   UNL     1     -14.746  59.316  53.223  0.00  0.00    +0.000 A 
ENDBRANCH  18  21
ENDBRANCH  12  18
ENDBRANCH   1  15
BRANCH   3  27
ATOM     27  C   UNL     1      -9.887  54.279  49.083  0.00  0.00    +0.000 C 
ATOM     28  O   UNL     1     -10.462  53.628  48.218  0.00  0.00    +0.000 OA
BRANCH  27  29
ATOM     29  O   UNL     1      -9.067  55.339  48.819  0.00  0.00    +0.000 OA
BRANCH  29  30
ATOM     30  C   UNL     1      -9.360  56.592  49.445  0.00  0.00    +0.000 C 
ATOM     31  C   UNL     1      -8.179  57.081  50.258  0.00  0.00    +0.000 C 
ENDBRANCH  29  30
ENDBRANCH  27  29
ENDBRANCH   3  27
TORSDOF 6
ENDMDL
