MODEL 1
REMARK VINA RESULT:      -7.8      0.000      0.000
REMARK  Name = 
REMARK  9 active torsions:
REMARK  status: ('A' for Active; 'I' for Inactive)
REMARK    1  A    between atoms: S_1  and  N_4
REMARK    2  A    between atoms: S_1  and  C_5
REMARK    3  A    between atoms: N_10  and  C_13
REMARK    4  A    between atoms: C_16  and  C_19
REMARK    5  A    between atoms: C_19  and  O_23
REMARK    6  A    between atoms: O_23  and  C_26
REMARK    7  A    between atoms: C_24  and  C_27
REMARK    8  A    between atoms: C_24  and  C_28
REMARK    9  A    between atoms: C_26  and  C_29
REMARK                            x       y       z     vdW  Elec       q    Type
REMARK                         _______ _______ _______ _____ _____    ______ ____
ROOT
ATOM      1  C   UNL     1     -10.895  54.436  51.409  0.00  0.00    +0.000 A 
ATOM      2  S   UNL     1     -10.535  53.826  52.953  0.00  0.00    +0.000 S 
ATOM      3  C   UNL     1      -9.788  54.921  50.732  0.00  0.00    +0.000 A 
ATOM      4  C   UNL     1      -8.861  53.918  52.644  0.00  0.00    +0.000 A 
ATOM      5  C   UNL     1      -8.586  54.506  51.422  0.00  0.00    +0.000 A 
ATOM      6  C   UNL     1      -7.830  53.404  53.617  0.00  0.00    +0.000 C 
ATOM      7  C   UNL     1      -7.179  54.731  50.951  0.00  0.00    +0.000 C 
ATOM      8  C   UNL     1      -6.420  53.991  53.303  0.00  0.00    +0.000 C 
ATOM      9  C   UNL     1      -6.162  53.928  51.773  0.00  0.00    +0.000 C 
ATOM     10  C   UNL     1      -5.329  53.164  54.009  0.00  0.00    +0.000 C 
ATOM     11  C   UNL     1      -6.321  55.441  53.819  0.00  0.00    +0.000 C 
ENDROOT
BRANCH   1  15
ATOM     12  N   UNL     1     -14.389  55.198  51.091  0.00  0.00    +0.000 N 
ATOM     13  C   UNL     1     -13.062  55.384  51.446  0.00  0.00    +0.000 C 
ATOM     14  O   UNL     1     -12.691  56.401  52.015  0.00  0.00    +0.000 OA
ATOM     15  N   UNL     1     -12.228  54.360  51.051  0.00  0.00    +0.000 N 
ATOM     16  H   UNL     1     -14.662  54.333  50.708  0.00  0.00    +0.000 HD
ATOM     17  H   UNL     1     -12.571  53.599  50.529  0.00  0.00    +0.000 HD
BRANCH  12  18
ATOM     18  S   UNL     1     -15.538  56.389  51.294  0.00  0.00    +0.000 S 
ATOM     19  O   UNL     1     -15.638  56.709  52.704  0.00  0.00    +0.000 OA
ATOM     20  O   UNL     1     -16.713  55.934  50.574  0.00  0.00    +0.000 OA
BRANCH  18  21
ATOM     21  C   UNL     1     -14.869  57.800  50.413  0.00  0.00    +0.000 A 
ATOM     22  N   UNL     1     -14.386  57.515  49.169  0.00  0.00    +0.000 NA
ATOM     23  C   UNL     1     -14.834  59.053  51.012  0.00  0.00    +0.000 A 
ATOM     24  C   UNL     1     -13.879  58.564  48.489  0.00  0.00    +0.000 A 
ATOM     25  C   UNL     1     -14.292  60.102  50.273  0.00  0.00    +0.000 A 
ATOM     26  C   UNL     1     -13.809  59.859  48.987  0.00  0.00    +0.000 A 
ENDBRANCH  18  21
ENDBRANCH  12  18
ENDBRANCH   1  15
BRANCH   3  27
ATOM     27  C   UNL     1      -9.833  55.773  49.531  0.00  0.00    +0.000 C 
ATOM     28  O   UNL     1      -9.530  56.961  49.535  0.00  0.00    +0.000 OA
BRANCH  27  29
ATOM     29  O   UNL     1     -10.397  55.136  48.465  0.00  0.00    +0.000 OA
BRANCH  29  30
ATOM     30  C   UNL     1     -11.469  55.787  47.775  0.00  0.00    +0.000 C 
ATOM     31  C   UNL     1     -11.728  55.133  46.433  0.00  0.00    +0.000 C 
ENDBRANCH  29  30
ENDBRANCH  27  29
ENDBRANCH   3  27
TORSDOF 6
ENDMDL
MODEL 2
REMARK VINA RESULT:      -7.6      2.726      7.666
REMARK  Name = 
REMARK  9 active torsions:
REMARK  status: ('A' for Active; 'I' for Inactive)
REMARK    1  A    between atoms: S_1  and  N_4
REMARK    2  A    between atoms: S_1  and  C_5
REMARK    3  A    between atoms: N_10  and  C_13
REMARK    4  A    between atoms: C_16  and  C_19
REMARK    5  A    between atoms: C_19  and  O_23
REMARK    6  A    between atoms: O_23  and  C_26
REMARK    7  A    between atoms: C_24  and  C_27
REMARK    8  A    between atoms: C_24  and  C_28
REMARK    9  A    between atoms: C_26  and  C_29
REMARK                            x       y       z     vdW  Elec       q    Type
REMARK                         _______ _______ _______ _____ _____    ______ ____
ROOT
ATOM      1  C   UNL     1     -11.092  54.898  50.174  0.00  0.00    +0.000 A 
ATOM      2  S   UNL     1     -11.774  54.888  51.730  0.00  0.00    +0.000 S 
ATOM      3  C   UNL     1     -11.721  55.767  49.297  0.00  0.00    +0.000 A 
ATOM      4  C   UNL     1     -12.730  56.250  51.364  0.00  0.00    +0.000 A 
ATOM      5  C   UNL     1     -12.607  56.637  50.041  0.00  0.00    +0.000 A 
ATOM      6  C   UNL     1     -13.598  56.929  52.393  0.00  0.00    +0.000 C 
ATOM      7  C   UNL     1     -13.385  57.789  49.476  0.00  0.00    +0.000 C 
ATOM      8  C   UNL     1     -14.667  57.839  51.715  0.00  0.00    +0.000 C 
ATOM      9  C   UNL     1     -14.001  58.661  50.579  0.00  0.00    +0.000 C 
ATOM     10  C   UNL     1     -15.256  58.826  52.740  0.00  0.00    +0.000 C 
ATOM     11  C   UNL     1     -15.826  56.981  51.167  0.00  0.00    +0.000 C 
ENDROOT
BRANCH   1  15
ATOM     12  N   UNL     1      -7.731  53.643  50.024  0.00  0.00    +0.000 N 
ATOM     13  C   UNL     1      -8.754  54.544  50.270  0.00  0.00    +0.000 C 
ATOM     14  O   UNL     1      -8.528  55.657  50.728  0.00  0.00    +0.000 OA
ATOM     15  N   UNL     1     -10.014  54.049  50.007  0.00  0.00    +0.000 N 
ATOM     16  H   UNL     1      -7.945  52.790  49.581  0.00  0.00    +0.000 HD
ATOM     17  H   UNL     1     -10.141  53.119  49.711  0.00  0.00    +0.000 HD
BRANCH  12  18
ATOM     18  S   UNL     1      -6.150  53.956  50.451  0.00  0.00    +0.000 S 
ATOM     19  O   UNL     1      -5.802  55.293  50.014  0.00  0.00    +0.000 OA
ATOM     20  O   UNL     1      -5.380  52.820  49.978  0.00  0.00    +0.000 OA
BRANCH  18  21
ATOM     21  C   UNL     1      -6.159  53.902  52.243  0.00  0.00    +0.000 A 
ATOM     22  N   UNL     1      -5.887  55.094  52.848  0.00  0.00    +0.000 NA
ATOM     23  C   UNL     1      -6.391  52.705  52.910  0.00  0.00    +0.000 A 
ATOM     24  C   UNL     1      -5.889  55.074  54.196  0.00  0.00    +0.000 A 
ATOM     25  C   UNL     1      -6.373  52.734  54.302  0.00  0.00    +0.000 A 
ATOM     26  C   UNL     1      -6.124  53.938  54.962  0.00  0.00    +0.000 A 
ENDBRANCH  18  21
ENDBRANCH  12  18
ENDBRANCH   1  15
BRANCH   3  27
ATOM     27  C   UNL     1     -11.555  55.765  47.834  0.00  0.00    +0.000 C 
ATOM     28  O   UNL     1     -12.485  55.618  47.050  0.00  0.00    +0.000 OA
BRANCH  27  29
ATOM     29  O   UNL     1     -10.242  55.784  47.462  0.00  0.00    +0.000 OA
BRANCH  29  30
ATOM     30  C   UNL     1      -9.796  54.822  46.501  0.00  0.00    +0.000 C 
ATOM     31  C   UNL     1      -8.289  54.864  46.349  0.00  0.00    +0.000 C 
ENDBRANCH  29  30
ENDBRANCH  27  29
ENDBRANCH   3  27
TORSDOF 6
ENDMDL
MODEL 3
REMARK VINA RESULT:      -7.3      3.166      8.156
REMARK  Name = 
REMARK  9 active torsions:
REMARK  status: ('A' for Active; 'I' for Inactive)
REMARK    1  A    between atoms: S_1  and  N_4
REMARK    2  A    between atoms: S_1  and  C_5
REMARK    3  A    between atoms: N_10  and  C_13
REMARK    4  A    between atoms: C_16  and  C_19
REMARK    5  A    between atoms: C_19  and  O_23
REMARK    6  A    between atoms: O_23  and  C_26
REMARK    7  A    between atoms: C_24  and  C_27
REMARK    8  A    between atoms: C_24  and  C_28
REMARK    9  A    between atoms: C_26  and  C_29
REMARK                            x       y       z     vdW  Elec       q    Type
REMARK                         _______ _______ _______ _____ _____    ______ ____
ROOT
ATOM      1  C   UNL     1     -10.919  55.015  50.238  0.00  0.00    +0.000 A 
ATOM      2  S   UNL     1     -11.564  55.021  51.809  0.00  0.00    +0.000 S 
ATOM      3  C   UNL     1     -11.624  55.807  49.345  0.00  0.00    +0.000 A 
ATOM      4  C   UNL     1     -12.616  56.303  51.417  0.00  0.00    +0.000 A 
ATOM      5  C   UNL     1     -12.548  56.646  50.077  0.00  0.00    +0.000 A 
ATOM      6  C   UNL     1     -13.504  56.964  52.442  0.00  0.00    +0.000 C 
ATOM      7  C   UNL     1     -13.414  57.722  49.490  0.00  0.00    +0.000 C 
ATOM      8  C   UNL     1     -14.645  57.775  51.757  0.00  0.00    +0.000 C 
ATOM      9  C   UNL     1     -14.061  58.594  50.574  0.00  0.00    +0.000 C 
ATOM     10  C   UNL     1     -15.274  58.761  52.760  0.00  0.00    +0.000 C 
ATOM     11  C   UNL     1     -15.757  56.822  51.271  0.00  0.00    +0.000 C 
ENDROOT
BRANCH   1  15
ATOM     12  N   UNL     1      -7.487  53.983  50.020  0.00  0.00    +0.000 N 
ATOM     13  C   UNL     1      -8.561  54.827  50.256  0.00  0.00    +0.000 C 
ATOM     14  O   UNL     1      -8.396  55.978  50.639  0.00  0.00    +0.000 OA
ATOM     15  N   UNL     1      -9.792  54.232  50.075  0.00  0.00    +0.000 N 
ATOM     16  H   UNL     1      -7.658  53.092  49.637  0.00  0.00    +0.000 HD
ATOM     17  H   UNL     1      -9.865  53.279  49.838  0.00  0.00    +0.000 HD
BRANCH  12  18
ATOM     18  S   UNL     1      -5.917  54.428  50.361  0.00  0.00    +0.000 S 
ATOM     19  O   UNL     1      -5.786  54.629  51.790  0.00  0.00    +0.000 OA
ATOM     20  O   UNL     1      -5.605  55.513  49.449  0.00  0.00    +0.000 OA
BRANCH  18  21
ATOM     21  C   UNL     1      -4.941  53.006  49.871  0.00  0.00    +0.000 A 
ATOM     22  N   UNL     1      -5.164  52.577  48.595  0.00  0.00    +0.000 NA
ATOM     23  C   UNL     1      -4.071  52.404  50.773  0.00  0.00    +0.000 A 
ATOM     24  C   UNL     1      -4.438  51.509  48.207  0.00  0.00    +0.000 A 
ATOM     25  C   UNL     1      -3.352  51.297  50.328  0.00  0.00    +0.000 A 
ATOM     26  C   UNL     1      -3.531  50.841  49.021  0.00  0.00    +0.000 A 
ENDBRANCH  18  21
ENDBRANCH  12  18
ENDBRANCH   1  15
BRANCH   3  27
ATOM     27  C   UNL     1     -11.491  55.759  47.879  0.00  0.00    +0.000 C 
ATOM     28  O   UNL     1     -12.446  55.638  47.119  0.00  0.00    +0.000 OA
BRANCH  27  29
ATOM     29  O   UNL     1     -10.188  55.704  47.478  0.00  0.00    +0.000 OA
BRANCH  29  30
ATOM     30  C   UNL     1      -9.831  54.765  46.460  0.00  0.00    +0.000 C 
ATOM     31  C   UNL     1      -8.390  54.951  46.030  0.00  0.00    +0.000 C 
ENDBRANCH  29  30
ENDBRANCH  27  29
ENDBRANCH   3  27
TORSDOF 6
ENDMDL
MODEL 4
REMARK VINA RESULT:      -7.0      2.574      3.976
REMARK  Name = 
REMARK  9 active torsions:
REMARK  status: ('A' for Active; 'I' for Inactive)
REMARK    1  A    between atoms: S_1  and  N_4
REMARK    2  A    between atoms: S_1  and  C_5
REMARK    3  A    between atoms: N_10  and  C_13
REMARK    4  A    between atoms: C_16  and  C_19
REMARK    5  A    between atoms: C_19  and  O_23
REMARK    6  A    between atoms: O_23  and  C_26
REMARK    7  A    between atoms: C_24  and  C_27
REMARK    8  A    between atoms: C_24  and  C_28
REMARK    9  A    between atoms: C_26  and  C_29
REMARK                            x       y       z     vdW  Elec       q    Type
REMARK                         _______ _______ _______ _____ _____    ______ ____
ROOT
ATOM      1  C   UNL     1     -11.425  53.411  49.985  0.00  0.00    +0.000 A 
ATOM      2  S   UNL     1     -10.826  54.089  48.548  0.00  0.00    +0.000 S 
ATOM      3  C   UNL     1     -10.548  52.524  50.588  0.00  0.00    +0.000 A 
ATOM      4  C   UNL     1      -9.274  53.452  48.845  0.00  0.00    +0.000 A 
ATOM      5  C   UNL     1      -9.245  52.645  49.970  0.00  0.00    +0.000 A 
ATOM      6  C   UNL     1      -8.091  53.757  47.960  0.00  0.00    +0.000 C 
ATOM      7  C   UNL     1      -7.995  51.941  50.407  0.00  0.00    +0.000 C 
ATOM      8  C   UNL     1      -6.939  52.732  48.190  0.00  0.00    +0.000 C 
ATOM      9  C   UNL     1      -6.746  52.502  49.713  0.00  0.00    +0.000 C 
ATOM     10  C   UNL     1      -5.618  53.277  47.615  0.00  0.00    +0.000 C 
ATOM     11  C   UNL     1      -7.256  51.406  47.469  0.00  0.00    +0.000 C 
ENDROOT
BRANCH   1  15
ATOM     12  N   UNL     1     -14.089  55.343  51.421  0.00  0.00    +0.000 N 
ATOM     13  C   UNL     1     -12.793  55.019  51.052  0.00  0.00    +0.000 C 
ATOM     14  O   UNL     1     -11.854  55.763  51.304  0.00  0.00    +0.000 OA
ATOM     15  N   UNL     1     -12.689  53.839  50.347  0.00  0.00    +0.000 N 
ATOM     16  H   UNL     1     -14.805  54.683  51.272  0.00  0.00    +0.000 HD
ATOM     17  H   UNL     1     -13.489  53.318  50.109  0.00  0.00    +0.000 HD
BRANCH  12  18
ATOM     18  S   UNL     1     -14.476  56.811  52.108  0.00  0.00    +0.000 S 
ATOM     19  O   UNL     1     -13.488  57.132  53.118  0.00  0.00    +0.000 OA
ATOM     20  O   UNL     1     -15.878  56.720  52.476  0.00  0.00    +0.000 OA
BRANCH  18  21
ATOM     21  C   UNL     1     -14.343  57.980  50.755  0.00  0.00    +0.000 A 
ATOM     22  N   UNL     1     -14.237  57.408  49.521  0.00  0.00    +0.000 NA
ATOM     23  C   UNL     1     -14.313  59.347  51.005  0.00  0.00    +0.000 A 
ATOM     24  C   UNL     1     -14.136  58.271  48.489  0.00  0.00    +0.000 A 
ATOM     25  C   UNL     1     -14.198  60.196  49.907  0.00  0.00    +0.000 A 
ATOM     26  C   UNL     1     -14.113  59.654  48.624  0.00  0.00    +0.000 A 
ENDBRANCH  18  21
ENDBRANCH  12  18
ENDBRANCH   1  15
BRANCH   3  27
ATOM     27  C   UNL     1     -10.903  51.569  51.652  0.00  0.00    +0.000 C 
ATOM     28  O   UNL     1     -10.947  50.356  51.483  0.00  0.00    +0.000 OA
BRANCH  27  29
ATOM     29  O   UNL     1     -11.327  52.194  52.789  0.00  0.00    +0.000 OA
BRANCH  29  30
ATOM     30  C   UNL     1     -10.368  52.928  53.557  0.00  0.00    +0.000 C 
ATOM     31  C   UNL     1      -9.273  52.017  54.073  0.00  0.00    +0.000 C 
ENDBRANCH  29  30
ENDBRANCH  27  29
ENDBRANCH   3  27
TORSDOF 6
ENDMDL
MODEL 5
REMARK VINA RESULT:      -6.9      2.294      2.935
REMARK  Name = 
REMARK  9 active torsions:
REMARK  status: ('A' for Active; 'I' for Inactive)
REMARK    1  A    between atoms: S_1  and  N_4
REMARK    2  A    between atoms: S_1  and  C_5
REMARK    3  A    between atoms: N_10  and  C_13
REMARK    4  A    between atoms: C_16  and  C_19
REMARK    5  A    between atoms: C_19  and  O_23
REMARK    6  A    between atoms: O_23  and  C_26
REMARK    7  A    between atoms: C_24  and  C_27
REMARK    8  A    between atoms: C_24  and  C_28
REMARK    9  A    between atoms: C_26  and  C_29
REMARK                            x       y       z     vdW  Elec       q    Type
REMARK                         _______ _______ _______ _____ _____    ______ ____
ROOT
ATOM      1  C   UNL     1      -8.483  55.786  49.924  0.00  0.00    +0.000 A 
ATOM      2  S   UNL     1      -7.939  56.122  51.498  0.00  0.00    +0.000 S 
ATOM      3  C   UNL     1      -7.791  54.757  49.305  0.00  0.00    +0.000 A 
ATOM      4  C   UNL     1      -6.971  54.719  51.508  0.00  0.00    +0.000 A 
ATOM      5  C   UNL     1      -6.984  54.065  50.287  0.00  0.00    +0.000 A 
ATOM      6  C   UNL     1      -6.204  54.274  52.727  0.00  0.00    +0.000 C 
ATOM      7  C   UNL     1      -6.173  52.826  50.044  0.00  0.00    +0.000 C 
ATOM      8  C   UNL     1      -5.092  53.249  52.349  0.00  0.00    +0.000 C 
ATOM      9  C   UNL     1      -5.667  52.205  51.353  0.00  0.00    +0.000 C 
ATOM     10  C   UNL     1      -4.608  52.500  53.604  0.00  0.00    +0.000 C 
ATOM     11  C   UNL     1      -3.880  53.982  51.739  0.00  0.00    +0.000 C 
ENDROOT
BRANCH   1  15
ATOM     12  N   UNL     1     -11.783  56.880  49.027  0.00  0.00    +0.000 N 
ATOM     13  C   UNL     1     -10.802  56.041  49.531  0.00  0.00    +0.000 C 
ATOM     14  O   UNL     1     -11.080  54.948  50.008  0.00  0.00    +0.000 OA
ATOM     15  N   UNL     1      -9.531  56.575  49.491  0.00  0.00    +0.000 N 
ATOM     16  H   UNL     1     -11.511  57.715  48.581  0.00  0.00    +0.000 HD
ATOM     17  H   UNL     1      -9.376  57.491  49.165  0.00  0.00    +0.000 HD
BRANCH  12  18
ATOM     18  S   UNL     1     -13.406  56.523  49.152  0.00  0.00    +0.000 S 
ATOM     19  O   UNL     1     -13.557  55.107  49.416  0.00  0.00    +0.000 OA
ATOM     20  O   UNL     1     -14.031  57.107  47.979  0.00  0.00    +0.000 OA
BRANCH  18  21
ATOM     21  C   UNL     1     -13.953  57.455  50.583  0.00  0.00    +0.000 A 
ATOM     22  N   UNL     1     -14.506  58.668  50.293  0.00  0.00    +0.000 NA
ATOM     23  C   UNL     1     -13.767  56.950  51.864  0.00  0.00    +0.000 A 
ATOM     24  C   UNL     1     -14.925  59.384  51.356  0.00  0.00    +0.000 A 
ATOM     25  C   UNL     1     -14.208  57.732  52.930  0.00  0.00    +0.000 A 
ATOM     26  C   UNL     1     -14.802  58.968  52.676  0.00  0.00    +0.000 A 
ENDBRANCH  18  21
ENDBRANCH  12  18
ENDBRANCH   1  15
BRANCH   3  27
ATOM     27  C   UNL     1      -7.828  54.455  47.864  0.00  0.00    +0.000 C 
ATOM     28  O   UNL     1      -6.902  54.698  47.100  0.00  0.00    +0.000 OA
BRANCH  27  29
ATOM     29  O   UNL     1      -9.058  54.025  47.457  0.00  0.00    +0.000 OA
BRANCH  29  30
ATOM     30  C   UNL     1      -9.645  54.642  46.307  0.00  0.00    +0.000 C 
ATOM     31  C   UNL     1     -10.019  53.607  45.266  0.00  0.00    +0.000 C 
ENDBRANCH  29  30
ENDBRANCH  27  29
ENDBRANCH   3  27
TORSDOF 6
ENDMDL
MODEL 6
REMARK VINA RESULT:      -6.8      3.873      7.464
REMARK  Name = 
REMARK  9 active torsions:
REMARK  status: ('A' for Active; 'I' for Inactive)
REMARK    1  A    between atoms: S_1  and  N_4
REMARK    2  A    between atoms: S_1  and  C_5
REMARK    3  A    between atoms: N_10  and  C_13
REMARK    4  A    between atoms: C_16  and  C_19
REMARK    5  A    between atoms: C_19  and  O_23
REMARK    6  A    between atoms: O_23  and  C_26
REMARK    7  A    between atoms: C_24  and  C_27
REMARK    8  A    between atoms: C_24  and  C_28
REMARK    9  A    between atoms: C_26  and  C_29
REMARK                            x       y       z     vdW  Elec       q    Type
REMARK                         _______ _______ _______ _____ _____    ______ ____
ROOT
ATOM      1  C   UNL     1      -8.678  55.020  47.455  0.00  0.00    +0.000 A 
ATOM      2  S   UNL     1      -7.476  54.200  46.579  0.00  0.00    +0.000 S 
ATOM      3  C   UNL     1      -9.961  54.795  46.983  0.00  0.00    +0.000 A 
ATOM      4  C   UNL     1      -8.649  53.294  45.738  0.00  0.00    +0.000 A 
ATOM      5  C   UNL     1      -9.939  53.691  46.048  0.00  0.00    +0.000 A 
ATOM      6  C   UNL     1      -8.284  52.192  44.776  0.00  0.00    +0.000 C 
ATOM      7  C   UNL     1     -11.138  53.064  45.400  0.00  0.00    +0.000 C 
ATOM      8  C   UNL     1      -9.484  51.838  43.845  0.00  0.00    +0.000 C 
ATOM      9  C   UNL     1     -10.785  51.751  44.687  0.00  0.00    +0.000 C 
ATOM     10  C   UNL     1      -9.253  50.472  43.173  0.00  0.00    +0.000 C 
ATOM     11  C   UNL     1      -9.619  52.896  42.729  0.00  0.00    +0.000 C 
ENDROOT
BRANCH   1  15
ATOM     12  N   UNL     1      -7.559  56.005  50.722  0.00  0.00    +0.000 N 
ATOM     13  C   UNL     1      -7.974  55.154  49.710  0.00  0.00    +0.000 C 
ATOM     14  O   UNL     1      -8.063  53.946  49.888  0.00  0.00    +0.000 OA
ATOM     15  N   UNL     1      -8.209  55.786  48.507  0.00  0.00    +0.000 N 
ATOM     16  H   UNL     1      -7.577  56.977  50.562  0.00  0.00    +0.000 HD
ATOM     17  H   UNL     1      -8.048  56.751  48.401  0.00  0.00    +0.000 HD
BRANCH  12  18
ATOM     18  S   UNL     1      -7.034  55.439  52.199  0.00  0.00    +0.000 S 
ATOM     19  O   UNL     1      -6.898  56.558  53.109  0.00  0.00    +0.000 OA
ATOM     20  O   UNL     1      -5.886  54.598  51.915  0.00  0.00    +0.000 OA
BRANCH  18  21
ATOM     21  C   UNL     1      -8.364  54.376  52.761  0.00  0.00    +0.000 A 
ATOM     22  N   UNL     1      -7.977  53.109  53.088  0.00  0.00    +0.000 NA
ATOM     23  C   UNL     1      -9.671  54.845  52.802  0.00  0.00    +0.000 A 
ATOM     24  C   UNL     1      -8.963  52.293  53.514  0.00  0.00    +0.000 A 
ATOM     25  C   UNL     1     -10.656  53.961  53.239  0.00  0.00    +0.000 A 
ATOM     26  C   UNL     1     -10.300  52.664  53.607  0.00  0.00    +0.000 A 
ENDBRANCH  18  21
ENDBRANCH  12  18
ENDBRANCH   1  15
BRANCH   3  27
ATOM     27  C   UNL     1     -11.148  55.593  47.335  0.00  0.00    +0.000 C 
ATOM     28  O   UNL     1     -12.002  55.927  46.522  0.00  0.00    +0.000 OA
BRANCH  27  29
ATOM     29  O   UNL     1     -11.103  56.047  48.621  0.00  0.00    +0.000 OA
BRANCH  29  30
ATOM     30  C   UNL     1     -12.193  55.725  49.492  0.00  0.00    +0.000 C 
ATOM     31  C   UNL     1     -12.196  54.250  49.835  0.00  0.00    +0.000 C 
ENDBRANCH  29  30
ENDBRANCH  27  29
ENDBRANCH   3  27
TORSDOF 6
ENDMDL
MODEL 7
REMARK VINA RESULT:      -6.8      2.104      2.576
REMARK  Name = 
REMARK  9 active torsions:
REMARK  status: ('A' for Active; 'I' for Inactive)
REMARK    1  A    between atoms: S_1  and  N_4
REMARK    2  A    between atoms: S_1  and  C_5
REMARK    3  A    between atoms: N_10  and  C_13
REMARK    4  A    between atoms: C_16  and  C_19
REMARK    5  A    between atoms: C_19  and  O_23
REMARK    6  A    between atoms: O_23  and  C_26
REMARK    7  A    between atoms: C_24  and  C_27
REMARK    8  A    between atoms: C_24  and  C_28
REMARK    9  A    between atoms: C_26  and  C_29
REMARK                            x       y       z     vdW  Elec       q    Type
REMARK                         _______ _______ _______ _____ _____    ______ ____
ROOT
ATOM      1  C   UNL     1     -10.078  53.891  50.867  0.00  0.00    +0.000 A 
ATOM      2  S   UNL     1     -10.433  53.344  52.435  0.00  0.00    +0.000 S 
ATOM      3  C   UNL     1      -8.720  54.021  50.619  0.00  0.00    +0.000 A 
ATOM      4  C   UNL     1      -8.794  52.982  52.726  0.00  0.00    +0.000 A 
ATOM      5  C   UNL     1      -7.977  53.375  51.679  0.00  0.00    +0.000 A 
ATOM      6  C   UNL     1      -8.325  52.309  53.992  0.00  0.00    +0.000 C 
ATOM      7  C   UNL     1      -6.488  53.196  51.726  0.00  0.00    +0.000 C 
ATOM      8  C   UNL     1      -6.790  52.491  54.190  0.00  0.00    +0.000 C 
ATOM      9  C   UNL     1      -6.060  52.235  52.844  0.00  0.00    +0.000 C 
ATOM     10  C   UNL     1      -6.262  51.478  55.223  0.00  0.00    +0.000 C 
ATOM     11  C   UNL     1      -6.487  53.908  54.719  0.00  0.00    +0.000 C 
ENDROOT
BRANCH   1  15
ATOM     12  N   UNL     1     -12.873  55.514  49.304  0.00  0.00    +0.000 N 
ATOM     13  C   UNL     1     -11.739  55.385  50.090  0.00  0.00    +0.000 C 
ATOM     14  O   UNL     1     -11.273  56.340  50.698  0.00  0.00    +0.000 OA
ATOM     15  N   UNL     1     -11.182  54.124  50.069  0.00  0.00    +0.000 N 
ATOM     16  H   UNL     1     -13.262  54.706  48.896  0.00  0.00    +0.000 HD
ATOM     17  H   UNL     1     -11.558  53.413  49.502  0.00  0.00    +0.000 HD
BRANCH  12  18
ATOM     18  S   UNL     1     -13.599  56.988  49.026  0.00  0.00    +0.000 S 
ATOM     19  O   UNL     1     -14.679  56.809  48.077  0.00  0.00    +0.000 OA
ATOM     20  O   UNL     1     -12.520  57.911  48.723  0.00  0.00    +0.000 OA
BRANCH  18  21
ATOM     21  C   UNL     1     -14.280  57.450  50.619  0.00  0.00    +0.000 A 
ATOM     22  N   UNL     1     -14.013  58.732  51.000  0.00  0.00    +0.000 NA
ATOM     23  C   UNL     1     -14.982  56.523  51.380  0.00  0.00    +0.000 A 
ATOM     24  C   UNL     1     -14.517  59.099  52.196  0.00  0.00    +0.000 A 
ATOM     25  C   UNL     1     -15.475  56.947  52.612  0.00  0.00    +0.000 A 
ATOM     26  C   UNL     1     -15.246  58.259  53.029  0.00  0.00    +0.000 A 
ENDBRANCH  18  21
ENDBRANCH  12  18
ENDBRANCH   1  15
BRANCH   3  27
ATOM     27  C   UNL     1      -8.131  54.750  49.484  0.00  0.00    +0.000 C 
ATOM     28  O   UNL     1      -7.450  55.761  49.613  0.00  0.00    +0.000 OA
BRANCH  27  29
ATOM     29  O   UNL     1      -8.558  54.269  48.280  0.00  0.00    +0.000 OA
BRANCH  29  30
ATOM     30  C   UNL     1      -9.010  55.206  47.297  0.00  0.00    +0.000 C 
ATOM     31  C   UNL     1      -8.785  54.676  45.896  0.00  0.00    +0.000 C 
ENDBRANCH  29  30
ENDBRANCH  27  29
ENDBRANCH   3  27
TORSDOF 6
ENDMDL
MODEL 8
REMARK VINA RESULT:      -6.7      1.534      2.053
REMARK  Name = 
REMARK  9 active torsions:
REMARK  status: ('A' for Active; 'I' for Inactive)
REMARK    1  A    between atoms: S_1  and  N_4
REMARK    2  A    between atoms: S_1  and  C_5
REMARK    3  A    between atoms: N_10  and  C_13
REMARK    4  A    between atoms: C_16  and  C_19
REMARK    5  A    between atoms: C_19  and  O_23
REMARK    6  A    between atoms: O_23  and  C_26
REMARK    7  A    between atoms: C_24  and  C_27
REMARK    8  A    between atoms: C_24  and  C_28
REMARK    9  A    between atoms: C_26  and  C_29
REMARK                            x       y       z     vdW  Elec       q    Type
REMARK                         _______ _______ _______ _____ _____    ______ ____
ROOT
ATOM      1  C   UNL     1     -11.109  53.737  51.293  0.00  0.00    +0.000 A 
ATOM      2  S   UNL     1     -10.577  53.932  52.894  0.00  0.00    +0.000 S 
ATOM      3  C   UNL     1     -10.077  53.591  50.379  0.00  0.00    +0.000 A 
ATOM      4  C   UNL     1      -8.979  53.533  52.457  0.00  0.00    +0.000 A 
ATOM      5  C   UNL     1      -8.838  53.359  51.090  0.00  0.00    +0.000 A 
ATOM      6  C   UNL     1      -7.873  53.393  53.472  0.00  0.00    +0.000 C 
ATOM      7  C   UNL     1      -7.512  53.042  50.465  0.00  0.00    +0.000 C 
ATOM      8  C   UNL     1      -6.473  53.459  52.790  0.00  0.00    +0.000 C 
ATOM      9  C   UNL     1      -6.480  52.586  51.506  0.00  0.00    +0.000 C 
ATOM     10  C   UNL     1      -5.391  52.909  53.738  0.00  0.00    +0.000 C 
ATOM     11  C   UNL     1      -6.111  54.922  52.458  0.00  0.00    +0.000 C 
ENDROOT
BRANCH   1  15
ATOM     12  N   UNL     1     -14.464  54.871  50.706  0.00  0.00    +0.000 N 
ATOM     13  C   UNL     1     -13.083  54.941  50.794  0.00  0.00    +0.000 C 
ATOM     14  O   UNL     1     -12.479  55.974  50.538  0.00  0.00    +0.000 OA
ATOM     15  N   UNL     1     -12.481  53.747  51.132  0.00  0.00    +0.000 N 
ATOM     16  H   UNL     1     -14.918  54.046  50.997  0.00  0.00    +0.000 HD
ATOM     17  H   UNL     1     -13.013  52.927  51.253  0.00  0.00    +0.000 HD
BRANCH  12  18
ATOM     18  S   UNL     1     -15.382  56.136  50.127  0.00  0.00    +0.000 S 
ATOM     19  O   UNL     1     -16.765  55.714  50.046  0.00  0.00    +0.000 OA
ATOM     20  O   UNL     1     -14.702  56.607  48.934  0.00  0.00    +0.000 OA
BRANCH  18  21
ATOM     21  C   UNL     1     -15.222  57.406  51.383  0.00  0.00    +0.000 A 
ATOM     22  N   UNL     1     -14.766  58.606  50.921  0.00  0.00    +0.000 NA
ATOM     23  C   UNL     1     -15.516  57.124  52.712  0.00  0.00    +0.000 A 
ATOM     24  C   UNL     1     -14.640  59.575  51.850  0.00  0.00    +0.000 A 
ATOM     25  C   UNL     1     -15.360  58.155  53.635  0.00  0.00    +0.000 A 
ATOM     26  C   UNL     1     -14.920  59.406  53.201  0.00  0.00    +0.000 A 
ENDBRANCH  18  21
ENDBRANCH  12  18
ENDBRANCH   1  15
BRANCH   3  27
ATOM     27  C   UNL     1     -10.214  53.712  48.918  0.00  0.00    +0.000 C 
ATOM     28  O   UNL     1     -10.161  52.754  48.155  0.00  0.00    +0.000 OA
BRANCH  27  29
ATOM     29  O   UNL     1     -10.245  55.012  48.506  0.00  0.00    +0.000 OA
BRANCH  29  30
ATOM     30  C   UNL     1     -10.370  55.277  47.105  0.00  0.00    +0.000 C 
ATOM     31  C   UNL     1     -11.781  55.707  46.757  0.00  0.00    +0.000 C 
ENDBRANCH  29  30
ENDBRANCH  27  29
ENDBRANCH   3  27
TORSDOF 6
ENDMDL
MODEL 9
REMARK VINA RESULT:      -6.6      2.291      4.473
REMARK  Name = 
REMARK  9 active torsions:
REMARK  status: ('A' for Active; 'I' for Inactive)
REMARK    1  A    between atoms: S_1  and  N_4
REMARK    2  A    between atoms: S_1  and  C_5
REMARK    3  A    between atoms: N_10  and  C_13
REMARK    4  A    between atoms: C_16  and  C_19
REMARK    5  A    between atoms: C_19  and  O_23
REMARK    6  A    between atoms: O_23  and  C_26
REMARK    7  A    between atoms: C_24  and  C_27
REMARK    8  A    between atoms: C_24  and  C_28
REMARK    9  A    between atoms: C_26  and  C_29
REMARK                            x       y       z     vdW  Elec       q    Type
REMARK                         _______ _______ _______ _____ _____    ______ ____
ROOT
ATOM      1  C   UNL     1     -11.504  54.067  49.383  0.00  0.00    +0.000 A 
ATOM      2  S   UNL     1     -11.951  53.046  48.101  0.00  0.00    +0.000 S 
ATOM      3  C   UNL     1     -10.230  54.595  49.253  0.00  0.00    +0.000 A 
ATOM      4  C   UNL     1     -10.584  53.513  47.197  0.00  0.00    +0.000 A 
ATOM      5  C   UNL     1      -9.746  54.353  47.911  0.00  0.00    +0.000 A 
ATOM      6  C   UNL     1     -10.350  53.044  45.783  0.00  0.00    +0.000 C 
ATOM      7  C   UNL     1      -8.458  54.863  47.335  0.00  0.00    +0.000 C 
ATOM      8  C   UNL     1      -8.863  53.250  45.362  0.00  0.00    +0.000 C 
ATOM      9  C   UNL     1      -8.387  54.656  45.816  0.00  0.00    +0.000 C 
ATOM     10  C   UNL     1      -8.727  53.167  43.830  0.00  0.00    +0.000 C 
ATOM     11  C   UNL     1      -7.979  52.145  45.975  0.00  0.00    +0.000 C 
ENDROOT
BRANCH   1  15
ATOM     12  N   UNL     1     -14.255  55.385  51.277  0.00  0.00    +0.000 N 
ATOM     13  C   UNL     1     -13.361  55.267  50.224  0.00  0.00    +0.000 C 
ATOM     14  O   UNL     1     -13.420  56.006  49.251  0.00  0.00    +0.000 OA
ATOM     15  N   UNL     1     -12.467  54.226  50.362  0.00  0.00    +0.000 N 
ATOM     16  H   UNL     1     -14.124  54.825  52.076  0.00  0.00    +0.000 HD
ATOM     17  H   UNL     1     -12.514  53.616  51.132  0.00  0.00    +0.000 HD
BRANCH  12  18
ATOM     18  S   UNL     1     -15.541  56.444  51.234  0.00  0.00    +0.000 S 
ATOM     19  O   UNL     1     -16.062  56.604  52.577  0.00  0.00    +0.000 OA
ATOM     20  O   UNL     1     -16.413  55.967  50.176  0.00  0.00    +0.000 OA
BRANCH  18  21
ATOM     21  C   UNL     1     -14.819  57.992  50.690  0.00  0.00    +0.000 A 
ATOM     22  N   UNL     1     -14.898  58.214  49.347  0.00  0.00    +0.000 NA
ATOM     23  C   UNL     1     -14.205  58.842  51.603  0.00  0.00    +0.000 A 
ATOM     24  C   UNL     1     -14.361  59.374  48.917  0.00  0.00    +0.000 A 
ATOM     25  C   UNL     1     -13.656  60.023  51.108  0.00  0.00    +0.000 A 
ATOM     26  C   UNL     1     -13.738  60.301  49.744  0.00  0.00    +0.000 A 
ENDBRANCH  18  21
ENDBRANCH  12  18
ENDBRANCH   1  15
BRANCH   3  27
ATOM     27  C   UNL     1      -9.468  55.250  50.331  0.00  0.00    +0.000 C 
ATOM     28  O   UNL     1      -9.204  56.447  50.339  0.00  0.00    +0.000 OA
BRANCH  27  29
ATOM     29  O   UNL     1      -8.960  54.352  51.224  0.00  0.00    +0.000 OA
BRANCH  29  30
ATOM     30  C   UNL     1      -9.535  54.299  52.534  0.00  0.00    +0.000 C 
ATOM     31  C   UNL     1      -8.623  54.947  53.555  0.00  0.00    +0.000 C 
ENDBRANCH  29  30
ENDBRANCH  27  29
ENDBRANCH   3  27
TORSDOF 6
ENDMDL
