MODEL 1
REMARK VINA RESULT:      -8.1      0.000      0.000
REMARK  Name = 
REMARK  10 active torsions:
REMARK  status: ('A' for Active; 'I' for Inactive)
REMARK    1  A    between atoms: S_1  and  N_4
REMARK    2  A    between atoms: S_1  and  C_5
REMARK    3  A    between atoms: N_7  and  C_12
REMARK    4  A    between atoms: N_10  and  C_14
REMARK    5  A    between atoms: C_16  and  C_19
REMARK    6  A    between atoms: C_19  and  O_23
REMARK    7  A    between atoms: O_23  and  C_26
REMARK    8  A    between atoms: C_24  and  C_27
REMARK    9  A    between atoms: C_24  and  C_28
REMARK   10  A    between atoms: C_26  and  C_29
REMARK                            x       y       z     vdW  Elec       q    Type
REMARK                         _______ _______ _______ _____ _____    ______ ____
ROOT
ATOM      1  C   UNL     1     -10.948  54.394  51.629  0.00  0.00    +0.000 A 
ATOM      2  S   UNL     1     -10.534  53.677  53.115  0.00  0.00    +0.000 S 
ATOM      3  C   UNL     1      -9.863  54.904  50.939  0.00  0.00    +0.000 A 
ATOM      4  C   UNL     1      -8.869  53.785  52.757  0.00  0.00    +0.000 A 
ATOM      5  C   UNL     1      -8.636  54.453  51.567  0.00  0.00    +0.000 A 
ATOM      6  C   UNL     1      -7.797  53.208  53.650  0.00  0.00    +0.000 C 
ATOM      7  C   UNL     1      -7.242  54.698  51.062  0.00  0.00    +0.000 C 
ATOM      8  C   UNL     1      -6.404  53.834  53.329  0.00  0.00    +0.000 C 
ATOM      9  C   UNL     1      -6.195  53.863  51.795  0.00  0.00    +0.000 C 
ATOM     10  C   UNL     1      -5.272  52.987  53.935  0.00  0.00    +0.000 C 
ATOM     11  C   UNL     1      -6.309  55.253  53.925  0.00  0.00    +0.000 C 
ENDROOT
BRANCH   1  15
ATOM     12  N   UNL     1     -14.385  55.333  51.222  0.00  0.00    +0.000 N 
ATOM     13  C   UNL     1     -13.048  55.474  51.571  0.00  0.00    +0.000 C 
ATOM     14  O   UNL     1     -12.599  56.536  51.981  0.00  0.00    +0.000 OA
ATOM     15  N   UNL     1     -12.293  54.351  51.306  0.00  0.00    +0.000 N 
ATOM     16  H   UNL     1     -14.684  54.465  50.865  0.00  0.00    +0.000 HD
ATOM     17  H   UNL     1     -12.696  53.547  50.902  0.00  0.00    +0.000 HD
BRANCH  12  18
ATOM     18  S   UNL     1     -15.511  56.549  51.376  0.00  0.00    +0.000 S 
ATOM     19  O   UNL     1     -15.712  56.866  52.770  0.00  0.00    +0.000 OA
ATOM     20  O   UNL     1     -16.627  56.134  50.557  0.00  0.00    +0.000 OA
BRANCH  18  21
ATOM     21  C   UNL     1     -14.924  58.012  50.577  0.00  0.00    +0.000 A 
ATOM     22  N   UNL     1     -14.354  58.081  49.327  0.00  0.00    +0.000 N 
ATOM     23  C   UNL     1     -14.894  59.321  51.043  0.00  0.00    +0.000 A 
ATOM     24  N   UNL     1     -14.000  59.341  48.969  0.00  0.00    +0.000 NA
ATOM     25  C   UNL     1     -14.066  57.047  48.360  0.00  0.00    +0.000 C 
ATOM     26  C   UNL     1     -14.320  60.085  50.023  0.00  0.00    +0.000 A 
ENDBRANCH  18  21
ENDBRANCH  12  18
ENDBRANCH   1  15
BRANCH   3  27
ATOM     27  C   UNL     1      -9.977  55.761  49.751  0.00  0.00    +0.000 C 
ATOM     28  O   UNL     1      -9.422  56.846  49.627  0.00  0.00    +0.000 OA
BRANCH  27  29
ATOM     29  O   UNL     1     -10.745  55.186  48.786  0.00  0.00    +0.000 OA
BRANCH  29  30
ATOM     30  C   UNL     1     -10.301  55.257  47.431  0.00  0.00    +0.000 C 
ATOM     31  C   UNL     1     -11.487  55.173  46.492  0.00  0.00    +0.000 C 
ENDBRANCH  29  30
ENDBRANCH  27  29
ENDBRANCH   3  27
TORSDOF 6
ENDMDL
MODEL 2
REMARK VINA RESULT:      -7.5      3.105      7.681
REMARK  Name = 
REMARK  10 active torsions:
REMARK  status: ('A' for Active; 'I' for Inactive)
REMARK    1  A    between atoms: S_1  and  N_4
REMARK    2  A    between atoms: S_1  and  C_5
REMARK    3  A    between atoms: N_7  and  C_12
REMARK    4  A    between atoms: N_10  and  C_14
REMARK    5  A    between atoms: C_16  and  C_19
REMARK    6  A    between atoms: C_19  and  O_23
REMARK    7  A    between atoms: O_23  and  C_26
REMARK    8  A    between atoms: C_24  and  C_27
REMARK    9  A    between atoms: C_24  and  C_28
REMARK   10  A    between atoms: C_26  and  C_29
REMARK                            x       y       z     vdW  Elec       q    Type
REMARK                         _______ _______ _______ _____ _____    ______ ____
ROOT
ATOM      1  C   UNL     1     -11.000  54.773  50.238  0.00  0.00    +0.000 A 
ATOM      2  S   UNL     1     -11.730  54.806  51.774  0.00  0.00    +0.000 S 
ATOM      3  C   UNL     1     -11.578  55.644  49.332  0.00  0.00    +0.000 A 
ATOM      4  C   UNL     1     -12.659  56.173  51.355  0.00  0.00    +0.000 A 
ATOM      5  C   UNL     1     -12.488  56.531  50.028  0.00  0.00    +0.000 A 
ATOM      6  C   UNL     1     -13.554  56.892  52.337  0.00  0.00    +0.000 C 
ATOM      7  C   UNL     1     -13.232  57.689  49.423  0.00  0.00    +0.000 C 
ATOM      8  C   UNL     1     -14.597  57.785  51.595  0.00  0.00    +0.000 C 
ATOM      9  C   UNL     1     -13.886  58.583  50.474  0.00  0.00    +0.000 C 
ATOM     10  C   UNL     1     -15.229  58.802  52.559  0.00  0.00    +0.000 C 
ATOM     11  C   UNL     1     -15.728  56.910  51.015  0.00  0.00    +0.000 C 
ENDROOT
BRANCH   1  15
ATOM     12  N   UNL     1      -7.684  53.412  50.380  0.00  0.00    +0.000 N 
ATOM     13  C   UNL     1      -8.699  54.345  50.557  0.00  0.00    +0.000 C 
ATOM     14  O   UNL     1      -8.504  55.403  51.140  0.00  0.00    +0.000 OA
ATOM     15  N   UNL     1      -9.928  53.906  50.111  0.00  0.00    +0.000 N 
ATOM     16  H   UNL     1      -7.906  52.562  49.934  0.00  0.00    +0.000 HD
ATOM     17  H   UNL     1     -10.039  53.010  49.718  0.00  0.00    +0.000 HD
BRANCH  12  18
ATOM     18  S   UNL     1      -6.115  53.651  50.880  0.00  0.00    +0.000 S 
ATOM     19  O   UNL     1      -5.592  54.869  50.308  0.00  0.00    +0.000 OA
ATOM     20  O   UNL     1      -5.449  52.392  50.640  0.00  0.00    +0.000 OA
BRANCH  18  21
ATOM     21  C   UNL     1      -6.067  53.825  52.638  0.00  0.00    +0.000 A 
ATOM     22  N   UNL     1      -6.587  52.942  53.555  0.00  0.00    +0.000 N 
ATOM     23  C   UNL     1      -5.545  54.857  53.409  0.00  0.00    +0.000 A 
ATOM     24  N   UNL     1      -6.400  53.334  54.841  0.00  0.00    +0.000 NA
ATOM     25  C   UNL     1      -7.298  51.698  53.373  0.00  0.00    +0.000 C 
ATOM     26  C   UNL     1      -5.777  54.504  54.741  0.00  0.00    +0.000 A 
ENDBRANCH  18  21
ENDBRANCH  12  18
ENDBRANCH   1  15
BRANCH   3  27
ATOM     27  C   UNL     1     -11.280  55.644  47.893  0.00  0.00    +0.000 C 
ATOM     28  O   UNL     1     -12.129  55.555  47.013  0.00  0.00    +0.000 OA
BRANCH  27  29
ATOM     29  O   UNL     1      -9.950  55.793  47.651  0.00  0.00    +0.000 OA
BRANCH  29  30
ATOM     30  C   UNL     1      -9.353  55.006  46.620  0.00  0.00    +0.000 C 
ATOM     31  C   UNL     1      -7.885  54.783  46.924  0.00  0.00    +0.000 C 
ENDBRANCH  29  30
ENDBRANCH  27  29
ENDBRANCH   3  27
TORSDOF 6
ENDMDL
MODEL 3
REMARK VINA RESULT:      -7.3      2.122      3.240
REMARK  Name = 
REMARK  10 active torsions:
REMARK  status: ('A' for Active; 'I' for Inactive)
REMARK    1  A    between atoms: S_1  and  N_4
REMARK    2  A    between atoms: S_1  and  C_5
REMARK    3  A    between atoms: N_7  and  C_12
REMARK    4  A    between atoms: N_10  and  C_14
REMARK    5  A    between atoms: C_16  and  C_19
REMARK    6  A    between atoms: C_19  and  O_23
REMARK    7  A    between atoms: O_23  and  C_26
REMARK    8  A    between atoms: C_24  and  C_27
REMARK    9  A    between atoms: C_24  and  C_28
REMARK   10  A    between atoms: C_26  and  C_29
REMARK                            x       y       z     vdW  Elec       q    Type
REMARK                         _______ _______ _______ _____ _____    ______ ____
ROOT
ATOM      1  C   UNL     1     -11.140  53.953  50.357  0.00  0.00    +0.000 A 
ATOM      2  S   UNL     1     -10.341  54.573  48.989  0.00  0.00    +0.000 S 
ATOM      3  C   UNL     1     -10.282  53.430  51.308  0.00  0.00    +0.000 A 
ATOM      4  C   UNL     1      -8.820  54.409  49.744  0.00  0.00    +0.000 A 
ATOM      5  C   UNL     1      -8.917  53.793  50.980  0.00  0.00    +0.000 A 
ATOM      6  C   UNL     1      -7.534  54.891  49.116  0.00  0.00    +0.000 C 
ATOM      7  C   UNL     1      -7.701  53.512  51.816  0.00  0.00    +0.000 C 
ATOM      8  C   UNL     1      -6.296  54.221  49.789  0.00  0.00    +0.000 C 
ATOM      9  C   UNL     1      -6.464  54.261  51.328  0.00  0.00    +0.000 C 
ATOM     10  C   UNL     1      -5.007  54.984  49.443  0.00  0.00    +0.000 C 
ATOM     11  C   UNL     1      -6.141  52.770  49.289  0.00  0.00    +0.000 C 
ENDROOT
BRANCH   1  15
ATOM     12  N   UNL     1     -14.450  55.264  50.789  0.00  0.00    +0.000 N 
ATOM     13  C   UNL     1     -13.061  55.240  50.838  0.00  0.00    +0.000 C 
ATOM     14  O   UNL     1     -12.414  56.212  51.201  0.00  0.00    +0.000 OA
ATOM     15  N   UNL     1     -12.518  54.073  50.341  0.00  0.00    +0.000 N 
ATOM     16  H   UNL     1     -14.918  54.464  50.455  0.00  0.00    +0.000 HD
ATOM     17  H   UNL     1     -13.090  53.352  49.989  0.00  0.00    +0.000 HD
BRANCH  12  18
ATOM     18  S   UNL     1     -15.365  56.569  51.266  0.00  0.00    +0.000 S 
ATOM     19  O   UNL     1     -15.270  56.747  52.695  0.00  0.00    +0.000 OA
ATOM     20  O   UNL     1     -16.653  56.373  50.642  0.00  0.00    +0.000 OA
BRANCH  18  21
ATOM     21  C   UNL     1     -14.750  58.041  50.506  0.00  0.00    +0.000 A 
ATOM     22  N   UNL     1     -14.322  58.165  49.204  0.00  0.00    +0.000 N 
ATOM     23  C   UNL     1     -14.555  59.304  51.054  0.00  0.00    +0.000 A 
ATOM     24  N   UNL     1     -13.904  59.418  48.894  0.00  0.00    +0.000 NA
ATOM     25  C   UNL     1     -14.235  57.191  48.140  0.00  0.00    +0.000 C 
ATOM     26  C   UNL     1     -14.038  60.099  50.028  0.00  0.00    +0.000 A 
ENDBRANCH  18  21
ENDBRANCH  12  18
ENDBRANCH   1  15
BRANCH   3  27
ATOM     27  C   UNL     1     -10.727  52.641  52.465  0.00  0.00    +0.000 C 
ATOM     28  O   UNL     1     -10.597  52.994  53.632  0.00  0.00    +0.000 OA
BRANCH  27  29
ATOM     29  O   UNL     1     -11.336  51.485  52.085  0.00  0.00    +0.000 OA
BRANCH  29  30
ATOM     30  C   UNL     1     -10.562  50.505  51.392  0.00  0.00    +0.000 C 
ATOM     31  C   UNL     1      -9.461  49.984  52.293  0.00  0.00    +0.000 C 
ENDBRANCH  29  30
ENDBRANCH  27  29
ENDBRANCH   3  27
TORSDOF 6
ENDMDL
MODEL 4
REMARK VINA RESULT:      -7.2      3.165      7.678
REMARK  Name = 
REMARK  10 active torsions:
REMARK  status: ('A' for Active; 'I' for Inactive)
REMARK    1  A    between atoms: S_1  and  N_4
REMARK    2  A    between atoms: S_1  and  C_5
REMARK    3  A    between atoms: N_7  and  C_12
REMARK    4  A    between atoms: N_10  and  C_14
REMARK    5  A    between atoms: C_16  and  C_19
REMARK    6  A    between atoms: C_19  and  O_23
REMARK    7  A    between atoms: O_23  and  C_26
REMARK    8  A    between atoms: C_24  and  C_27
REMARK    9  A    between atoms: C_24  and  C_28
REMARK   10  A    between atoms: C_26  and  C_29
REMARK                            x       y       z     vdW  Elec       q    Type
REMARK                         _______ _______ _______ _____ _____    ______ ____
ROOT
ATOM      1  C   UNL     1     -10.890  54.508  50.373  0.00  0.00    +0.000 A 
ATOM      2  S   UNL     1     -11.715  54.637  51.855  0.00  0.00    +0.000 S 
ATOM      3  C   UNL     1     -11.379  55.353  49.393  0.00  0.00    +0.000 A 
ATOM      4  C   UNL     1     -12.568  56.012  51.315  0.00  0.00    +0.000 A 
ATOM      5  C   UNL     1     -12.300  56.302  49.988  0.00  0.00    +0.000 A 
ATOM      6  C   UNL     1     -13.497  56.804  52.203  0.00  0.00    +0.000 C 
ATOM      7  C   UNL     1     -12.963  57.452  49.284  0.00  0.00    +0.000 C 
ATOM      8  C   UNL     1     -14.459  57.694  51.356  0.00  0.00    +0.000 C 
ATOM      9  C   UNL     1     -13.651  58.415  50.249  0.00  0.00    +0.000 C 
ATOM     10  C   UNL     1     -15.115  58.776  52.230  0.00  0.00    +0.000 C 
ATOM     11  C   UNL     1     -15.581  56.829  50.744  0.00  0.00    +0.000 C 
ENDROOT
BRANCH   1  15
ATOM     12  N   UNL     1      -7.604  53.095  50.634  0.00  0.00    +0.000 N 
ATOM     13  C   UNL     1      -8.590  54.073  50.688  0.00  0.00    +0.000 C 
ATOM     14  O   UNL     1      -8.352  55.204  51.088  0.00  0.00    +0.000 OA
ATOM     15  N   UNL     1      -9.843  53.603  50.355  0.00  0.00    +0.000 N 
ATOM     16  H   UNL     1      -7.860  52.191  50.336  0.00  0.00    +0.000 HD
ATOM     17  H   UNL     1      -9.988  52.658  50.114  0.00  0.00    +0.000 HD
BRANCH  12  18
ATOM     18  S   UNL     1      -6.014  53.367  51.042  0.00  0.00    +0.000 S 
ATOM     19  O   UNL     1      -5.490  54.477  50.284  0.00  0.00    +0.000 OA
ATOM     20  O   UNL     1      -5.380  52.071  50.965  0.00  0.00    +0.000 OA
BRANCH  18  21
ATOM     21  C   UNL     1      -5.900  53.790  52.754  0.00  0.00    +0.000 A 
ATOM     22  N   UNL     1      -6.505  53.126  53.796  0.00  0.00    +0.000 N 
ATOM     23  C   UNL     1      -5.232  54.849  53.359  0.00  0.00    +0.000 A 
ATOM     24  N   UNL     1      -6.237  53.677  55.008  0.00  0.00    +0.000 NA
ATOM     25  C   UNL     1      -7.372  51.972  53.806  0.00  0.00    +0.000 C 
ATOM     26  C   UNL     1      -5.474  54.729  54.731  0.00  0.00    +0.000 A 
ENDBRANCH  18  21
ENDBRANCH  12  18
ENDBRANCH   1  15
BRANCH   3  27
ATOM     27  C   UNL     1     -10.991  55.276  47.977  0.00  0.00    +0.000 C 
ATOM     28  O   UNL     1      -9.870  55.533  47.554  0.00  0.00    +0.000 OA
BRANCH  27  29
ATOM     29  O   UNL     1     -12.018  54.847  47.194  0.00  0.00    +0.000 OA
BRANCH  29  30
ATOM     30  C   UNL     1     -11.801  54.741  45.787  0.00  0.00    +0.000 C 
ATOM     31  C   UNL     1     -11.698  53.282  45.389  0.00  0.00    +0.000 C 
ENDBRANCH  29  30
ENDBRANCH  27  29
ENDBRANCH   3  27
TORSDOF 6
ENDMDL
MODEL 5
REMARK VINA RESULT:      -7.1      4.110      8.160
REMARK  Name = 
REMARK  10 active torsions:
REMARK  status: ('A' for Active; 'I' for Inactive)
REMARK    1  A    between atoms: S_1  and  N_4
REMARK    2  A    between atoms: S_1  and  C_5
REMARK    3  A    between atoms: N_7  and  C_12
REMARK    4  A    between atoms: N_10  and  C_14
REMARK    5  A    between atoms: C_16  and  C_19
REMARK    6  A    between atoms: C_19  and  O_23
REMARK    7  A    between atoms: O_23  and  C_26
REMARK    8  A    between atoms: C_24  and  C_27
REMARK    9  A    between atoms: C_24  and  C_28
REMARK   10  A    between atoms: C_26  and  C_29
REMARK                            x       y       z     vdW  Elec       q    Type
REMARK                         _______ _______ _______ _____ _____    ______ ____
ROOT
ATOM      1  C   UNL     1      -8.651  54.947  47.245  0.00  0.00    +0.000 A 
ATOM      2  S   UNL     1      -7.445  54.112  46.382  0.00  0.00    +0.000 S 
ATOM      3  C   UNL     1      -9.932  54.700  46.785  0.00  0.00    +0.000 A 
ATOM      4  C   UNL     1      -8.614  53.192  45.547  0.00  0.00    +0.000 A 
ATOM      5  C   UNL     1      -9.904  53.592  45.850  0.00  0.00    +0.000 A 
ATOM      6  C   UNL     1      -8.255  52.074  44.597  0.00  0.00    +0.000 C 
ATOM      7  C   UNL     1     -11.100  52.945  45.210  0.00  0.00    +0.000 C 
ATOM      8  C   UNL     1      -9.455  51.729  43.660  0.00  0.00    +0.000 C 
ATOM      9  C   UNL     1     -10.753  51.639  44.499  0.00  0.00    +0.000 C 
ATOM     10  C   UNL     1      -9.244  50.364  42.984  0.00  0.00    +0.000 C 
ATOM     11  C   UNL     1      -9.587  52.795  42.552  0.00  0.00    +0.000 C 
ENDROOT
BRANCH   1  15
ATOM     12  N   UNL     1      -7.677  56.021  50.526  0.00  0.00    +0.000 N 
ATOM     13  C   UNL     1      -8.139  55.155  49.541  0.00  0.00    +0.000 C 
ATOM     14  O   UNL     1      -8.372  53.978  49.780  0.00  0.00    +0.000 OA
ATOM     15  N   UNL     1      -8.194  55.731  48.290  0.00  0.00    +0.000 N 
ATOM     16  H   UNL     1      -7.472  56.950  50.269  0.00  0.00    +0.000 HD
ATOM     17  H   UNL     1      -7.919  56.666  48.144  0.00  0.00    +0.000 HD
BRANCH  12  18
ATOM     18  S   UNL     1      -7.453  55.576  52.113  0.00  0.00    +0.000 S 
ATOM     19  O   UNL     1      -8.562  54.771  52.564  0.00  0.00    +0.000 OA
ATOM     20  O   UNL     1      -7.115  56.800  52.802  0.00  0.00    +0.000 OA
BRANCH  18  21
ATOM     21  C   UNL     1      -5.991  54.594  52.258  0.00  0.00    +0.000 A 
ATOM     22  N   UNL     1      -5.488  54.053  53.419  0.00  0.00    +0.000 N 
ATOM     23  C   UNL     1      -5.080  54.215  51.278  0.00  0.00    +0.000 A 
ATOM     24  N   UNL     1      -4.348  53.341  53.228  0.00  0.00    +0.000 NA
ATOM     25  C   UNL     1      -5.960  54.133  54.782  0.00  0.00    +0.000 C 
ATOM     26  C   UNL     1      -4.103  53.455  51.927  0.00  0.00    +0.000 A 
ENDBRANCH  18  21
ENDBRANCH  12  18
ENDBRANCH   1  15
BRANCH   3  27
ATOM     27  C   UNL     1     -11.115  55.461  47.210  0.00  0.00    +0.000 C 
ATOM     28  O   UNL     1     -11.844  56.085  46.448  0.00  0.00    +0.000 OA
BRANCH  27  29
ATOM     29  O   UNL     1     -11.327  55.358  48.550  0.00  0.00    +0.000 OA
BRANCH  29  30
ATOM     30  C   UNL     1     -12.458  54.614  49.005  0.00  0.00    +0.000 C 
ATOM     31  C   UNL     1     -12.120  53.138  49.052  0.00  0.00    +0.000 C 
ENDBRANCH  29  30
ENDBRANCH  27  29
ENDBRANCH   3  27
TORSDOF 6
ENDMDL
MODEL 6
REMARK VINA RESULT:      -6.9      4.027      7.562
REMARK  Name = 
REMARK  10 active torsions:
REMARK  status: ('A' for Active; 'I' for Inactive)
REMARK    1  A    between atoms: S_1  and  N_4
REMARK    2  A    between atoms: S_1  and  C_5
REMARK    3  A    between atoms: N_7  and  C_12
REMARK    4  A    between atoms: N_10  and  C_14
REMARK    5  A    between atoms: C_16  and  C_19
REMARK    6  A    between atoms: C_19  and  O_23
REMARK    7  A    between atoms: O_23  and  C_26
REMARK    8  A    between atoms: C_24  and  C_27
REMARK    9  A    between atoms: C_24  and  C_28
REMARK   10  A    between atoms: C_26  and  C_29
REMARK                            x       y       z     vdW  Elec       q    Type
REMARK                         _______ _______ _______ _____ _____    ______ ____
ROOT
ATOM      1  C   UNL     1      -8.666  54.825  47.201  0.00  0.00    +0.000 A 
ATOM      2  S   UNL     1      -7.451  54.038  46.307  0.00  0.00    +0.000 S 
ATOM      3  C   UNL     1      -9.944  54.589  46.725  0.00  0.00    +0.000 A 
ATOM      4  C   UNL     1      -8.610  53.146  45.428  0.00  0.00    +0.000 A 
ATOM      5  C   UNL     1      -9.904  53.523  45.743  0.00  0.00    +0.000 A 
ATOM      6  C   UNL     1      -8.239  52.075  44.430  0.00  0.00    +0.000 C 
ATOM      7  C   UNL     1     -11.092  52.897  45.069  0.00  0.00    +0.000 C 
ATOM      8  C   UNL     1      -9.432  51.763  43.474  0.00  0.00    +0.000 C 
ATOM      9  C   UNL     1     -10.733  51.626  44.302  0.00  0.00    +0.000 C 
ATOM     10  C   UNL     1      -9.209  50.430  42.739  0.00  0.00    +0.000 C 
ATOM     11  C   UNL     1      -9.568  52.875  42.414  0.00  0.00    +0.000 C 
ENDROOT
BRANCH   1  15
ATOM     12  N   UNL     1      -7.580  55.725  50.498  0.00  0.00    +0.000 N 
ATOM     13  C   UNL     1      -8.019  54.898  49.471  0.00  0.00    +0.000 C 
ATOM     14  O   UNL     1      -8.114  53.687  49.618  0.00  0.00    +0.000 OA
ATOM     15  N   UNL     1      -8.220  55.565  48.281  0.00  0.00    +0.000 N 
ATOM     16  H   UNL     1      -7.488  56.688  50.313  0.00  0.00    +0.000 HD
ATOM     17  H   UNL     1      -8.052  56.533  48.203  0.00  0.00    +0.000 HD
BRANCH  12  18
ATOM     18  S   UNL     1      -7.201  55.178  52.023  0.00  0.00    +0.000 S 
ATOM     19  O   UNL     1      -7.212  56.275  52.961  0.00  0.00    +0.000 OA
ATOM     20  O   UNL     1      -6.008  54.381  51.851  0.00  0.00    +0.000 OA
BRANCH  18  21
ATOM     21  C   UNL     1      -8.414  54.009  52.558  0.00  0.00    +0.000 A 
ATOM     22  N   UNL     1      -9.776  54.199  52.567  0.00  0.00    +0.000 N 
ATOM     23  C   UNL     1      -8.240  52.733  53.083  0.00  0.00    +0.000 A 
ATOM     24  N   UNL     1     -10.464  53.125  53.029  0.00  0.00    +0.000 NA
ATOM     25  C   UNL     1     -10.574  55.341  52.184  0.00  0.00    +0.000 C 
ATOM     26  C   UNL     1      -9.521  52.245  53.352  0.00  0.00    +0.000 A 
ENDBRANCH  18  21
ENDBRANCH  12  18
ENDBRANCH   1  15
BRANCH   3  27
ATOM     27  C   UNL     1     -11.134  55.322  47.178  0.00  0.00    +0.000 C 
ATOM     28  O   UNL     1     -11.843  56.005  46.448  0.00  0.00    +0.000 OA
BRANCH  27  29
ATOM     29  O   UNL     1     -11.378  55.121  48.501  0.00  0.00    +0.000 OA
BRANCH  29  30
ATOM     30  C   UNL     1     -12.320  54.114  48.874  0.00  0.00    +0.000 C 
ATOM     31  C   UNL     1     -11.598  52.933  49.491  0.00  0.00    +0.000 C 
ENDBRANCH  29  30
ENDBRANCH  27  29
ENDBRANCH   3  27
TORSDOF 6
ENDMDL
MODEL 7
REMARK VINA RESULT:      -6.8      3.389      8.163
REMARK  Name = 
REMARK  10 active torsions:
REMARK  status: ('A' for Active; 'I' for Inactive)
REMARK    1  A    between atoms: S_1  and  N_4
REMARK    2  A    between atoms: S_1  and  C_5
REMARK    3  A    between atoms: N_7  and  C_12
REMARK    4  A    between atoms: N_10  and  C_14
REMARK    5  A    between atoms: C_16  and  C_19
REMARK    6  A    between atoms: C_19  and  O_23
REMARK    7  A    between atoms: O_23  and  C_26
REMARK    8  A    between atoms: C_24  and  C_27
REMARK    9  A    between atoms: C_24  and  C_28
REMARK   10  A    between atoms: C_26  and  C_29
REMARK                            x       y       z     vdW  Elec       q    Type
REMARK                         _______ _______ _______ _____ _____    ______ ____
ROOT
ATOM      1  C   UNL     1     -11.090  54.889  50.265  0.00  0.00    +0.000 A 
ATOM      2  S   UNL     1     -11.685  54.926  51.858  0.00  0.00    +0.000 S 
ATOM      3  C   UNL     1     -11.771  55.729  49.401  0.00  0.00    +0.000 A 
ATOM      4  C   UNL     1     -12.688  56.259  51.503  0.00  0.00    +0.000 A 
ATOM      5  C   UNL     1     -12.643  56.601  50.162  0.00  0.00    +0.000 A 
ATOM      6  C   UNL     1     -13.515  56.968  52.550  0.00  0.00    +0.000 C 
ATOM      7  C   UNL     1     -13.471  57.727  49.609  0.00  0.00    +0.000 C 
ATOM      8  C   UNL     1     -14.644  57.819  51.889  0.00  0.00    +0.000 C 
ATOM      9  C   UNL     1     -14.058  58.618  50.700  0.00  0.00    +0.000 C 
ATOM     10  C   UNL     1     -15.221  58.833  52.891  0.00  0.00    +0.000 C 
ATOM     11  C   UNL     1     -15.795  56.903  51.423  0.00  0.00    +0.000 C 
ENDROOT
BRANCH   1  15
ATOM     12  N   UNL     1      -7.728  53.671  50.000  0.00  0.00    +0.000 N 
ATOM     13  C   UNL     1      -8.749  54.582  50.240  0.00  0.00    +0.000 C 
ATOM     14  O   UNL     1      -8.519  55.707  50.664  0.00  0.00    +0.000 OA
ATOM     15  N   UNL     1     -10.008  54.052  50.057  0.00  0.00    +0.000 N 
ATOM     16  H   UNL     1      -7.973  52.767  49.693  0.00  0.00    +0.000 HD
ATOM     17  H   UNL     1     -10.133  53.112  49.788  0.00  0.00    +0.000 HD
BRANCH  12  18
ATOM     18  S   UNL     1      -6.114  54.021  50.202  0.00  0.00    +0.000 S 
ATOM     19  O   UNL     1      -5.888  54.587  51.510  0.00  0.00    +0.000 OA
ATOM     20  O   UNL     1      -5.738  54.758  49.017  0.00  0.00    +0.000 OA
BRANCH  18  21
ATOM     21  C   UNL     1      -5.161  52.537  50.093  0.00  0.00    +0.000 A 
ATOM     22  N   UNL     1      -4.985  51.610  51.094  0.00  0.00    +0.000 N 
ATOM     23  C   UNL     1      -4.408  52.046  49.032  0.00  0.00    +0.000 A 
ATOM     24  N   UNL     1      -4.203  50.564  50.725  0.00  0.00    +0.000 NA
ATOM     25  C   UNL     1      -5.476  51.579  52.452  0.00  0.00    +0.000 C 
ATOM     26  C   UNL     1      -3.848  50.844  49.474  0.00  0.00    +0.000 A 
ENDBRANCH  18  21
ENDBRANCH  12  18
ENDBRANCH   1  15
BRANCH   3  27
ATOM     27  C   UNL     1     -11.600  55.714  47.941  0.00  0.00    +0.000 C 
ATOM     28  O   UNL     1     -12.524  55.661  47.139  0.00  0.00    +0.000 OA
BRANCH  27  29
ATOM     29  O   UNL     1     -10.290  55.806  47.585  0.00  0.00    +0.000 OA
BRANCH  29  30
ATOM     30  C   UNL     1      -9.794  54.921  46.580  0.00  0.00    +0.000 C 
ATOM     31  C   UNL     1      -8.286  55.031  46.491  0.00  0.00    +0.000 C 
ENDBRANCH  29  30
ENDBRANCH  27  29
ENDBRANCH   3  27
TORSDOF 6
ENDMDL
MODEL 8
REMARK VINA RESULT:      -6.7      2.528      4.628
REMARK  Name = 
REMARK  10 active torsions:
REMARK  status: ('A' for Active; 'I' for Inactive)
REMARK    1  A    between atoms: S_1  and  N_4
REMARK    2  A    between atoms: S_1  and  C_5
REMARK    3  A    between atoms: N_7  and  C_12
REMARK    4  A    between atoms: N_10  and  C_14
REMARK    5  A    between atoms: C_16  and  C_19
REMARK    6  A    between atoms: C_19  and  O_23
REMARK    7  A    between atoms: O_23  and  C_26
REMARK    8  A    between atoms: C_24  and  C_27
REMARK    9  A    between atoms: C_24  and  C_28
REMARK   10  A    between atoms: C_26  and  C_29
REMARK                            x       y       z     vdW  Elec       q    Type
REMARK                         _______ _______ _______ _____ _____    ______ ____
ROOT
ATOM      1  C   UNL     1     -11.556  53.857  49.189  0.00  0.00    +0.000 A 
ATOM      2  S   UNL     1     -12.095  52.969  47.842  0.00  0.00    +0.000 S 
ATOM      3  C   UNL     1     -10.241  54.276  49.085  0.00  0.00    +0.000 A 
ATOM      4  C   UNL     1     -10.682  53.348  46.966  0.00  0.00    +0.000 A 
ATOM      5  C   UNL     1      -9.770  54.055  47.731  0.00  0.00    +0.000 A 
ATOM      6  C   UNL     1     -10.476  52.951  45.524  0.00  0.00    +0.000 C 
ATOM      7  C   UNL     1      -8.435  54.472  47.180  0.00  0.00    +0.000 C 
ATOM      8  C   UNL     1      -8.967  53.018  45.133  0.00  0.00    +0.000 C 
ATOM      9  C   UNL     1      -8.358  54.340  45.661  0.00  0.00    +0.000 C 
ATOM     10  C   UNL     1      -8.798  53.008  43.605  0.00  0.00    +0.000 C 
ATOM     11  C   UNL     1      -8.216  51.798  45.705  0.00  0.00    +0.000 C 
ENDROOT
BRANCH   1  15
ATOM     12  N   UNL     1     -14.248  55.257  51.100  0.00  0.00    +0.000 N 
ATOM     13  C   UNL     1     -13.344  55.136  50.051  0.00  0.00    +0.000 C 
ATOM     14  O   UNL     1     -13.387  55.875  49.077  0.00  0.00    +0.000 OA
ATOM     15  N   UNL     1     -12.498  54.055  50.183  0.00  0.00    +0.000 N 
ATOM     16  H   UNL     1     -14.189  54.612  51.842  0.00  0.00    +0.000 HD
ATOM     17  H   UNL     1     -12.562  53.446  50.956  0.00  0.00    +0.000 HD
BRANCH  12  18
ATOM     18  S   UNL     1     -15.423  56.433  51.171  0.00  0.00    +0.000 S 
ATOM     19  O   UNL     1     -15.839  56.637  52.538  0.00  0.00    +0.000 OA
ATOM     20  O   UNL     1     -16.391  56.059  50.165  0.00  0.00    +0.000 OA
BRANCH  18  21
ATOM     21  C   UNL     1     -14.773  57.966  50.580  0.00  0.00    +0.000 A 
ATOM     22  N   UNL     1     -14.265  58.985  51.352  0.00  0.00    +0.000 N 
ATOM     23  C   UNL     1     -14.677  58.441  49.276  0.00  0.00    +0.000 A 
ATOM     24  N   UNL     1     -13.833  60.045  50.624  0.00  0.00    +0.000 NA
ATOM     25  C   UNL     1     -14.134  59.110  52.785  0.00  0.00    +0.000 C 
ATOM     26  C   UNL     1     -14.098  59.710  49.365  0.00  0.00    +0.000 A 
ENDBRANCH  18  21
ENDBRANCH  12  18
ENDBRANCH   1  15
BRANCH   3  27
ATOM     27  C   UNL     1      -9.478  54.860  50.196  0.00  0.00    +0.000 C 
ATOM     28  O   UNL     1      -8.779  54.213  50.968  0.00  0.00    +0.000 OA
BRANCH  27  29
ATOM     29  O   UNL     1      -9.608  56.214  50.243  0.00  0.00    +0.000 OA
BRANCH  29  30
ATOM     30  C   UNL     1      -8.494  57.019  49.856  0.00  0.00    +0.000 C 
ATOM     31  C   UNL     1      -7.515  57.134  51.007  0.00  0.00    +0.000 C 
ENDBRANCH  29  30
ENDBRANCH  27  29
ENDBRANCH   3  27
TORSDOF 6
ENDMDL
MODEL 9
REMARK VINA RESULT:      -6.7      1.622      2.042
REMARK  Name = 
REMARK  10 active torsions:
REMARK  status: ('A' for Active; 'I' for Inactive)
REMARK    1  A    between atoms: S_1  and  N_4
REMARK    2  A    between atoms: S_1  and  C_5
REMARK    3  A    between atoms: N_7  and  C_12
REMARK    4  A    between atoms: N_10  and  C_14
REMARK    5  A    between atoms: C_16  and  C_19
REMARK    6  A    between atoms: C_19  and  O_23
REMARK    7  A    between atoms: O_23  and  C_26
REMARK    8  A    between atoms: C_24  and  C_27
REMARK    9  A    between atoms: C_24  and  C_28
REMARK   10  A    between atoms: C_26  and  C_29
REMARK                            x       y       z     vdW  Elec       q    Type
REMARK                         _______ _______ _______ _____ _____    ______ ____
ROOT
ATOM      1  C   UNL     1     -11.107  53.669  51.323  0.00  0.00    +0.000 A 
ATOM      2  S   UNL     1     -10.521  54.053  52.873  0.00  0.00    +0.000 S 
ATOM      3  C   UNL     1     -10.112  53.317  50.428  0.00  0.00    +0.000 A 
ATOM      4  C   UNL     1      -8.958  53.502  52.471  0.00  0.00    +0.000 A 
ATOM      5  C   UNL     1      -8.864  53.128  51.141  0.00  0.00    +0.000 A 
ATOM      6  C   UNL     1      -7.827  53.436  53.470  0.00  0.00    +0.000 C 
ATOM      7  C   UNL     1      -7.572  52.639  50.550  0.00  0.00    +0.000 C 
ATOM      8  C   UNL     1      -6.447  53.339  52.748  0.00  0.00    +0.000 C 
ATOM      9  C   UNL     1      -6.533  52.290  51.613  0.00  0.00    +0.000 C 
ATOM     10  C   UNL     1      -5.351  52.878  53.724  0.00  0.00    +0.000 C 
ATOM     11  C   UNL     1      -6.040  54.720  52.192  0.00  0.00    +0.000 C 
ENDROOT
BRANCH   1  15
ATOM     12  N   UNL     1     -14.412  54.941  50.758  0.00  0.00    +0.000 N 
ATOM     13  C   UNL     1     -13.028  54.969  50.878  0.00  0.00    +0.000 C 
ATOM     14  O   UNL     1     -12.383  55.981  50.641  0.00  0.00    +0.000 OA
ATOM     15  N   UNL     1     -12.481  53.738  51.176  0.00  0.00    +0.000 N 
ATOM     16  H   UNL     1     -14.877  54.089  50.928  0.00  0.00    +0.000 HD
ATOM     17  H   UNL     1     -13.047  52.938  51.280  0.00  0.00    +0.000 HD
BRANCH  12  18
ATOM     18  S   UNL     1     -15.328  56.268  50.347  0.00  0.00    +0.000 S 
ATOM     19  O   UNL     1     -16.727  55.915  50.317  0.00  0.00    +0.000 OA
ATOM     20  O   UNL     1     -14.691  56.814  49.170  0.00  0.00    +0.000 OA
BRANCH  18  21
ATOM     21  C   UNL     1     -15.125  57.535  51.562  0.00  0.00    +0.000 A 
ATOM     22  N   UNL     1     -14.597  58.788  51.348  0.00  0.00    +0.000 N 
ATOM     23  C   UNL     1     -15.416  57.510  52.921  0.00  0.00    +0.000 A 
ATOM     24  N   UNL     1     -14.567  59.554  52.468  0.00  0.00    +0.000 NA
ATOM     25  C   UNL     1     -14.069  59.400  50.151  0.00  0.00    +0.000 C 
ATOM     26  C   UNL     1     -15.054  58.765  53.420  0.00  0.00    +0.000 A 
ENDBRANCH  18  21
ENDBRANCH  12  18
ENDBRANCH   1  15
BRANCH   3  27
ATOM     27  C   UNL     1     -10.330  53.159  48.983  0.00  0.00    +0.000 C 
ATOM     28  O   UNL     1     -10.242  52.094  48.384  0.00  0.00    +0.000 OA
BRANCH  27  29
ATOM     29  O   UNL     1     -10.678  54.335  48.393  0.00  0.00    +0.000 OA
BRANCH  29  30
ATOM     30  C   UNL     1     -11.808  54.349  47.519  0.00  0.00    +0.000 C 
ATOM     31  C   UNL     1     -11.361  54.647  46.102  0.00  0.00    +0.000 C 
ENDBRANCH  29  30
ENDBRANCH  27  29
ENDBRANCH   3  27
TORSDOF 6
ENDMDL
