MODEL 1
REMARK VINA RESULT:      -8.0      0.000      0.000
REMARK  Name = 
REMARK  9 active torsions:
REMARK  status: ('A' for Active; 'I' for Inactive)
REMARK    1  A    between atoms: S_1  and  N_4
REMARK    2  A    between atoms: S_1  and  C_5
REMARK    3  A    between atoms: N_10  and  C_13
REMARK    4  A    between atoms: C_16  and  C_19
REMARK    5  A    between atoms: C_19  and  O_23
REMARK    6  A    between atoms: O_23  and  C_26
REMARK    7  A    between atoms: C_24  and  C_27
REMARK    8  A    between atoms: C_24  and  C_28
REMARK    9  A    between atoms: C_26  and  C_29
REMARK                            x       y       z     vdW  Elec       q    Type
REMARK                         _______ _______ _______ _____ _____    ______ ____
ROOT
ATOM      1  C   UNL     1     -10.923  54.497  51.480  0.00  0.00    +0.000 A 
ATOM      2  S   UNL     1     -10.545  53.750  52.959  0.00  0.00    +0.000 S 
ATOM      3  C   UNL     1      -9.830  55.083  50.862  0.00  0.00    +0.000 A 
ATOM      4  C   UNL     1      -8.873  53.925  52.671  0.00  0.00    +0.000 A 
ATOM      5  C   UNL     1      -8.615  54.640  51.513  0.00  0.00    +0.000 A 
ATOM      6  C   UNL     1      -7.828  53.349  53.592  0.00  0.00    +0.000 C 
ATOM      7  C   UNL     1      -7.214  54.955  51.073  0.00  0.00    +0.000 C 
ATOM      8  C   UNL     1      -6.438  54.010  53.346  0.00  0.00    +0.000 C 
ATOM      9  C   UNL     1      -6.174  54.108  51.818  0.00  0.00    +0.000 C 
ATOM     10  C   UNL     1      -5.322  53.153  53.972  0.00  0.00    +0.000 C 
ATOM     11  C   UNL     1      -6.388  55.404  54.004  0.00  0.00    +0.000 C 
ENDROOT
BRANCH   1  15
ATOM     12  N   UNL     1     -14.422  55.236  51.122  0.00  0.00    +0.000 N 
ATOM     13  C   UNL     1     -13.100  55.430  51.496  0.00  0.00    +0.000 C 
ATOM     14  O   UNL     1     -12.745  56.450  52.069  0.00  0.00    +0.000 OA
ATOM     15  N   UNL     1     -12.253  54.413  51.110  0.00  0.00    +0.000 N 
ATOM     16  H   UNL     1     -14.686  54.368  50.741  0.00  0.00    +0.000 HD
ATOM     17  H   UNL     1     -12.585  53.647  50.587  0.00  0.00    +0.000 HD
BRANCH  12  18
ATOM     18  S   UNL     1     -15.581  56.429  51.301  0.00  0.00    +0.000 S 
ATOM     19  O   UNL     1     -15.690  56.764  52.706  0.00  0.00    +0.000 OA
ATOM     20  O   UNL     1     -16.748  55.953  50.580  0.00  0.00    +0.000 OA
BRANCH  18  21
ATOM     21  C   UNL     1     -14.916  57.838  50.416  0.00  0.00    +0.000 A 
ATOM     22  N   UNL     1     -14.333  57.535  49.223  0.00  0.00    +0.000 NA
ATOM     23  C   UNL     1     -15.010  59.113  50.943  0.00  0.00    +0.000 A 
ATOM     24  C   UNL     1     -13.850  58.584  48.524  0.00  0.00    +0.000 A 
ATOM     25  C   UNL     1     -14.487  60.165  50.203  0.00  0.00    +0.000 A 
ATOM     26  C   UNL     1     -13.906  59.899  48.965  0.00  0.00    +0.000 A 
ENDBRANCH  18  21
ENDBRANCH  12  18
ENDBRANCH   1  15
BRANCH   3  27
ATOM     27  C   UNL     1      -9.900  56.046  49.752  0.00  0.00    +0.000 C 
ATOM     28  O   UNL     1      -9.174  57.032  49.668  0.00  0.00    +0.000 OA
BRANCH  27  29
ATOM     29  O   UNL     1     -10.958  55.808  48.923  0.00  0.00    +0.000 OA
BRANCH  29  30
ATOM     30  C   UNL     1     -10.686  55.302  47.613  0.00  0.00    +0.000 C 
ATOM     31  C   UNL     1     -11.768  55.711  46.635  0.00  0.00    +0.000 C 
ENDBRANCH  29  30
ENDBRANCH  27  29
ENDBRANCH   3  27
TORSDOF 6
ENDMDL
MODEL 2
REMARK VINA RESULT:      -7.7      2.806      7.702
REMARK  Name = 
REMARK  9 active torsions:
REMARK  status: ('A' for Active; 'I' for Inactive)
REMARK    1  A    between atoms: S_1  and  N_4
REMARK    2  A    between atoms: S_1  and  C_5
REMARK    3  A    between atoms: N_10  and  C_13
REMARK    4  A    between atoms: C_16  and  C_19
REMARK    5  A    between atoms: C_19  and  O_23
REMARK    6  A    between atoms: O_23  and  C_26
REMARK    7  A    between atoms: C_24  and  C_27
REMARK    8  A    between atoms: C_24  and  C_28
REMARK    9  A    between atoms: C_26  and  C_29
REMARK                            x       y       z     vdW  Elec       q    Type
REMARK                         _______ _______ _______ _____ _____    ______ ____
ROOT
ATOM      1  C   UNL     1     -11.021  54.826  50.099  0.00  0.00    +0.000 A 
ATOM      2  S   UNL     1     -11.719  54.801  51.648  0.00  0.00    +0.000 S 
ATOM      3  C   UNL     1     -11.641  55.706  49.228  0.00  0.00    +0.000 A 
ATOM      4  C   UNL     1     -12.667  56.173  51.292  0.00  0.00    +0.000 A 
ATOM      5  C   UNL     1     -12.529  56.574  49.973  0.00  0.00    +0.000 A 
ATOM      6  C   UNL     1     -13.539  56.844  52.321  0.00  0.00    +0.000 C 
ATOM      7  C   UNL     1     -13.298  57.737  49.416  0.00  0.00    +0.000 C 
ATOM      8  C   UNL     1     -14.598  57.766  51.644  0.00  0.00    +0.000 C 
ATOM      9  C   UNL     1     -13.919  58.599  50.523  0.00  0.00    +0.000 C 
ATOM     10  C   UNL     1     -15.191  58.744  52.676  0.00  0.00    +0.000 C 
ATOM     11  C   UNL     1     -15.756  56.919  51.078  0.00  0.00    +0.000 C 
ENDROOT
BRANCH   1  15
ATOM     12  N   UNL     1      -7.665  53.544  49.980  0.00  0.00    +0.000 N 
ATOM     13  C   UNL     1      -8.685  54.453  50.221  0.00  0.00    +0.000 C 
ATOM     14  O   UNL     1      -8.453  55.556  50.695  0.00  0.00    +0.000 OA
ATOM     15  N   UNL     1      -9.944  53.972  49.933  0.00  0.00    +0.000 N 
ATOM     16  H   UNL     1      -7.879  52.701  49.518  0.00  0.00    +0.000 HD
ATOM     17  H   UNL     1     -10.075  53.049  49.619  0.00  0.00    +0.000 HD
BRANCH  12  18
ATOM     18  S   UNL     1      -6.085  53.834  50.447  0.00  0.00    +0.000 S 
ATOM     19  O   UNL     1      -5.708  55.161  50.008  0.00  0.00    +0.000 OA
ATOM     20  O   UNL     1      -5.325  52.681  49.997  0.00  0.00    +0.000 OA
BRANCH  18  21
ATOM     21  C   UNL     1      -6.134  53.805  52.238  0.00  0.00    +0.000 A 
ATOM     22  N   UNL     1      -5.465  54.827  52.840  0.00  0.00    +0.000 NA
ATOM     23  C   UNL     1      -6.808  52.802  52.911  0.00  0.00    +0.000 A 
ATOM     24  C   UNL     1      -5.512  54.843  54.190  0.00  0.00    +0.000 A 
ATOM     25  C   UNL     1      -6.820  52.842  54.299  0.00  0.00    +0.000 A 
ATOM     26  C   UNL     1      -6.170  53.888  54.952  0.00  0.00    +0.000 A 
ENDBRANCH  18  21
ENDBRANCH  12  18
ENDBRANCH   1  15
BRANCH   3  27
ATOM     27  C   UNL     1     -11.462  55.721  47.768  0.00  0.00    +0.000 C 
ATOM     28  O   UNL     1     -12.393  55.635  46.974  0.00  0.00    +0.000 OA
BRANCH  27  29
ATOM     29  O   UNL     1     -10.147  55.680  47.405  0.00  0.00    +0.000 OA
BRANCH  29  30
ATOM     30  C   UNL     1      -9.749  54.719  46.422  0.00  0.00    +0.000 C 
ATOM     31  C   UNL     1      -8.294  54.899  46.042  0.00  0.00    +0.000 C 
ENDBRANCH  29  30
ENDBRANCH  27  29
ENDBRANCH   3  27
TORSDOF 6
ENDMDL
MODEL 3
REMARK VINA RESULT:      -7.2      4.085      7.575
REMARK  Name = 
REMARK  9 active torsions:
REMARK  status: ('A' for Active; 'I' for Inactive)
REMARK    1  A    between atoms: S_1  and  N_4
REMARK    2  A    between atoms: S_1  and  C_5
REMARK    3  A    between atoms: N_10  and  C_13
REMARK    4  A    between atoms: C_16  and  C_19
REMARK    5  A    between atoms: C_19  and  O_23
REMARK    6  A    between atoms: O_23  and  C_26
REMARK    7  A    between atoms: C_24  and  C_27
REMARK    8  A    between atoms: C_24  and  C_28
REMARK    9  A    between atoms: C_26  and  C_29
REMARK                            x       y       z     vdW  Elec       q    Type
REMARK                         _______ _______ _______ _____ _____    ______ ____
ROOT
ATOM      1  C   UNL     1      -8.732  54.968  47.191  0.00  0.00    +0.000 A 
ATOM      2  S   UNL     1      -7.506  54.247  46.260  0.00  0.00    +0.000 S 
ATOM      3  C   UNL     1     -10.009  54.677  46.741  0.00  0.00    +0.000 A 
ATOM      4  C   UNL     1      -8.643  53.292  45.422  0.00  0.00    +0.000 A 
ATOM      5  C   UNL     1      -9.945  53.601  45.775  0.00  0.00    +0.000 A 
ATOM      6  C   UNL     1      -8.236  52.240  44.422  0.00  0.00    +0.000 C 
ATOM      7  C   UNL     1     -11.122  52.917  45.139  0.00  0.00    +0.000 C 
ATOM      8  C   UNL     1      -9.435  51.840  43.510  0.00  0.00    +0.000 C 
ATOM      9  C   UNL     1     -10.707  51.649  44.381  0.00  0.00    +0.000 C 
ATOM     10  C   UNL     1      -9.139  50.508  42.794  0.00  0.00    +0.000 C 
ATOM     11  C   UNL     1      -9.663  52.916  42.428  0.00  0.00    +0.000 C 
ENDROOT
BRANCH   1  15
ATOM     12  N   UNL     1      -7.675  55.957  50.480  0.00  0.00    +0.000 N 
ATOM     13  C   UNL     1      -8.080  55.105  49.464  0.00  0.00    +0.000 C 
ATOM     14  O   UNL     1      -8.188  53.901  49.650  0.00  0.00    +0.000 OA
ATOM     15  N   UNL     1      -8.281  55.732  48.253  0.00  0.00    +0.000 N 
ATOM     16  H   UNL     1      -7.682  56.928  50.318  0.00  0.00    +0.000 HD
ATOM     17  H   UNL     1      -8.110  56.695  48.146  0.00  0.00    +0.000 HD
BRANCH  12  18
ATOM     18  S   UNL     1      -7.175  55.389  51.973  0.00  0.00    +0.000 S 
ATOM     19  O   UNL     1      -7.012  56.516  52.867  0.00  0.00    +0.000 OA
ATOM     20  O   UNL     1      -6.050  54.513  51.702  0.00  0.00    +0.000 OA
BRANCH  18  21
ATOM     21  C   UNL     1      -8.540  54.381  52.549  0.00  0.00    +0.000 A 
ATOM     22  N   UNL     1      -8.184  53.142  52.989  0.00  0.00    +0.000 NA
ATOM     23  C   UNL     1      -9.836  54.866  52.528  0.00  0.00    +0.000 A 
ATOM     24  C   UNL     1      -9.192  52.375  53.457  0.00  0.00    +0.000 A 
ATOM     25  C   UNL     1     -10.848  54.041  53.000  0.00  0.00    +0.000 A 
ATOM     26  C   UNL     1     -10.521  52.776  53.485  0.00  0.00    +0.000 A 
ENDBRANCH  18  21
ENDBRANCH  12  18
ENDBRANCH   1  15
BRANCH   3  27
ATOM     27  C   UNL     1     -11.232  55.389  47.145  0.00  0.00    +0.000 C 
ATOM     28  O   UNL     1     -11.948  56.000  46.358  0.00  0.00    +0.000 OA
BRANCH  27  29
ATOM     29  O   UNL     1     -11.388  55.425  48.501  0.00  0.00    +0.000 OA
BRANCH  29  30
ATOM     30  C   UNL     1     -12.413  54.614  49.083  0.00  0.00    +0.000 C 
ATOM     31  C   UNL     1     -11.883  53.243  49.446  0.00  0.00    +0.000 C 
ENDBRANCH  29  30
ENDBRANCH  27  29
ENDBRANCH   3  27
TORSDOF 6
ENDMDL
MODEL 4
REMARK VINA RESULT:      -7.1      2.688      4.064
REMARK  Name = 
REMARK  9 active torsions:
REMARK  status: ('A' for Active; 'I' for Inactive)
REMARK    1  A    between atoms: S_1  and  N_4
REMARK    2  A    between atoms: S_1  and  C_5
REMARK    3  A    between atoms: N_10  and  C_13
REMARK    4  A    between atoms: C_16  and  C_19
REMARK    5  A    between atoms: C_19  and  O_23
REMARK    6  A    between atoms: O_23  and  C_26
REMARK    7  A    between atoms: C_24  and  C_27
REMARK    8  A    between atoms: C_24  and  C_28
REMARK    9  A    between atoms: C_26  and  C_29
REMARK                            x       y       z     vdW  Elec       q    Type
REMARK                         _______ _______ _______ _____ _____    ______ ____
ROOT
ATOM      1  C   UNL     1     -11.460  53.437  49.958  0.00  0.00    +0.000 A 
ATOM      2  S   UNL     1     -11.007  53.983  48.414  0.00  0.00    +0.000 S 
ATOM      3  C   UNL     1     -10.491  52.665  50.577  0.00  0.00    +0.000 A 
ATOM      4  C   UNL     1      -9.401  53.461  48.652  0.00  0.00    +0.000 A 
ATOM      5  C   UNL     1      -9.245  52.784  49.849  0.00  0.00    +0.000 A 
ATOM      6  C   UNL     1      -8.306  53.728  47.651  0.00  0.00    +0.000 C 
ATOM      7  C   UNL     1      -7.925  52.195  50.259  0.00  0.00    +0.000 C 
ATOM      8  C   UNL     1      -7.083  52.793  47.895  0.00  0.00    +0.000 C 
ATOM      9  C   UNL     1      -6.766  52.739  49.414  0.00  0.00    +0.000 C 
ATOM     10  C   UNL     1      -5.841  53.337  47.164  0.00  0.00    +0.000 C 
ATOM     11  C   UNL     1      -7.374  51.382  47.342  0.00  0.00    +0.000 C 
ENDROOT
BRANCH   1  15
ATOM     12  N   UNL     1     -14.117  55.335  51.460  0.00  0.00    +0.000 N 
ATOM     13  C   UNL     1     -12.828  55.037  51.045  0.00  0.00    +0.000 C 
ATOM     14  O   UNL     1     -11.904  55.816  51.232  0.00  0.00    +0.000 OA
ATOM     15  N   UNL     1     -12.718  53.840  50.370  0.00  0.00    +0.000 N 
ATOM     16  H   UNL     1     -14.817  54.649  51.369  0.00  0.00    +0.000 HD
ATOM     17  H   UNL     1     -13.511  53.286  50.187  0.00  0.00    +0.000 HD
BRANCH  12  18
ATOM     18  S   UNL     1     -14.522  56.822  52.111  0.00  0.00    +0.000 S 
ATOM     19  O   UNL     1     -13.555  57.159  53.135  0.00  0.00    +0.000 OA
ATOM     20  O   UNL     1     -15.931  56.732  52.450  0.00  0.00    +0.000 OA
BRANCH  18  21
ATOM     21  C   UNL     1     -14.349  57.971  50.747  0.00  0.00    +0.000 A 
ATOM     22  N   UNL     1     -14.268  59.281  51.116  0.00  0.00    +0.000 NA
ATOM     23  C   UNL     1     -14.308  57.518  49.441  0.00  0.00    +0.000 A 
ATOM     24  C   UNL     1     -14.108  60.164  50.107  0.00  0.00    +0.000 A 
ATOM     25  C   UNL     1     -14.160  58.458  48.430  0.00  0.00    +0.000 A 
ATOM     26  C   UNL     1     -14.045  59.805  48.767  0.00  0.00    +0.000 A 
ENDBRANCH  18  21
ENDBRANCH  12  18
ENDBRANCH   1  15
BRANCH   3  27
ATOM     27  C   UNL     1     -10.711  51.816  51.759  0.00  0.00    +0.000 C 
ATOM     28  O   UNL     1     -10.741  50.591  51.712  0.00  0.00    +0.000 OA
BRANCH  27  29
ATOM     29  O   UNL     1     -11.032  52.544  52.868  0.00  0.00    +0.000 OA
BRANCH  29  30
ATOM     30  C   UNL     1      -9.968  52.983  53.717  0.00  0.00    +0.000 C 
ATOM     31  C   UNL     1      -9.698  54.462  53.532  0.00  0.00    +0.000 C 
ENDBRANCH  29  30
ENDBRANCH  27  29
ENDBRANCH   3  27
TORSDOF 6
ENDMDL
MODEL 5
REMARK VINA RESULT:      -7.1      1.779      1.969
REMARK  Name = 
REMARK  9 active torsions:
REMARK  status: ('A' for Active; 'I' for Inactive)
REMARK    1  A    between atoms: S_1  and  N_4
REMARK    2  A    between atoms: S_1  and  C_5
REMARK    3  A    between atoms: N_10  and  C_13
REMARK    4  A    between atoms: C_16  and  C_19
REMARK    5  A    between atoms: C_19  and  O_23
REMARK    6  A    between atoms: O_23  and  C_26
REMARK    7  A    between atoms: C_24  and  C_27
REMARK    8  A    between atoms: C_24  and  C_28
REMARK    9  A    between atoms: C_26  and  C_29
REMARK                            x       y       z     vdW  Elec       q    Type
REMARK                         _______ _______ _______ _____ _____    ______ ____
ROOT
ATOM      1  C   UNL     1     -11.315  53.551  50.940  0.00  0.00    +0.000 A 
ATOM      2  S   UNL     1     -10.727  52.624  52.238  0.00  0.00    +0.000 S 
ATOM      3  C   UNL     1     -10.374  53.770  49.948  0.00  0.00    +0.000 A 
ATOM      4  C   UNL     1      -9.306  52.239  51.377  0.00  0.00    +0.000 A 
ATOM      5  C   UNL     1      -9.238  52.898  50.162  0.00  0.00    +0.000 A 
ATOM      6  C   UNL     1      -8.270  51.283  51.911  0.00  0.00    +0.000 C 
ATOM      7  C   UNL     1      -8.058  52.747  49.244  0.00  0.00    +0.000 C 
ATOM      8  C   UNL     1      -6.915  51.447  51.157  0.00  0.00    +0.000 C 
ATOM      9  C   UNL     1      -7.180  51.550  49.631  0.00  0.00    +0.000 C 
ATOM     10  C   UNL     1      -6.015  50.222  51.407  0.00  0.00    +0.000 C 
ATOM     11  C   UNL     1      -6.168  52.694  51.673  0.00  0.00    +0.000 C 
ENDROOT
BRANCH   1  15
ATOM     12  N   UNL     1     -14.244  55.466  51.759  0.00  0.00    +0.000 N 
ATOM     13  C   UNL     1     -12.893  55.174  51.635  0.00  0.00    +0.000 C 
ATOM     14  O   UNL     1     -12.036  55.980  51.968  0.00  0.00    +0.000 OA
ATOM     15  N   UNL     1     -12.635  53.947  51.062  0.00  0.00    +0.000 N 
ATOM     16  H   UNL     1     -14.902  54.762  51.562  0.00  0.00    +0.000 HD
ATOM     17  H   UNL     1     -13.367  53.370  50.748  0.00  0.00    +0.000 HD
BRANCH  12  18
ATOM     18  S   UNL     1     -14.789  56.975  52.234  0.00  0.00    +0.000 S 
ATOM     19  O   UNL     1     -14.001  57.418  53.365  0.00  0.00    +0.000 OA
ATOM     20  O   UNL     1     -16.229  56.849  52.362  0.00  0.00    +0.000 OA
BRANCH  18  21
ATOM     21  C   UNL     1     -14.445  58.038  50.833  0.00  0.00    +0.000 A 
ATOM     22  N   UNL     1     -14.353  57.389  49.638  0.00  0.00    +0.000 NA
ATOM     23  C   UNL     1     -14.291  59.402  51.000  0.00  0.00    +0.000 A 
ATOM     24  C   UNL     1     -14.124  58.173  48.563  0.00  0.00    +0.000 A 
ATOM     25  C   UNL     1     -14.038  60.173  49.873  0.00  0.00    +0.000 A 
ATOM     26  C   UNL     1     -13.965  59.551  48.629  0.00  0.00    +0.000 A 
ENDBRANCH  18  21
ENDBRANCH  12  18
ENDBRANCH   1  15
BRANCH   3  27
ATOM     27  C   UNL     1     -10.491  54.771  48.875  0.00  0.00    +0.000 C 
ATOM     28  O   UNL     1      -9.705  55.701  48.732  0.00  0.00    +0.000 OA
BRANCH  27  29
ATOM     29  O   UNL     1     -11.650  54.639  48.167  0.00  0.00    +0.000 OA
BRANCH  29  30
ATOM     30  C   UNL     1     -11.673  53.707  47.080  0.00  0.00    +0.000 C 
ATOM     31  C   UNL     1     -11.558  54.420  45.749  0.00  0.00    +0.000 C 
ENDBRANCH  29  30
ENDBRANCH  27  29
ENDBRANCH   3  27
TORSDOF 6
ENDMDL
MODEL 6
REMARK VINA RESULT:      -7.1      3.814      6.087
REMARK  Name = 
REMARK  9 active torsions:
REMARK  status: ('A' for Active; 'I' for Inactive)
REMARK    1  A    between atoms: S_1  and  N_4
REMARK    2  A    between atoms: S_1  and  C_5
REMARK    3  A    between atoms: N_10  and  C_13
REMARK    4  A    between atoms: C_16  and  C_19
REMARK    5  A    between atoms: C_19  and  O_23
REMARK    6  A    between atoms: O_23  and  C_26
REMARK    7  A    between atoms: C_24  and  C_27
REMARK    8  A    between atoms: C_24  and  C_28
REMARK    9  A    between atoms: C_26  and  C_29
REMARK                            x       y       z     vdW  Elec       q    Type
REMARK                         _______ _______ _______ _____ _____    ______ ____
ROOT
ATOM      1  C   UNL     1     -11.070  53.274  47.599  0.00  0.00    +0.000 A 
ATOM      2  S   UNL     1     -12.026  52.384  46.512  0.00  0.00    +0.000 S 
ATOM      3  C   UNL     1      -9.712  53.191  47.337  0.00  0.00    +0.000 A 
ATOM      4  C   UNL     1     -10.688  52.113  45.490  0.00  0.00    +0.000 A 
ATOM      5  C   UNL     1      -9.511  52.603  46.029  0.00  0.00    +0.000 A 
ATOM      6  C   UNL     1     -10.815  51.418  44.158  0.00  0.00    +0.000 C 
ATOM      7  C   UNL     1      -8.193  52.445  45.327  0.00  0.00    +0.000 C 
ATOM      8  C   UNL     1      -9.427  50.922  43.650  0.00  0.00    +0.000 C 
ATOM      9  C   UNL     1      -8.369  52.040  43.858  0.00  0.00    +0.000 C 
ATOM     10  C   UNL     1      -9.494  50.599  42.145  0.00  0.00    +0.000 C 
ATOM     11  C   UNL     1      -9.020  49.632  44.391  0.00  0.00    +0.000 C 
ENDROOT
BRANCH   1  15
ATOM     12  N   UNL     1     -12.782  55.868  49.404  0.00  0.00    +0.000 N 
ATOM     13  C   UNL     1     -12.116  55.263  48.349  0.00  0.00    +0.000 C 
ATOM     14  O   UNL     1     -11.910  55.859  47.301  0.00  0.00    +0.000 OA
ATOM     15  N   UNL     1     -11.778  53.946  48.580  0.00  0.00    +0.000 N 
ATOM     16  H   UNL     1     -12.853  55.387  50.260  0.00  0.00    +0.000 HD
ATOM     17  H   UNL     1     -12.033  53.497  49.417  0.00  0.00    +0.000 HD
BRANCH  12  18
ATOM     18  S   UNL     1     -13.466  57.389  49.270  0.00  0.00    +0.000 S 
ATOM     19  O   UNL     1     -14.483  57.351  48.240  0.00  0.00    +0.000 OA
ATOM     20  O   UNL     1     -12.352  58.312  49.151  0.00  0.00    +0.000 OA
BRANCH  18  21
ATOM     21  C   UNL     1     -14.254  57.668  50.855  0.00  0.00    +0.000 A 
ATOM     22  N   UNL     1     -14.144  58.941  51.327  0.00  0.00    +0.000 NA
ATOM     23  C   UNL     1     -14.909  56.641  51.510  0.00  0.00    +0.000 A 
ATOM     24  C   UNL     1     -14.756  59.183  52.506  0.00  0.00    +0.000 A 
ATOM     25  C   UNL     1     -15.511  56.924  52.729  0.00  0.00    +0.000 A 
ATOM     26  C   UNL     1     -15.444  58.221  53.232  0.00  0.00    +0.000 A 
ENDBRANCH  18  21
ENDBRANCH  12  18
ENDBRANCH   1  15
BRANCH   3  27
ATOM     27  C   UNL     1      -8.643  53.591  48.265  0.00  0.00    +0.000 C 
ATOM     28  O   UNL     1      -8.652  53.320  49.461  0.00  0.00    +0.000 OA
BRANCH  27  29
ATOM     29  O   UNL     1      -7.734  54.426  47.682  0.00  0.00    +0.000 OA
BRANCH  29  30
ATOM     30  C   UNL     1      -6.420  54.489  48.245  0.00  0.00    +0.000 C 
ATOM     31  C   UNL     1      -5.464  53.577  47.504  0.00  0.00    +0.000 C 
ENDBRANCH  29  30
ENDBRANCH  27  29
ENDBRANCH   3  27
TORSDOF 6
ENDMDL
MODEL 7
REMARK VINA RESULT:      -7.0      3.116      8.070
REMARK  Name = 
REMARK  9 active torsions:
REMARK  status: ('A' for Active; 'I' for Inactive)
REMARK    1  A    between atoms: S_1  and  N_4
REMARK    2  A    between atoms: S_1  and  C_5
REMARK    3  A    between atoms: N_10  and  C_13
REMARK    4  A    between atoms: C_16  and  C_19
REMARK    5  A    between atoms: C_19  and  O_23
REMARK    6  A    between atoms: O_23  and  C_26
REMARK    7  A    between atoms: C_24  and  C_27
REMARK    8  A    between atoms: C_24  and  C_28
REMARK    9  A    between atoms: C_26  and  C_29
REMARK                            x       y       z     vdW  Elec       q    Type
REMARK                         _______ _______ _______ _____ _____    ______ ____
ROOT
ATOM      1  C   UNL     1     -11.351  55.015  50.241  0.00  0.00    +0.000 A 
ATOM      2  S   UNL     1     -11.707  55.220  51.891  0.00  0.00    +0.000 S 
ATOM      3  C   UNL     1     -12.231  55.676  49.401  0.00  0.00    +0.000 A 
ATOM      4  C   UNL     1     -12.853  56.432  51.538  0.00  0.00    +0.000 A 
ATOM      5  C   UNL     1     -13.036  56.597  50.176  0.00  0.00    +0.000 A 
ATOM      6  C   UNL     1     -13.562  57.213  52.615  0.00  0.00    +0.000 C 
ATOM      7  C   UNL     1     -14.027  57.582  49.624  0.00  0.00    +0.000 C 
ATOM      8  C   UNL     1     -14.834  57.918  52.052  0.00  0.00    +0.000 C 
ATOM      9  C   UNL     1     -14.497  58.582  50.688  0.00  0.00    +0.000 C 
ATOM     10  C   UNL     1     -15.305  59.021  53.019  0.00  0.00    +0.000 C 
ATOM     11  C   UNL     1     -15.983  56.900  51.901  0.00  0.00    +0.000 C 
ENDROOT
BRANCH   1  15
ATOM     12  N   UNL     1      -8.052  53.975  49.269  0.00  0.00    +0.000 N 
ATOM     13  C   UNL     1      -9.091  54.848  49.552  0.00  0.00    +0.000 C 
ATOM     14  O   UNL     1      -8.944  56.059  49.469  0.00  0.00    +0.000 OA
ATOM     15  N   UNL     1     -10.245  54.226  49.980  0.00  0.00    +0.000 N 
ATOM     16  H   UNL     1      -8.231  53.007  49.264  0.00  0.00    +0.000 HD
ATOM     17  H   UNL     1     -10.282  53.249  50.095  0.00  0.00    +0.000 HD
BRANCH  12  18
ATOM     18  S   UNL     1      -6.503  54.513  48.935  0.00  0.00    +0.000 S 
ATOM     19  O   UNL     1      -6.210  55.643  49.791  0.00  0.00    +0.000 OA
ATOM     20  O   UNL     1      -6.443  54.665  47.492  0.00  0.00    +0.000 OA
BRANCH  18  21
ATOM     21  C   UNL     1      -5.442  53.144  49.396  0.00  0.00    +0.000 A 
ATOM     22  N   UNL     1      -5.491  52.079  48.548  0.00  0.00    +0.000 NA
ATOM     23  C   UNL     1      -4.656  53.209  50.532  0.00  0.00    +0.000 A 
ATOM     24  C   UNL     1      -4.678  51.046  48.858  0.00  0.00    +0.000 A 
ATOM     25  C   UNL     1      -3.847  52.120  50.828  0.00  0.00    +0.000 A 
ATOM     26  C   UNL     1      -3.847  51.023  49.970  0.00  0.00    +0.000 A 
ENDBRANCH  18  21
ENDBRANCH  12  18
ENDBRANCH   1  15
BRANCH   3  27
ATOM     27  C   UNL     1     -12.361  55.440  47.954  0.00  0.00    +0.000 C 
ATOM     28  O   UNL     1     -12.756  56.292  47.165  0.00  0.00    +0.000 OA
BRANCH  27  29
ATOM     29  O   UNL     1     -12.148  54.134  47.620  0.00  0.00    +0.000 OA
BRANCH  29  30
ATOM     30  C   UNL     1     -11.594  53.850  46.332  0.00  0.00    +0.000 C 
ATOM     31  C   UNL     1     -10.190  54.404  46.208  0.00  0.00    +0.000 C 
ENDBRANCH  29  30
ENDBRANCH  27  29
ENDBRANCH   3  27
TORSDOF 6
ENDMDL
MODEL 8
REMARK VINA RESULT:      -6.9      2.465      3.260
REMARK  Name = 
REMARK  9 active torsions:
REMARK  status: ('A' for Active; 'I' for Inactive)
REMARK    1  A    between atoms: S_1  and  N_4
REMARK    2  A    between atoms: S_1  and  C_5
REMARK    3  A    between atoms: N_10  and  C_13
REMARK    4  A    between atoms: C_16  and  C_19
REMARK    5  A    between atoms: C_19  and  O_23
REMARK    6  A    between atoms: O_23  and  C_26
REMARK    7  A    between atoms: C_24  and  C_27
REMARK    8  A    between atoms: C_24  and  C_28
REMARK    9  A    between atoms: C_26  and  C_29
REMARK                            x       y       z     vdW  Elec       q    Type
REMARK                         _______ _______ _______ _____ _____    ______ ____
ROOT
ATOM      1  C   UNL     1     -10.060  54.871  50.623  0.00  0.00    +0.000 A 
ATOM      2  S   UNL     1      -9.764  54.985  52.293  0.00  0.00    +0.000 S 
ATOM      3  C   UNL     1      -9.752  53.629  50.092  0.00  0.00    +0.000 A 
ATOM      4  C   UNL     1      -9.505  53.304  52.407  0.00  0.00    +0.000 A 
ATOM      5  C   UNL     1      -9.538  52.685  51.169  0.00  0.00    +0.000 A 
ATOM      6  C   UNL     1      -9.274  52.607  53.724  0.00  0.00    +0.000 C 
ATOM      7  C   UNL     1      -9.297  51.211  51.013  0.00  0.00    +0.000 C 
ATOM      8  C   UNL     1      -8.646  51.197  53.510  0.00  0.00    +0.000 C 
ATOM      9  C   UNL     1      -9.386  50.470  52.354  0.00  0.00    +0.000 C 
ATOM     10  C   UNL     1      -8.798  50.347  54.786  0.00  0.00    +0.000 C 
ATOM     11  C   UNL     1      -7.139  51.326  53.206  0.00  0.00    +0.000 C 
ENDROOT
BRANCH   1  15
ATOM     12  N   UNL     1     -12.327  57.277  49.214  0.00  0.00    +0.000 N 
ATOM     13  C   UNL     1     -11.922  56.110  49.845  0.00  0.00    +0.000 C 
ATOM     14  O   UNL     1     -12.734  55.279  50.225  0.00  0.00    +0.000 OA
ATOM     15  N   UNL     1     -10.560  56.022  50.042  0.00  0.00    +0.000 N 
ATOM     16  H   UNL     1     -11.642  57.881  48.846  0.00  0.00    +0.000 HD
ATOM     17  H   UNL     1      -9.961  56.757  49.777  0.00  0.00    +0.000 HD
BRANCH  12  18
ATOM     18  S   UNL     1     -13.940  57.691  49.057  0.00  0.00    +0.000 S 
ATOM     19  O   UNL     1     -14.646  56.585  48.444  0.00  0.00    +0.000 OA
ATOM     20  O   UNL     1     -13.951  58.996  48.421  0.00  0.00    +0.000 OA
BRANCH  18  21
ATOM     21  C   UNL     1     -14.519  57.888  50.742  0.00  0.00    +0.000 A 
ATOM     22  N   UNL     1     -15.194  56.814  51.239  0.00  0.00    +0.000 NA
ATOM     23  C   UNL     1     -14.277  59.057  51.441  0.00  0.00    +0.000 A 
ATOM     24  C   UNL     1     -15.614  56.927  52.517  0.00  0.00    +0.000 A 
ATOM     25  C   UNL     1     -14.741  59.143  52.747  0.00  0.00    +0.000 A 
ATOM     26  C   UNL     1     -15.411  58.054  53.301  0.00  0.00    +0.000 A 
ENDBRANCH  18  21
ENDBRANCH  12  18
ENDBRANCH   1  15
BRANCH   3  27
ATOM     27  C   UNL     1      -9.613  53.332  48.657  0.00  0.00    +0.000 C 
ATOM     28  O   UNL     1     -10.177  52.393  48.106  0.00  0.00    +0.000 OA
BRANCH  27  29
ATOM     29  O   UNL     1      -8.670  54.114  48.054  0.00  0.00    +0.000 OA
BRANCH  29  30
ATOM     30  C   UNL     1      -9.075  54.923  46.945  0.00  0.00    +0.000 C 
ATOM     31  C   UNL     1      -8.028  54.912  45.851  0.00  0.00    +0.000 C 
ENDBRANCH  29  30
ENDBRANCH  27  29
ENDBRANCH   3  27
TORSDOF 6
ENDMDL
MODEL 9
REMARK VINA RESULT:      -6.8      2.405      3.090
REMARK  Name = 
REMARK  9 active torsions:
REMARK  status: ('A' for Active; 'I' for Inactive)
REMARK    1  A    between atoms: S_1  and  N_4
REMARK    2  A    between atoms: S_1  and  C_5
REMARK    3  A    between atoms: N_10  and  C_13
REMARK    4  A    between atoms: C_16  and  C_19
REMARK    5  A    between atoms: C_19  and  O_23
REMARK    6  A    between atoms: O_23  and  C_26
REMARK    7  A    between atoms: C_24  and  C_27
REMARK    8  A    between atoms: C_24  and  C_28
REMARK    9  A    between atoms: C_26  and  C_29
REMARK                            x       y       z     vdW  Elec       q    Type
REMARK                         _______ _______ _______ _____ _____    ______ ____
ROOT
ATOM      1  C   UNL     1      -8.472  55.723  49.973  0.00  0.00    +0.000 A 
ATOM      2  S   UNL     1      -7.954  56.013  51.565  0.00  0.00    +0.000 S 
ATOM      3  C   UNL     1      -7.756  54.725  49.332  0.00  0.00    +0.000 A 
ATOM      4  C   UNL     1      -6.970  54.621  51.545  0.00  0.00    +0.000 A 
ATOM      5  C   UNL     1      -6.957  54.009  50.304  0.00  0.00    +0.000 A 
ATOM      6  C   UNL     1      -6.219  54.143  52.762  0.00  0.00    +0.000 C 
ATOM      7  C   UNL     1      -6.128  52.785  50.033  0.00  0.00    +0.000 C 
ATOM      8  C   UNL     1      -5.089  53.144  52.367  0.00  0.00    +0.000 C 
ATOM      9  C   UNL     1      -5.635  52.127  51.329  0.00  0.00    +0.000 C 
ATOM     10  C   UNL     1      -4.615  52.359  53.605  0.00  0.00    +0.000 C 
ATOM     11  C   UNL     1      -3.875  53.912  51.803  0.00  0.00    +0.000 C 
ENDROOT
BRANCH   1  15
ATOM     12  N   UNL     1     -11.776  56.830  49.093  0.00  0.00    +0.000 N 
ATOM     13  C   UNL     1     -10.794  55.980  49.578  0.00  0.00    +0.000 C 
ATOM     14  O   UNL     1     -11.073  54.879  50.030  0.00  0.00    +0.000 OA
ATOM     15  N   UNL     1      -9.524  56.517  49.551  0.00  0.00    +0.000 N 
ATOM     16  H   UNL     1     -11.506  57.671  48.658  0.00  0.00    +0.000 HD
ATOM     17  H   UNL     1      -9.369  57.438  49.239  0.00  0.00    +0.000 HD
BRANCH  12  18
ATOM     18  S   UNL     1     -13.405  56.472  49.220  0.00  0.00    +0.000 S 
ATOM     19  O   UNL     1     -13.548  55.068  49.542  0.00  0.00    +0.000 OA
ATOM     20  O   UNL     1     -14.020  57.004  48.017  0.00  0.00    +0.000 OA
BRANCH  18  21
ATOM     21  C   UNL     1     -13.972  57.448  50.612  0.00  0.00    +0.000 A 
ATOM     22  N   UNL     1     -13.732  56.890  51.832  0.00  0.00    +0.000 NA
ATOM     23  C   UNL     1     -14.599  58.666  50.415  0.00  0.00    +0.000 A 
ATOM     24  C   UNL     1     -14.124  57.621  52.897  0.00  0.00    +0.000 A 
ATOM     25  C   UNL     1     -15.003  59.380  51.534  0.00  0.00    +0.000 A 
ATOM     26  C   UNL     1     -14.751  58.856  52.800  0.00  0.00    +0.000 A 
ENDBRANCH  18  21
ENDBRANCH  12  18
ENDBRANCH   1  15
BRANCH   3  27
ATOM     27  C   UNL     1      -7.768  54.470  47.883  0.00  0.00    +0.000 C 
ATOM     28  O   UNL     1      -6.811  54.696  47.151  0.00  0.00    +0.000 OA
BRANCH  27  29
ATOM     29  O   UNL     1      -9.004  54.109  47.430  0.00  0.00    +0.000 OA
BRANCH  29  30
ATOM     30  C   UNL     1      -9.438  52.764  47.654  0.00  0.00    +0.000 C 
ATOM     31  C   UNL     1      -9.182  51.899  46.438  0.00  0.00    +0.000 C 
ENDBRANCH  29  30
ENDBRANCH  27  29
ENDBRANCH   3  27
TORSDOF 6
ENDMDL
