MODEL 1
REMARK VINA RESULT:      -7.3      0.000      0.000
REMARK  Name = 
REMARK  10 active torsions:
REMARK  status: ('A' for Active; 'I' for Inactive)
REMARK    1  A    between atoms: S_1  and  N_4
REMARK    2  A    between atoms: S_1  and  C_5
REMARK    3  A    between atoms: N_10  and  C_13
REMARK    4  A    between atoms: C_14  and  C_17
REMARK    5  A    between atoms: C_16  and  C_20
REMARK    6  A    between atoms: C_20  and  O_24
REMARK    7  A    between atoms: O_24  and  C_27
REMARK    8  A    between atoms: C_25  and  C_28
REMARK    9  A    between atoms: C_25  and  C_29
REMARK   10  A    between atoms: C_27  and  C_30
REMARK                            x       y       z     vdW  Elec       q    Type
REMARK                         _______ _______ _______ _____ _____    ______ ____
ROOT
ATOM      1  N   UNL     1      -9.881  51.574  48.697  0.00  0.00    +0.000 N 
ATOM      2  C   UNL     1     -10.888  52.507  48.893  0.00  0.00    +0.000 C 
ATOM      3  O   UNL     1     -11.986  52.378  48.377  0.00  0.00    +0.000 OA
ATOM      4  N   UNL     1     -10.499  53.597  49.651  0.00  0.00    +0.000 N 
ATOM      5  H   UNL     1      -9.047  51.662  49.213  0.00  0.00    +0.000 HD
ATOM      6  H   UNL     1      -9.587  53.661  50.015  0.00  0.00    +0.000 HD
ENDROOT
BRANCH   4   7
ATOM      7  C   UNL     1     -11.430  54.591  49.881  0.00  0.00    +0.000 A 
ATOM      8  S   UNL     1     -12.197  54.533  51.397  0.00  0.00    +0.000 S 
ATOM      9  C   UNL     1     -11.848  55.654  49.098  0.00  0.00    +0.000 A 
ATOM     10  C   UNL     1     -12.890  56.074  51.155  0.00  0.00    +0.000 A 
ATOM     11  C   UNL     1     -12.614  56.580  49.896  0.00  0.00    +0.000 A 
ATOM     12  C   UNL     1     -13.710  56.775  52.209  0.00  0.00    +0.000 C 
ATOM     13  C   UNL     1     -13.157  57.899  49.427  0.00  0.00    +0.000 C 
ATOM     14  C   UNL     1     -14.568  57.919  51.585  0.00  0.00    +0.000 C 
ATOM     15  C   UNL     1     -13.702  58.735  50.589  0.00  0.00    +0.000 C 
ATOM     16  C   UNL     1     -15.059  58.877  52.684  0.00  0.00    +0.000 C 
ATOM     17  C   UNL     1     -15.808  57.330  50.881  0.00  0.00    +0.000 C 
BRANCH   9  18
ATOM     18  C   UNL     1     -11.606  55.786  47.661  0.00  0.00    +0.000 C 
ATOM     19  O   UNL     1     -12.497  55.776  46.820  0.00  0.00    +0.000 OA
BRANCH  18  20
ATOM     20  O   UNL     1     -10.273  55.716  47.375  0.00  0.00    +0.000 OA
BRANCH  20  21
ATOM     21  C   UNL     1      -9.886  54.850  46.301  0.00  0.00    +0.000 C 
ATOM     22  C   UNL     1      -8.393  54.956  46.077  0.00  0.00    +0.000 C 
ENDBRANCH  20  21
ENDBRANCH  18  20
ENDBRANCH   9  18
ENDBRANCH   4   7
BRANCH   1  23
ATOM     23  S   UNL     1     -10.033  50.301  47.614  0.00  0.00    +0.000 S 
ATOM     24  O   UNL     1     -11.387  49.787  47.704  0.00  0.00    +0.000 OA
ATOM     25  O   UNL     1      -8.913  49.431  47.876  0.00  0.00    +0.000 OA
BRANCH  23  26
ATOM     26  C   UNL     1      -9.798  51.059  46.004  0.00  0.00    +0.000 A 
ATOM     27  N   UNL     1      -8.494  51.217  45.639  0.00  0.00    +0.000 NA
ATOM     28  C   UNL     1     -10.888  51.423  45.226  0.00  0.00    +0.000 A 
ATOM     29  C   UNL     1      -8.289  51.743  44.408  0.00  0.00    +0.000 A 
ATOM     30  C   UNL     1     -10.630  51.976  43.974  0.00  0.00    +0.000 A 
ATOM     31  C   UNL     1      -9.308  52.133  43.540  0.00  0.00    +0.000 A 
ATOM     32  C   UNL     1      -9.015  52.714  42.191  0.00  0.00    +0.000 C 
ENDBRANCH  23  26
ENDBRANCH   1  23
TORSDOF 6
ENDMDL
MODEL 2
REMARK VINA RESULT:      -7.0      3.261      4.964
REMARK  Name = 
REMARK  10 active torsions:
REMARK  status: ('A' for Active; 'I' for Inactive)
REMARK    1  A    between atoms: S_1  and  N_4
REMARK    2  A    between atoms: S_1  and  C_5
REMARK    3  A    between atoms: N_10  and  C_13
REMARK    4  A    between atoms: C_14  and  C_17
REMARK    5  A    between atoms: C_16  and  C_20
REMARK    6  A    between atoms: C_20  and  O_24
REMARK    7  A    between atoms: O_24  and  C_27
REMARK    8  A    between atoms: C_25  and  C_28
REMARK    9  A    between atoms: C_25  and  C_29
REMARK   10  A    between atoms: C_27  and  C_30
REMARK                            x       y       z     vdW  Elec       q    Type
REMARK                         _______ _______ _______ _____ _____    ______ ____
ROOT
ATOM      1  N   UNL     1      -8.443  53.461  48.716  0.00  0.00    +0.000 N 
ATOM      2  C   UNL     1      -9.346  54.409  49.172  0.00  0.00    +0.000 C 
ATOM      3  O   UNL     1      -8.970  55.461  49.664  0.00  0.00    +0.000 OA
ATOM      4  N   UNL     1     -10.667  54.014  49.077  0.00  0.00    +0.000 N 
ATOM      5  H   UNL     1      -8.787  52.674  48.233  0.00  0.00    +0.000 HD
ATOM      6  H   UNL     1     -10.908  53.138  48.699  0.00  0.00    +0.000 HD
ENDROOT
BRANCH   4   7
ATOM      7  C   UNL     1     -11.639  54.887  49.528  0.00  0.00    +0.000 A 
ATOM      8  S   UNL     1     -12.059  54.724  51.167  0.00  0.00    +0.000 S 
ATOM      9  C   UNL     1     -12.332  55.898  48.884  0.00  0.00    +0.000 A 
ATOM     10  C   UNL     1     -12.963  56.171  51.125  0.00  0.00    +0.000 A 
ATOM     11  C   UNL     1     -13.017  56.718  49.854  0.00  0.00    +0.000 A 
ATOM     12  C   UNL     1     -13.619  56.759  52.348  0.00  0.00    +0.000 C 
ATOM     13  C   UNL     1     -13.796  57.966  49.552  0.00  0.00    +0.000 C 
ATOM     14  C   UNL     1     -14.717  57.796  51.954  0.00  0.00    +0.000 C 
ATOM     15  C   UNL     1     -14.180  58.720  50.828  0.00  0.00    +0.000 C 
ATOM     16  C   UNL     1     -15.076  58.679  53.162  0.00  0.00    +0.000 C 
ATOM     17  C   UNL     1     -16.000  57.068  51.502  0.00  0.00    +0.000 C 
BRANCH   9  18
ATOM     18  C   UNL     1     -12.413  56.070  47.433  0.00  0.00    +0.000 C 
ATOM     19  O   UNL     1     -13.404  56.503  46.856  0.00  0.00    +0.000 OA
BRANCH  18  20
ATOM     20  O   UNL     1     -11.340  55.505  46.807  0.00  0.00    +0.000 OA
BRANCH  20  21
ATOM     21  C   UNL     1     -11.620  54.605  45.728  0.00  0.00    +0.000 C 
ATOM     22  C   UNL     1     -10.384  53.791  45.413  0.00  0.00    +0.000 C 
ENDBRANCH  20  21
ENDBRANCH  18  20
ENDBRANCH   9  18
ENDBRANCH   4   7
BRANCH   1  23
ATOM     23  S   UNL     1      -6.789  53.603  48.955  0.00  0.00    +0.000 S 
ATOM     24  O   UNL     1      -6.368  54.900  48.459  0.00  0.00    +0.000 OA
ATOM     25  O   UNL     1      -6.210  52.400  48.409  0.00  0.00    +0.000 OA
BRANCH  23  26
ATOM     26  C   UNL     1      -6.595  53.566  50.740  0.00  0.00    +0.000 A 
ATOM     27  N   UNL     1      -5.933  54.639  51.259  0.00  0.00    +0.000 NA
ATOM     28  C   UNL     1      -7.110  52.517  51.487  0.00  0.00    +0.000 A 
ATOM     29  C   UNL     1      -5.815  54.659  52.608  0.00  0.00    +0.000 A 
ATOM     30  C   UNL     1      -6.951  52.571  52.869  0.00  0.00    +0.000 A 
ATOM     31  C   UNL     1      -6.303  53.665  53.454  0.00  0.00    +0.000 A 
ATOM     32  C   UNL     1      -6.136  53.743  54.941  0.00  0.00    +0.000 C 
ENDBRANCH  23  26
ENDBRANCH   1  23
TORSDOF 6
ENDMDL
MODEL 3
REMARK VINA RESULT:      -7.0      3.632      5.456
REMARK  Name = 
REMARK  10 active torsions:
REMARK  status: ('A' for Active; 'I' for Inactive)
REMARK    1  A    between atoms: S_1  and  N_4
REMARK    2  A    between atoms: S_1  and  C_5
REMARK    3  A    between atoms: N_10  and  C_13
REMARK    4  A    between atoms: C_14  and  C_17
REMARK    5  A    between atoms: C_16  and  C_20
REMARK    6  A    between atoms: C_20  and  O_24
REMARK    7  A    between atoms: O_24  and  C_27
REMARK    8  A    between atoms: C_25  and  C_28
REMARK    9  A    between atoms: C_25  and  C_29
REMARK   10  A    between atoms: C_27  and  C_30
REMARK                            x       y       z     vdW  Elec       q    Type
REMARK                         _______ _______ _______ _____ _____    ______ ____
ROOT
ATOM      1  N   UNL     1      -8.086  52.913  50.140  0.00  0.00    +0.000 N 
ATOM      2  C   UNL     1      -9.021  53.904  50.397  0.00  0.00    +0.000 C 
ATOM      3  O   UNL     1      -8.805  54.788  51.211  0.00  0.00    +0.000 OA
ATOM      4  N   UNL     1     -10.208  53.745  49.706  0.00  0.00    +0.000 N 
ATOM      5  H   UNL     1      -8.255  52.281  49.404  0.00  0.00    +0.000 HD
ATOM      6  H   UNL     1     -10.335  52.992  49.084  0.00  0.00    +0.000 HD
ENDROOT
BRANCH   4   7
ATOM      7  C   UNL     1     -11.209  54.674  49.914  0.00  0.00    +0.000 A 
ATOM      8  S   UNL     1     -11.947  54.618  51.444  0.00  0.00    +0.000 S 
ATOM      9  C   UNL     1     -11.718  55.670  49.098  0.00  0.00    +0.000 A 
ATOM     10  C   UNL     1     -12.760  56.090  51.155  0.00  0.00    +0.000 A 
ATOM     11  C   UNL     1     -12.542  56.566  49.873  0.00  0.00    +0.000 A 
ATOM     12  C   UNL     1     -13.616  56.768  52.195  0.00  0.00    +0.000 C 
ATOM     13  C   UNL     1     -13.191  57.820  49.363  0.00  0.00    +0.000 C 
ATOM     14  C   UNL     1     -14.569  57.817  51.542  0.00  0.00    +0.000 C 
ATOM     15  C   UNL     1     -13.782  58.658  50.501  0.00  0.00    +0.000 C 
ATOM     16  C   UNL     1     -15.116  58.779  52.612  0.00  0.00    +0.000 C 
ATOM     17  C   UNL     1     -15.770  57.109  50.883  0.00  0.00    +0.000 C 
BRANCH   9  18
ATOM     18  C   UNL     1     -11.507  55.763  47.653  0.00  0.00    +0.000 C 
ATOM     19  O   UNL     1     -12.416  55.726  46.832  0.00  0.00    +0.000 OA
BRANCH  18  20
ATOM     20  O   UNL     1     -10.181  55.689  47.340  0.00  0.00    +0.000 OA
BRANCH  20  21
ATOM     21  C   UNL     1      -9.804  54.738  46.337  0.00  0.00    +0.000 C 
ATOM     22  C   UNL     1      -8.328  54.879  46.034  0.00  0.00    +0.000 C 
ENDBRANCH  20  21
ENDBRANCH  18  20
ENDBRANCH   9  18
ENDBRANCH   4   7
BRANCH   1  23
ATOM     23  S   UNL     1      -6.677  52.751  51.036  0.00  0.00    +0.000 S 
ATOM     24  O   UNL     1      -6.129  54.074  51.266  0.00  0.00    +0.000 OA
ATOM     25  O   UNL     1      -5.891  51.754  50.351  0.00  0.00    +0.000 OA
BRANCH  23  26
ATOM     26  C   UNL     1      -7.225  52.062  52.602  0.00  0.00    +0.000 A 
ATOM     27  N   UNL     1      -8.329  51.266  52.513  0.00  0.00    +0.000 NA
ATOM     28  C   UNL     1      -6.538  52.336  53.776  0.00  0.00    +0.000 A 
ATOM     29  C   UNL     1      -8.735  50.696  53.672  0.00  0.00    +0.000 A 
ATOM     30  C   UNL     1      -7.002  51.741  54.946  0.00  0.00    +0.000 A 
ATOM     31  C   UNL     1      -8.114  50.893  54.905  0.00  0.00    +0.000 A 
ATOM     32  C   UNL     1      -8.616  50.236  56.154  0.00  0.00    +0.000 C 
ENDBRANCH  23  26
ENDBRANCH   1  23
TORSDOF 6
ENDMDL
MODEL 4
REMARK VINA RESULT:      -6.9      3.990      7.620
REMARK  Name = 
REMARK  10 active torsions:
REMARK  status: ('A' for Active; 'I' for Inactive)
REMARK    1  A    between atoms: S_1  and  N_4
REMARK    2  A    between atoms: S_1  and  C_5
REMARK    3  A    between atoms: N_10  and  C_13
REMARK    4  A    between atoms: C_14  and  C_17
REMARK    5  A    between atoms: C_16  and  C_20
REMARK    6  A    between atoms: C_20  and  O_24
REMARK    7  A    between atoms: O_24  and  C_27
REMARK    8  A    between atoms: C_25  and  C_28
REMARK    9  A    between atoms: C_25  and  C_29
REMARK   10  A    between atoms: C_27  and  C_30
REMARK                            x       y       z     vdW  Elec       q    Type
REMARK                         _______ _______ _______ _____ _____    ______ ____
ROOT
ATOM      1  N   UNL     1     -14.405  55.056  51.123  0.00  0.00    +0.000 N 
ATOM      2  C   UNL     1     -13.093  55.238  51.534  0.00  0.00    +0.000 C 
ATOM      3  O   UNL     1     -12.751  56.233  52.153  0.00  0.00    +0.000 OA
ATOM      4  N   UNL     1     -12.234  54.239  51.116  0.00  0.00    +0.000 N 
ATOM      5  H   UNL     1     -14.660  54.195  50.719  0.00  0.00    +0.000 HD
ATOM      6  H   UNL     1     -12.563  53.474  50.591  0.00  0.00    +0.000 HD
ENDROOT
BRANCH   4   7
ATOM      7  C   UNL     1     -10.900  54.346  51.460  0.00  0.00    +0.000 A 
ATOM      8  S   UNL     1     -10.491  53.733  52.991  0.00  0.00    +0.000 S 
ATOM      9  C   UNL     1      -9.814  54.854  50.767  0.00  0.00    +0.000 A 
ATOM     10  C   UNL     1      -8.824  53.874  52.652  0.00  0.00    +0.000 A 
ATOM     11  C   UNL     1      -8.589  54.467  51.423  0.00  0.00    +0.000 A 
ATOM     12  C   UNL     1      -7.755  53.401  53.603  0.00  0.00    +0.000 C 
ATOM     13  C   UNL     1      -7.200  54.747  50.922  0.00  0.00    +0.000 C 
ATOM     14  C   UNL     1      -6.373  54.040  53.260  0.00  0.00    +0.000 C 
ATOM     15  C   UNL     1      -6.142  53.986  51.726  0.00  0.00    +0.000 C 
ATOM     16  C   UNL     1      -5.238  53.255  53.939  0.00  0.00    +0.000 C 
ATOM     17  C   UNL     1      -6.317  55.494  53.773  0.00  0.00    +0.000 C 
BRANCH   9  18
ATOM     18  C   UNL     1      -9.897  55.711  49.583  0.00  0.00    +0.000 C 
ATOM     19  O   UNL     1      -9.625  56.906  49.592  0.00  0.00    +0.000 OA
BRANCH  18  20
ATOM     20  O   UNL     1     -10.501  55.065  48.545  0.00  0.00    +0.000 OA
BRANCH  20  21
ATOM     21  C   UNL     1     -11.594  55.739  47.910  0.00  0.00    +0.000 C 
ATOM     22  C   UNL     1     -11.667  55.328  46.455  0.00  0.00    +0.000 C 
ENDBRANCH  20  21
ENDBRANCH  18  20
ENDBRANCH   9  18
ENDBRANCH   4   7
BRANCH   1  23
ATOM     23  S   UNL     1     -15.574  56.248  51.291  0.00  0.00    +0.000 S 
ATOM     24  O   UNL     1     -15.826  56.442  52.707  0.00  0.00    +0.000 OA
ATOM     25  O   UNL     1     -16.652  55.863  50.413  0.00  0.00    +0.000 OA
BRANCH  23  26
ATOM     26  C   UNL     1     -14.800  57.724  50.624  0.00  0.00    +0.000 A 
ATOM     27  N   UNL     1     -14.726  58.768  51.499  0.00  0.00    +0.000 NA
ATOM     28  C   UNL     1     -14.317  57.746  49.324  0.00  0.00    +0.000 A 
ATOM     29  C   UNL     1     -14.103  59.878  51.037  0.00  0.00    +0.000 A 
ATOM     30  C   UNL     1     -13.700  58.914  48.885  0.00  0.00    +0.000 A 
ATOM     31  C   UNL     1     -13.573  60.005  49.753  0.00  0.00    +0.000 A 
ATOM     32  C   UNL     1     -12.900  61.264  49.300  0.00  0.00    +0.000 C 
ENDBRANCH  23  26
ENDBRANCH   1  23
TORSDOF 6
ENDMDL
MODEL 5
REMARK VINA RESULT:      -6.5      4.084      8.044
REMARK  Name = 
REMARK  10 active torsions:
REMARK  status: ('A' for Active; 'I' for Inactive)
REMARK    1  A    between atoms: S_1  and  N_4
REMARK    2  A    between atoms: S_1  and  C_5
REMARK    3  A    between atoms: N_10  and  C_13
REMARK    4  A    between atoms: C_14  and  C_17
REMARK    5  A    between atoms: C_16  and  C_20
REMARK    6  A    between atoms: C_20  and  O_24
REMARK    7  A    between atoms: O_24  and  C_27
REMARK    8  A    between atoms: C_25  and  C_28
REMARK    9  A    between atoms: C_25  and  C_29
REMARK   10  A    between atoms: C_27  and  C_30
REMARK                            x       y       z     vdW  Elec       q    Type
REMARK                         _______ _______ _______ _____ _____    ______ ____
ROOT
ATOM      1  N   UNL     1     -11.327  56.561  49.034  0.00  0.00    +0.000 N 
ATOM      2  C   UNL     1     -10.557  55.668  49.763  0.00  0.00    +0.000 C 
ATOM      3  O   UNL     1     -11.028  54.632  50.205  0.00  0.00    +0.000 OA
ATOM      4  N   UNL     1      -9.263  56.101  49.987  0.00  0.00    +0.000 N 
ATOM      5  H   UNL     1     -10.885  57.331  48.609  0.00  0.00    +0.000 HD
ATOM      6  H   UNL     1      -8.948  56.963  49.631  0.00  0.00    +0.000 HD
ENDROOT
BRANCH   4   7
ATOM      7  C   UNL     1      -8.425  55.286  50.725  0.00  0.00    +0.000 A 
ATOM      8  S   UNL     1      -8.616  55.380  52.410  0.00  0.00    +0.000 S 
ATOM      9  C   UNL     1      -7.454  54.379  50.335  0.00  0.00    +0.000 A 
ATOM     10  C   UNL     1      -7.614  54.019  52.645  0.00  0.00    +0.000 A 
ATOM     11  C   UNL     1      -7.069  53.560  51.458  0.00  0.00    +0.000 A 
ATOM     12  C   UNL     1      -7.366  53.413  54.003  0.00  0.00    +0.000 C 
ATOM     13  C   UNL     1      -6.112  52.403  51.412  0.00  0.00    +0.000 C 
ATOM     14  C   UNL     1      -6.102  52.498  53.988  0.00  0.00    +0.000 C 
ATOM     15  C   UNL     1      -6.120  51.605  52.719  0.00  0.00    +0.000 C 
ATOM     16  C   UNL     1      -6.097  51.574  55.218  0.00  0.00    +0.000 C 
ATOM     17  C   UNL     1      -4.822  53.358  54.036  0.00  0.00    +0.000 C 
BRANCH   9  18
ATOM     18  C   UNL     1      -6.859  54.305  48.999  0.00  0.00    +0.000 C 
ATOM     19  O   UNL     1      -5.723  54.685  48.742  0.00  0.00    +0.000 OA
BRANCH  18  20
ATOM     20  O   UNL     1      -7.788  53.957  48.062  0.00  0.00    +0.000 OA
BRANCH  20  21
ATOM     21  C   UNL     1      -7.671  54.575  46.775  0.00  0.00    +0.000 C 
ATOM     22  C   UNL     1      -8.985  55.230  46.406  0.00  0.00    +0.000 C 
ENDBRANCH  20  21
ENDBRANCH  18  20
ENDBRANCH   9  18
ENDBRANCH   4   7
BRANCH   1  23
ATOM     23  S   UNL     1     -12.985  56.377  48.849  0.00  0.00    +0.000 S 
ATOM     24  O   UNL     1     -13.300  54.965  48.958  0.00  0.00    +0.000 OA
ATOM     25  O   UNL     1     -13.326  57.101  47.649  0.00  0.00    +0.000 OA
BRANCH  23  26
ATOM     26  C   UNL     1     -13.686  57.246  50.255  0.00  0.00    +0.000 A 
ATOM     27  N   UNL     1     -14.022  58.544  50.006  0.00  0.00    +0.000 NA
ATOM     28  C   UNL     1     -13.867  56.600  51.470  0.00  0.00    +0.000 A 
ATOM     29  C   UNL     1     -14.598  59.208  51.036  0.00  0.00    +0.000 A 
ATOM     30  C   UNL     1     -14.446  57.327  52.506  0.00  0.00    +0.000 A 
ATOM     31  C   UNL     1     -14.835  58.655  52.294  0.00  0.00    +0.000 A 
ATOM     32  C   UNL     1     -15.472  59.446  53.395  0.00  0.00    +0.000 C 
ENDBRANCH  23  26
ENDBRANCH   1  23
TORSDOF 6
ENDMDL
MODEL 6
REMARK VINA RESULT:      -6.4      2.405      3.351
REMARK  Name = 
REMARK  10 active torsions:
REMARK  status: ('A' for Active; 'I' for Inactive)
REMARK    1  A    between atoms: S_1  and  N_4
REMARK    2  A    between atoms: S_1  and  C_5
REMARK    3  A    between atoms: N_10  and  C_13
REMARK    4  A    between atoms: C_14  and  C_17
REMARK    5  A    between atoms: C_16  and  C_20
REMARK    6  A    between atoms: C_20  and  O_24
REMARK    7  A    between atoms: O_24  and  C_27
REMARK    8  A    between atoms: C_25  and  C_28
REMARK    9  A    between atoms: C_25  and  C_29
REMARK   10  A    between atoms: C_27  and  C_30
REMARK                            x       y       z     vdW  Elec       q    Type
REMARK                         _______ _______ _______ _____ _____    ______ ____
ROOT
ATOM      1  N   UNL     1     -10.730  53.995  45.084  0.00  0.00    +0.000 N 
ATOM      2  C   UNL     1     -11.247  54.298  46.334  0.00  0.00    +0.000 C 
ATOM      3  O   UNL     1     -11.626  53.423  47.096  0.00  0.00    +0.000 OA
ATOM      4  N   UNL     1     -11.350  55.654  46.583  0.00  0.00    +0.000 N 
ATOM      5  H   UNL     1     -10.341  54.721  44.544  0.00  0.00    +0.000 HD
ATOM      6  H   UNL     1     -11.056  56.315  45.915  0.00  0.00    +0.000 HD
ENDROOT
BRANCH   4   7
ATOM      7  C   UNL     1     -11.876  56.053  47.797  0.00  0.00    +0.000 A 
ATOM      8  S   UNL     1     -13.505  56.536  47.761  0.00  0.00    +0.000 S 
ATOM      9  C   UNL     1     -11.315  56.117  49.061  0.00  0.00    +0.000 A 
ATOM     10  C   UNL     1     -13.578  56.571  49.465  0.00  0.00    +0.000 A 
ATOM     11  C   UNL     1     -12.350  56.308  50.047  0.00  0.00    +0.000 A 
ATOM     12  C   UNL     1     -14.850  56.863  50.221  0.00  0.00    +0.000 C 
ATOM     13  C   UNL     1     -12.148  56.333  51.536  0.00  0.00    +0.000 C 
ATOM     14  C   UNL     1     -14.546  57.266  51.698  0.00  0.00    +0.000 C 
ATOM     15  C   UNL     1     -13.480  56.307  52.291  0.00  0.00    +0.000 C 
ATOM     16  C   UNL     1     -15.818  57.151  52.555  0.00  0.00    +0.000 C 
ATOM     17  C   UNL     1     -14.063  58.730  51.761  0.00  0.00    +0.000 C 
BRANCH   9  18
ATOM     18  C   UNL     1      -9.881  56.065  49.349  0.00  0.00    +0.000 C 
ATOM     19  O   UNL     1      -9.215  57.047  49.656  0.00  0.00    +0.000 OA
BRANCH  18  20
ATOM     20  O   UNL     1      -9.357  54.845  49.035  0.00  0.00    +0.000 OA
BRANCH  20  21
ATOM     21  C   UNL     1      -9.178  53.920  50.115  0.00  0.00    +0.000 C 
ATOM     22  C   UNL     1      -9.352  52.506  49.606  0.00  0.00    +0.000 C 
ENDBRANCH  20  21
ENDBRANCH  18  20
ENDBRANCH   9  18
ENDBRANCH   4   7
BRANCH   1  23
ATOM     23  S   UNL     1     -10.740  52.439  44.459  0.00  0.00    +0.000 S 
ATOM     24  O   UNL     1     -10.233  52.491  43.101  0.00  0.00    +0.000 OA
ATOM     25  O   UNL     1     -12.064  51.925  44.714  0.00  0.00    +0.000 OA
BRANCH  23  26
ATOM     26  C   UNL     1      -9.575  51.540  45.487  0.00  0.00    +0.000 A 
ATOM     27  N   UNL     1      -8.334  52.101  45.557  0.00  0.00    +0.000 NA
ATOM     28  C   UNL     1      -9.959  50.383  46.150  0.00  0.00    +0.000 A 
ATOM     29  C   UNL     1      -7.449  51.469  46.365  0.00  0.00    +0.000 A 
ATOM     30  C   UNL     1      -9.012  49.757  46.956  0.00  0.00    +0.000 A 
ATOM     31  C   UNL     1      -7.732  50.308  47.083  0.00  0.00    +0.000 A 
ATOM     32  C   UNL     1      -6.706  49.653  47.957  0.00  0.00    +0.000 C 
ENDBRANCH  23  26
ENDBRANCH   1  23
TORSDOF 6
ENDMDL
MODEL 7
REMARK VINA RESULT:      -6.4      3.512      7.814
REMARK  Name = 
REMARK  10 active torsions:
REMARK  status: ('A' for Active; 'I' for Inactive)
REMARK    1  A    between atoms: S_1  and  N_4
REMARK    2  A    between atoms: S_1  and  C_5
REMARK    3  A    between atoms: N_10  and  C_13
REMARK    4  A    between atoms: C_14  and  C_17
REMARK    5  A    between atoms: C_16  and  C_20
REMARK    6  A    between atoms: C_20  and  O_24
REMARK    7  A    between atoms: O_24  and  C_27
REMARK    8  A    between atoms: C_25  and  C_28
REMARK    9  A    between atoms: C_25  and  C_29
REMARK   10  A    between atoms: C_27  and  C_30
REMARK                            x       y       z     vdW  Elec       q    Type
REMARK                         _______ _______ _______ _____ _____    ______ ____
ROOT
ATOM      1  N   UNL     1      -7.737  56.197  50.280  0.00  0.00    +0.000 N 
ATOM      2  C   UNL     1      -8.140  55.275  49.326  0.00  0.00    +0.000 C 
ATOM      3  O   UNL     1      -8.120  54.075  49.550  0.00  0.00    +0.000 OA
ATOM      4  N   UNL     1      -8.485  55.841  48.113  0.00  0.00    +0.000 N 
ATOM      5  H   UNL     1      -7.867  57.155  50.097  0.00  0.00    +0.000 HD
ATOM      6  H   UNL     1      -8.452  56.817  47.981  0.00  0.00    +0.000 HD
ENDROOT
BRANCH   4   7
ATOM      7  C   UNL     1      -8.880  54.998  47.092  0.00  0.00    +0.000 A 
ATOM      8  S   UNL     1      -7.617  54.322  46.177  0.00  0.00    +0.000 S 
ATOM      9  C   UNL     1     -10.135  54.582  46.682  0.00  0.00    +0.000 A 
ATOM     10  C   UNL     1      -8.693  53.249  45.401  0.00  0.00    +0.000 A 
ATOM     11  C   UNL     1     -10.009  53.471  45.770  0.00  0.00    +0.000 A 
ATOM     12  C   UNL     1      -8.234  52.195  44.427  0.00  0.00    +0.000 C 
ATOM     13  C   UNL     1     -11.148  52.686  45.183  0.00  0.00    +0.000 C 
ATOM     14  C   UNL     1      -9.421  51.678  43.556  0.00  0.00    +0.000 C 
ATOM     15  C   UNL     1     -10.658  51.429  44.459  0.00  0.00    +0.000 C 
ATOM     16  C   UNL     1      -9.048  50.345  42.883  0.00  0.00    +0.000 C 
ATOM     17  C   UNL     1      -9.748  52.695  42.443  0.00  0.00    +0.000 C 
BRANCH   9  18
ATOM     18  C   UNL     1     -11.398  55.216  47.063  0.00  0.00    +0.000 C 
ATOM     19  O   UNL     1     -12.066  55.906  46.302  0.00  0.00    +0.000 OA
BRANCH  18  20
ATOM     20  O   UNL     1     -11.621  55.109  48.404  0.00  0.00    +0.000 OA
BRANCH  20  21
ATOM     21  C   UNL     1     -12.358  53.963  48.849  0.00  0.00    +0.000 C 
ATOM     22  C   UNL     1     -11.492  53.128  49.766  0.00  0.00    +0.000 C 
ENDBRANCH  20  21
ENDBRANCH  18  20
ENDBRANCH   9  18
ENDBRANCH   4   7
BRANCH   1  23
ATOM     23  S   UNL     1      -7.038  55.739  51.735  0.00  0.00    +0.000 S 
ATOM     24  O   UNL     1      -6.875  56.925  52.554  0.00  0.00    +0.000 OA
ATOM     25  O   UNL     1      -5.888  54.943  51.382  0.00  0.00    +0.000 OA
BRANCH  23  26
ATOM     26  C   UNL     1      -8.260  54.664  52.494  0.00  0.00    +0.000 A 
ATOM     27  N   UNL     1      -7.763  53.482  52.957  0.00  0.00    +0.000 NA
ATOM     28  C   UNL     1      -9.588  55.057  52.591  0.00  0.00    +0.000 A 
ATOM     29  C   UNL     1      -8.655  52.674  53.577  0.00  0.00    +0.000 A 
ATOM     30  C   UNL     1     -10.473  54.186  53.220  0.00  0.00    +0.000 A 
ATOM     31  C   UNL     1     -10.007  52.973  53.739  0.00  0.00    +0.000 A 
ATOM     32  C   UNL     1     -10.946  52.032  54.431  0.00  0.00    +0.000 C 
ENDBRANCH  23  26
ENDBRANCH   1  23
TORSDOF 6
ENDMDL
MODEL 8
REMARK VINA RESULT:      -6.3      3.412      5.061
REMARK  Name = 
REMARK  10 active torsions:
REMARK  status: ('A' for Active; 'I' for Inactive)
REMARK    1  A    between atoms: S_1  and  N_4
REMARK    2  A    between atoms: S_1  and  C_5
REMARK    3  A    between atoms: N_10  and  C_13
REMARK    4  A    between atoms: C_14  and  C_17
REMARK    5  A    between atoms: C_16  and  C_20
REMARK    6  A    between atoms: C_20  and  O_24
REMARK    7  A    between atoms: O_24  and  C_27
REMARK    8  A    between atoms: C_25  and  C_28
REMARK    9  A    between atoms: C_25  and  C_29
REMARK   10  A    between atoms: C_27  and  C_30
REMARK                            x       y       z     vdW  Elec       q    Type
REMARK                         _______ _______ _______ _____ _____    ______ ____
ROOT
ATOM      1  N   UNL     1      -8.526  51.089  49.850  0.00  0.00    +0.000 N 
ATOM      2  C   UNL     1      -9.300  52.238  49.792  0.00  0.00    +0.000 C 
ATOM      3  O   UNL     1      -8.792  53.347  49.741  0.00  0.00    +0.000 OA
ATOM      4  N   UNL     1     -10.660  52.000  49.869  0.00  0.00    +0.000 N 
ATOM      5  H   UNL     1      -8.972  50.214  49.785  0.00  0.00    +0.000 HD
ATOM      6  H   UNL     1     -11.010  51.082  49.940  0.00  0.00    +0.000 HD
ENDROOT
BRANCH   4   7
ATOM      7  C   UNL     1     -11.512  53.087  49.841  0.00  0.00    +0.000 A 
ATOM      8  S   UNL     1     -12.010  53.661  51.360  0.00  0.00    +0.000 S 
ATOM      9  C   UNL     1     -12.028  53.819  48.784  0.00  0.00    +0.000 A 
ATOM     10  C   UNL     1     -12.694  55.058  50.659  0.00  0.00    +0.000 A 
ATOM     11  C   UNL     1     -12.622  55.038  49.276  0.00  0.00    +0.000 A 
ATOM     12  C   UNL     1     -13.303  56.168  51.477  0.00  0.00    +0.000 C 
ATOM     13  C   UNL     1     -13.203  56.134  48.429  0.00  0.00    +0.000 C 
ATOM     14  C   UNL     1     -14.225  57.072  50.601  0.00  0.00    +0.000 C 
ATOM     15  C   UNL     1     -13.520  57.384  49.254  0.00  0.00    +0.000 C 
ATOM     16  C   UNL     1     -14.497  58.408  51.315  0.00  0.00    +0.000 C 
ATOM     17  C   UNL     1     -15.582  56.378  50.364  0.00  0.00    +0.000 C 
BRANCH   9  18
ATOM     18  C   UNL     1     -12.030  53.389  47.385  0.00  0.00    +0.000 C 
ATOM     19  O   UNL     1     -12.435  52.293  47.014  0.00  0.00    +0.000 OA
BRANCH  18  20
ATOM     20  O   UNL     1     -11.349  54.269  46.596  0.00  0.00    +0.000 OA
BRANCH  20  21
ATOM     21  C   UNL     1      -9.950  54.020  46.408  0.00  0.00    +0.000 C 
ATOM     22  C   UNL     1      -9.163  55.267  46.749  0.00  0.00    +0.000 C 
ENDBRANCH  20  21
ENDBRANCH  18  20
ENDBRANCH   9  18
ENDBRANCH   4   7
BRANCH   1  23
ATOM     23  S   UNL     1      -6.858  51.136  50.025  0.00  0.00    +0.000 S 
ATOM     24  O   UNL     1      -6.305  51.882  48.911  0.00  0.00    +0.000 OA
ATOM     25  O   UNL     1      -6.451  49.770  50.251  0.00  0.00    +0.000 OA
BRANCH  23  26
ATOM     26  C   UNL     1      -6.598  52.063  51.541  0.00  0.00    +0.000 A 
ATOM     27  N   UNL     1      -5.851  53.194  51.390  0.00  0.00    +0.000 NA
ATOM     28  C   UNL     1      -7.147  51.631  52.740  0.00  0.00    +0.000 A 
ATOM     29  C   UNL     1      -5.680  53.937  52.509  0.00  0.00    +0.000 A 
ATOM     30  C   UNL     1      -6.931  52.417  53.868  0.00  0.00    +0.000 A 
ATOM     31  C   UNL     1      -6.195  53.603  53.761  0.00  0.00    +0.000 A 
ATOM     32  C   UNL     1      -5.966  54.466  54.964  0.00  0.00    +0.000 C 
ENDBRANCH  23  26
ENDBRANCH   1  23
TORSDOF 6
ENDMDL
MODEL 9
REMARK VINA RESULT:      -6.1      4.076      8.839
REMARK  Name = 
REMARK  10 active torsions:
REMARK  status: ('A' for Active; 'I' for Inactive)
REMARK    1  A    between atoms: S_1  and  N_4
REMARK    2  A    between atoms: S_1  and  C_5
REMARK    3  A    between atoms: N_10  and  C_13
REMARK    4  A    between atoms: C_14  and  C_17
REMARK    5  A    between atoms: C_16  and  C_20
REMARK    6  A    between atoms: C_20  and  O_24
REMARK    7  A    between atoms: O_24  and  C_27
REMARK    8  A    between atoms: C_25  and  C_28
REMARK    9  A    between atoms: C_25  and  C_29
REMARK   10  A    between atoms: C_27  and  C_30
REMARK                            x       y       z     vdW  Elec       q    Type
REMARK                         _______ _______ _______ _____ _____    ______ ____
ROOT
ATOM      1  N   UNL     1     -11.661  56.917  49.106  0.00  0.00    +0.000 N 
ATOM      2  C   UNL     1     -10.813  55.821  49.150  0.00  0.00    +0.000 C 
ATOM      3  O   UNL     1     -11.225  54.688  48.963  0.00  0.00    +0.000 OA
ATOM      4  N   UNL     1      -9.510  56.137  49.488  0.00  0.00    +0.000 N 
ATOM      5  H   UNL     1     -11.271  57.820  49.159  0.00  0.00    +0.000 HD
ATOM      6  H   UNL     1      -9.242  57.069  49.659  0.00  0.00    +0.000 HD
ENDROOT
BRANCH   4   7
ATOM      7  C   UNL     1      -8.595  55.105  49.579  0.00  0.00    +0.000 A 
ATOM      8  S   UNL     1      -8.064  54.471  48.094  0.00  0.00    +0.000 S 
ATOM      9  C   UNL     1      -8.010  54.494  50.674  0.00  0.00    +0.000 A 
ATOM     10  C   UNL     1      -6.841  53.567  48.867  0.00  0.00    +0.000 A 
ATOM     11  C   UNL     1      -6.900  53.677  50.245  0.00  0.00    +0.000 A 
ATOM     12  C   UNL     1      -5.829  52.747  48.107  0.00  0.00    +0.000 C 
ATOM     13  C   UNL     1      -5.960  52.933  51.149  0.00  0.00    +0.000 C 
ATOM     14  C   UNL     1      -5.139  51.701  49.038  0.00  0.00    +0.000 C 
ATOM     15  C   UNL     1      -4.757  52.374  50.383  0.00  0.00    +0.000 C 
ATOM     16  C   UNL     1      -3.848  51.176  48.387  0.00  0.00    +0.000 C 
ATOM     17  C   UNL     1      -6.076  50.498  49.273  0.00  0.00    +0.000 C 
BRANCH   9  18
ATOM     18  C   UNL     1      -8.485  54.606  52.054  0.00  0.00    +0.000 C 
ATOM     19  O   UNL     1      -9.437  53.972  52.496  0.00  0.00    +0.000 OA
BRANCH  18  20
ATOM     20  O   UNL     1      -7.873  55.635  52.707  0.00  0.00    +0.000 OA
BRANCH  20  21
ATOM     21  C   UNL     1      -7.786  55.537  54.134  0.00  0.00    +0.000 C 
ATOM     22  C   UNL     1      -6.666  54.591  54.509  0.00  0.00    +0.000 C 
ENDBRANCH  20  21
ENDBRANCH  18  20
ENDBRANCH   9  18
ENDBRANCH   4   7
BRANCH   1  23
ATOM     23  S   UNL     1     -13.325  56.762  48.965  0.00  0.00    +0.000 S 
ATOM     24  O   UNL     1     -13.655  55.350  49.001  0.00  0.00    +0.000 OA
ATOM     25  O   UNL     1     -13.696  57.560  47.822  0.00  0.00    +0.000 OA
BRANCH  23  26
ATOM     26  C   UNL     1     -13.970  57.553  50.442  0.00  0.00    +0.000 A 
ATOM     27  N   UNL     1     -14.570  58.758  50.222  0.00  0.00    +0.000 NA
ATOM     28  C   UNL     1     -13.857  56.940  51.682  0.00  0.00    +0.000 A 
ATOM     29  C   UNL     1     -15.107  59.353  51.314  0.00  0.00    +0.000 A 
ATOM     30  C   UNL     1     -14.409  57.596  52.779  0.00  0.00    +0.000 A 
ATOM     31  C   UNL     1     -15.060  58.822  52.602  0.00  0.00    +0.000 A 
ATOM     32  C   UNL     1     -15.671  59.534  53.770  0.00  0.00    +0.000 C 
ENDBRANCH  23  26
ENDBRANCH   1  23
TORSDOF 6
ENDMDL
