MODEL 1
REMARK VINA RESULT:      -7.1      0.000      0.000
REMARK  Name = 
REMARK  10 active torsions:
REMARK  status: ('A' for Active; 'I' for Inactive)
REMARK    1  A    between atoms: S_1  and  N_4
REMARK    2  A    between atoms: S_1  and  C_5
REMARK    3  A    between atoms: N_10  and  C_13
REMARK    4  A    between atoms: C_14  and  C_17
REMARK    5  A    between atoms: C_16  and  C_20
REMARK    6  A    between atoms: C_20  and  O_24
REMARK    7  A    between atoms: O_24  and  C_27
REMARK    8  A    between atoms: C_25  and  C_28
REMARK    9  A    between atoms: C_25  and  C_29
REMARK   10  A    between atoms: C_27  and  C_30
REMARK                            x       y       z     vdW  Elec       q    Type
REMARK                         _______ _______ _______ _____ _____    ______ ____
ROOT
ATOM      1  N   UNL     1      -9.118  52.141  49.334  0.00  0.00    +0.000 N 
ATOM      2  C   UNL     1     -10.255  52.918  49.466  0.00  0.00    +0.000 C 
ATOM      3  O   UNL     1     -11.349  52.510  49.086  0.00  0.00    +0.000 OA
ATOM      4  N   UNL     1     -10.030  54.169  49.997  0.00  0.00    +0.000 N 
ATOM      5  H   UNL     1      -8.274  52.462  49.728  0.00  0.00    +0.000 HD
ATOM      6  H   UNL     1      -9.122  54.467  50.230  0.00  0.00    +0.000 HD
ENDROOT
BRANCH   4   7
ATOM      7  C   UNL     1     -11.126  54.995  50.190  0.00  0.00    +0.000 A 
ATOM      8  S   UNL     1     -11.753  54.984  51.771  0.00  0.00    +0.000 S 
ATOM      9  C   UNL     1     -11.809  55.834  49.330  0.00  0.00    +0.000 A 
ATOM     10  C   UNL     1     -12.756  56.317  51.424  0.00  0.00    +0.000 A 
ATOM     11  C   UNL     1     -12.693  56.690  50.093  0.00  0.00    +0.000 A 
ATOM     12  C   UNL     1     -13.603  56.989  52.479  0.00  0.00    +0.000 C 
ATOM     13  C   UNL     1     -13.525  57.813  49.545  0.00  0.00    +0.000 C 
ATOM     14  C   UNL     1     -14.723  57.859  51.831  0.00  0.00    +0.000 C 
ATOM     15  C   UNL     1     -14.123  58.682  50.659  0.00  0.00    +0.000 C 
ATOM     16  C   UNL     1     -15.300  58.845  52.864  0.00  0.00    +0.000 C 
ATOM     17  C   UNL     1     -15.876  56.961  51.341  0.00  0.00    +0.000 C 
BRANCH   9  18
ATOM     18  C   UNL     1     -11.690  55.825  47.860  0.00  0.00    +0.000 C 
ATOM     19  O   UNL     1     -12.642  55.659  47.107  0.00  0.00    +0.000 OA
BRANCH  18  20
ATOM     20  O   UNL     1     -10.389  55.860  47.451  0.00  0.00    +0.000 OA
BRANCH  20  21
ATOM     21  C   UNL     1      -9.955  54.888  46.496  0.00  0.00    +0.000 C 
ATOM     22  C   UNL     1      -8.499  55.099  46.133  0.00  0.00    +0.000 C 
ENDBRANCH  20  21
ENDBRANCH  18  20
ENDBRANCH   9  18
ENDBRANCH   4   7
BRANCH   1  23
ATOM     23  S   UNL     1      -9.126  50.675  48.529  0.00  0.00    +0.000 S 
ATOM     24  O   UNL     1     -10.326  49.952  48.899  0.00  0.00    +0.000 OA
ATOM     25  O   UNL     1      -7.824  50.084  48.776  0.00  0.00    +0.000 OA
BRANCH  23  26
ATOM     26  C   UNL     1      -9.215  51.113  46.790  0.00  0.00    +0.000 A 
ATOM     27  N   UNL     1     -10.476  51.138  46.274  0.00  0.00    +0.000 NA
ATOM     28  C   UNL     1      -8.059  51.393  46.075  0.00  0.00    +0.000 A 
ATOM     29  C   UNL     1     -10.566  51.503  44.974  0.00  0.00    +0.000 A 
ATOM     30  C   UNL     1      -8.200  51.747  44.736  0.00  0.00    +0.000 A 
ATOM     31  C   UNL     1      -9.475  51.816  44.165  0.00  0.00    +0.000 A 
ATOM     32  C   UNL     1      -9.645  52.210  42.729  0.00  0.00    +0.000 C 
ENDBRANCH  23  26
ENDBRANCH   1  23
TORSDOF 6
ENDMDL
MODEL 2
REMARK VINA RESULT:      -7.0      2.908      4.632
REMARK  Name = 
REMARK  10 active torsions:
REMARK  status: ('A' for Active; 'I' for Inactive)
REMARK    1  A    between atoms: S_1  and  N_4
REMARK    2  A    between atoms: S_1  and  C_5
REMARK    3  A    between atoms: N_10  and  C_13
REMARK    4  A    between atoms: C_14  and  C_17
REMARK    5  A    between atoms: C_16  and  C_20
REMARK    6  A    between atoms: C_20  and  O_24
REMARK    7  A    between atoms: O_24  and  C_27
REMARK    8  A    between atoms: C_25  and  C_28
REMARK    9  A    between atoms: C_25  and  C_29
REMARK   10  A    between atoms: C_27  and  C_30
REMARK                            x       y       z     vdW  Elec       q    Type
REMARK                         _______ _______ _______ _____ _____    ______ ____
ROOT
ATOM      1  N   UNL     1      -8.417  53.380  48.756  0.00  0.00    +0.000 N 
ATOM      2  C   UNL     1      -9.333  54.311  49.213  0.00  0.00    +0.000 C 
ATOM      3  O   UNL     1      -8.964  55.363  49.728  0.00  0.00    +0.000 OA
ATOM      4  N   UNL     1     -10.649  53.924  49.086  0.00  0.00    +0.000 N 
ATOM      5  H   UNL     1      -8.746  52.589  48.271  0.00  0.00    +0.000 HD
ATOM      6  H   UNL     1     -10.887  53.043  48.719  0.00  0.00    +0.000 HD
ENDROOT
BRANCH   4   7
ATOM      7  C   UNL     1     -11.627  54.817  49.492  0.00  0.00    +0.000 A 
ATOM      8  S   UNL     1     -12.110  54.650  51.115  0.00  0.00    +0.000 S 
ATOM      9  C   UNL     1     -12.288  55.827  48.820  0.00  0.00    +0.000 A 
ATOM     10  C   UNL     1     -12.989  56.107  51.044  0.00  0.00    +0.000 A 
ATOM     11  C   UNL     1     -13.004  56.652  49.771  0.00  0.00    +0.000 A 
ATOM     12  C   UNL     1     -13.663  56.707  52.257  0.00  0.00    +0.000 C 
ATOM     13  C   UNL     1     -13.754  57.914  49.458  0.00  0.00    +0.000 C 
ATOM     14  C   UNL     1     -14.734  57.760  51.841  0.00  0.00    +0.000 C 
ATOM     15  C   UNL     1     -14.154  58.675  50.729  0.00  0.00    +0.000 C 
ATOM     16  C   UNL     1     -15.108  58.646  53.044  0.00  0.00    +0.000 C 
ATOM     17  C   UNL     1     -16.016  57.052  51.361  0.00  0.00    +0.000 C 
BRANCH   9  18
ATOM     18  C   UNL     1     -12.300  56.008  47.357  0.00  0.00    +0.000 C 
ATOM     19  O   UNL     1     -13.206  56.571  46.754  0.00  0.00    +0.000 OA
BRANCH  18  20
ATOM     20  O   UNL     1     -11.278  55.341  46.748  0.00  0.00    +0.000 OA
BRANCH  20  21
ATOM     21  C   UNL     1     -11.596  54.447  45.678  0.00  0.00    +0.000 C 
ATOM     22  C   UNL     1     -10.389  53.617  45.291  0.00  0.00    +0.000 C 
ENDBRANCH  20  21
ENDBRANCH  18  20
ENDBRANCH   9  18
ENDBRANCH   4   7
BRANCH   1  23
ATOM     23  S   UNL     1      -6.771  53.551  49.000  0.00  0.00    +0.000 S 
ATOM     24  O   UNL     1      -6.361  54.843  48.487  0.00  0.00    +0.000 OA
ATOM     25  O   UNL     1      -6.168  52.342  48.471  0.00  0.00    +0.000 OA
BRANCH  23  26
ATOM     26  C   UNL     1      -6.572  53.537  50.784  0.00  0.00    +0.000 A 
ATOM     27  N   UNL     1      -5.957  54.639  51.296  0.00  0.00    +0.000 NA
ATOM     28  C   UNL     1      -7.028  52.461  51.533  0.00  0.00    +0.000 A 
ATOM     29  C   UNL     1      -5.833  54.663  52.644  0.00  0.00    +0.000 A 
ATOM     30  C   UNL     1      -6.862  52.522  52.914  0.00  0.00    +0.000 A 
ATOM     31  C   UNL     1      -6.263  53.645  53.494  0.00  0.00    +0.000 A 
ATOM     32  C   UNL     1      -6.090  53.733  54.980  0.00  0.00    +0.000 C 
ENDBRANCH  23  26
ENDBRANCH   1  23
TORSDOF 6
ENDMDL
MODEL 3
REMARK VINA RESULT:      -7.0      3.358      5.084
REMARK  Name = 
REMARK  10 active torsions:
REMARK  status: ('A' for Active; 'I' for Inactive)
REMARK    1  A    between atoms: S_1  and  N_4
REMARK    2  A    between atoms: S_1  and  C_5
REMARK    3  A    between atoms: N_10  and  C_13
REMARK    4  A    between atoms: C_14  and  C_17
REMARK    5  A    between atoms: C_16  and  C_20
REMARK    6  A    between atoms: C_20  and  O_24
REMARK    7  A    between atoms: O_24  and  C_27
REMARK    8  A    between atoms: C_25  and  C_28
REMARK    9  A    between atoms: C_25  and  C_29
REMARK   10  A    between atoms: C_27  and  C_30
REMARK                            x       y       z     vdW  Elec       q    Type
REMARK                         _______ _______ _______ _____ _____    ______ ____
ROOT
ATOM      1  N   UNL     1      -7.920  53.281  50.462  0.00  0.00    +0.000 N 
ATOM      2  C   UNL     1      -8.943  54.182  50.703  0.00  0.00    +0.000 C 
ATOM      3  O   UNL     1      -8.835  55.047  51.567  0.00  0.00    +0.000 OA
ATOM      4  N   UNL     1     -10.072  53.976  49.941  0.00  0.00    +0.000 N 
ATOM      5  H   UNL     1      -8.005  52.657  49.706  0.00  0.00    +0.000 HD
ATOM      6  H   UNL     1     -10.127  53.229  49.304  0.00  0.00    +0.000 HD
ENDROOT
BRANCH   4   7
ATOM      7  C   UNL     1     -11.129  54.857  50.102  0.00  0.00    +0.000 A 
ATOM      8  S   UNL     1     -11.865  54.811  51.636  0.00  0.00    +0.000 S 
ATOM      9  C   UNL     1     -11.703  55.774  49.243  0.00  0.00    +0.000 A 
ATOM     10  C   UNL     1     -12.763  56.216  51.291  0.00  0.00    +0.000 A 
ATOM     11  C   UNL     1     -12.587  56.647  49.987  0.00  0.00    +0.000 A 
ATOM     12  C   UNL     1     -13.642  56.889  52.320  0.00  0.00    +0.000 C 
ATOM     13  C   UNL     1     -13.313  57.842  49.443  0.00  0.00    +0.000 C 
ATOM     14  C   UNL     1     -14.662  57.854  51.644  0.00  0.00    +0.000 C 
ATOM     15  C   UNL     1     -13.936  58.693  50.558  0.00  0.00    +0.000 C 
ATOM     16  C   UNL     1     -15.252  58.824  52.684  0.00  0.00    +0.000 C 
ATOM     17  C   UNL     1     -15.828  57.051  51.034  0.00  0.00    +0.000 C 
BRANCH   9  18
ATOM     18  C   UNL     1     -11.482  55.827  47.786  0.00  0.00    +0.000 C 
ATOM     19  O   UNL     1     -12.392  55.830  46.965  0.00  0.00    +0.000 OA
BRANCH  18  20
ATOM     20  O   UNL     1     -10.162  55.709  47.461  0.00  0.00    +0.000 OA
BRANCH  20  21
ATOM     21  C   UNL     1      -9.800  54.788  46.429  0.00  0.00    +0.000 C 
ATOM     22  C   UNL     1      -8.313  54.851  46.146  0.00  0.00    +0.000 C 
ENDBRANCH  20  21
ENDBRANCH  18  20
ENDBRANCH   9  18
ENDBRANCH   4   7
BRANCH   1  23
ATOM     23  S   UNL     1      -6.545  53.217  51.412  0.00  0.00    +0.000 S 
ATOM     24  O   UNL     1      -6.159  54.570  51.757  0.00  0.00    +0.000 OA
ATOM     25  O   UNL     1      -5.615  52.362  50.698  0.00  0.00    +0.000 OA
BRANCH  23  26
ATOM     26  C   UNL     1      -7.061  52.355  52.900  0.00  0.00    +0.000 A 
ATOM     27  N   UNL     1      -8.252  51.703  52.795  0.00  0.00    +0.000 NA
ATOM     28  C   UNL     1      -6.269  52.385  54.040  0.00  0.00    +0.000 A 
ATOM     29  C   UNL     1      -8.639  51.016  53.895  0.00  0.00    +0.000 A 
ATOM     30  C   UNL     1      -6.717  51.679  55.153  0.00  0.00    +0.000 A 
ATOM     31  C   UNL     1      -7.920  50.968  55.088  0.00  0.00    +0.000 A 
ATOM     32  C   UNL     1      -8.408  50.190  56.272  0.00  0.00    +0.000 C 
ENDBRANCH  23  26
ENDBRANCH   1  23
TORSDOF 6
ENDMDL
MODEL 4
REMARK VINA RESULT:      -6.8      3.608      8.100
REMARK  Name = 
REMARK  10 active torsions:
REMARK  status: ('A' for Active; 'I' for Inactive)
REMARK    1  A    between atoms: S_1  and  N_4
REMARK    2  A    between atoms: S_1  and  C_5
REMARK    3  A    between atoms: N_10  and  C_13
REMARK    4  A    between atoms: C_14  and  C_17
REMARK    5  A    between atoms: C_16  and  C_20
REMARK    6  A    between atoms: C_20  and  O_24
REMARK    7  A    between atoms: O_24  and  C_27
REMARK    8  A    between atoms: C_25  and  C_28
REMARK    9  A    between atoms: C_25  and  C_29
REMARK   10  A    between atoms: C_27  and  C_30
REMARK                            x       y       z     vdW  Elec       q    Type
REMARK                         _______ _______ _______ _____ _____    ______ ____
ROOT
ATOM      1  N   UNL     1     -11.716  56.769  49.049  0.00  0.00    +0.000 N 
ATOM      2  C   UNL     1     -10.715  55.935  49.515  0.00  0.00    +0.000 C 
ATOM      3  O   UNL     1     -10.968  54.798  49.903  0.00  0.00    +0.000 OA
ATOM      4  N   UNL     1      -9.464  56.511  49.550  0.00  0.00    +0.000 N 
ATOM      5  H   UNL     1     -11.467  57.641  48.665  0.00  0.00    +0.000 HD
ATOM      6  H   UNL     1      -9.328  57.448  49.282  0.00  0.00    +0.000 HD
ENDROOT
BRANCH   4   7
ATOM      7  C   UNL     1      -8.404  55.728  49.975  0.00  0.00    +0.000 A 
ATOM      8  S   UNL     1      -7.901  56.022  51.573  0.00  0.00    +0.000 S 
ATOM      9  C   UNL     1      -7.672  54.744  49.338  0.00  0.00    +0.000 A 
ATOM     10  C   UNL     1      -6.901  54.644  51.554  0.00  0.00    +0.000 A 
ATOM     11  C   UNL     1      -6.867  54.035  50.311  0.00  0.00    +0.000 A 
ATOM     12  C   UNL     1      -6.151  54.169  52.777  0.00  0.00    +0.000 C 
ATOM     13  C   UNL     1      -6.017  52.827  50.043  0.00  0.00    +0.000 C 
ATOM     14  C   UNL     1      -5.002  53.190  52.388  0.00  0.00    +0.000 C 
ATOM     15  C   UNL     1      -5.525  52.171  51.340  0.00  0.00    +0.000 C 
ATOM     16  C   UNL     1      -4.525  52.405  53.624  0.00  0.00    +0.000 C 
ATOM     17  C   UNL     1      -3.797  53.978  51.838  0.00  0.00    +0.000 C 
BRANCH   9  18
ATOM     18  C   UNL     1      -7.677  54.487  47.886  0.00  0.00    +0.000 C 
ATOM     19  O   UNL     1      -6.725  54.732  47.154  0.00  0.00    +0.000 OA
BRANCH  18  20
ATOM     20  O   UNL     1      -8.906  54.101  47.437  0.00  0.00    +0.000 OA
BRANCH  20  21
ATOM     21  C   UNL     1      -9.404  54.696  46.236  0.00  0.00    +0.000 C 
ATOM     22  C   UNL     1     -10.911  54.563  46.151  0.00  0.00    +0.000 C 
ENDBRANCH  20  21
ENDBRANCH  18  20
ENDBRANCH   9  18
ENDBRANCH   4   7
BRANCH   1  23
ATOM     23  S   UNL     1     -13.333  56.348  49.115  0.00  0.00    +0.000 S 
ATOM     24  O   UNL     1     -13.429  54.932  49.406  0.00  0.00    +0.000 OA
ATOM     25  O   UNL     1     -13.926  56.876  47.900  0.00  0.00    +0.000 OA
BRANCH  23  26
ATOM     26  C   UNL     1     -13.988  57.280  50.503  0.00  0.00    +0.000 A 
ATOM     27  N   UNL     1     -14.384  58.548  50.200  0.00  0.00    +0.000 NA
ATOM     28  C   UNL     1     -14.061  56.704  51.763  0.00  0.00    +0.000 A 
ATOM     29  C   UNL     1     -14.915  59.252  51.227  0.00  0.00    +0.000 A 
ATOM     30  C   UNL     1     -14.599  57.473  52.792  0.00  0.00    +0.000 A 
ATOM     31  C   UNL     1     -15.048  58.771  52.528  0.00  0.00    +0.000 A 
ATOM     32  C   UNL     1     -15.643  59.607  53.621  0.00  0.00    +0.000 C 
ENDBRANCH  23  26
ENDBRANCH   1  23
TORSDOF 6
ENDMDL
MODEL 5
REMARK VINA RESULT:      -6.6      3.078      7.946
REMARK  Name = 
REMARK  10 active torsions:
REMARK  status: ('A' for Active; 'I' for Inactive)
REMARK    1  A    between atoms: S_1  and  N_4
REMARK    2  A    between atoms: S_1  and  C_5
REMARK    3  A    between atoms: N_10  and  C_13
REMARK    4  A    between atoms: C_14  and  C_17
REMARK    5  A    between atoms: C_16  and  C_20
REMARK    6  A    between atoms: C_20  and  O_24
REMARK    7  A    between atoms: O_24  and  C_27
REMARK    8  A    between atoms: C_25  and  C_28
REMARK    9  A    between atoms: C_25  and  C_29
REMARK   10  A    between atoms: C_27  and  C_30
REMARK                            x       y       z     vdW  Elec       q    Type
REMARK                         _______ _______ _______ _____ _____    ______ ____
ROOT
ATOM      1  N   UNL     1     -12.254  57.187  49.162  0.00  0.00    +0.000 N 
ATOM      2  C   UNL     1     -11.821  56.041  49.806  0.00  0.00    +0.000 C 
ATOM      3  O   UNL     1     -12.617  55.188  50.186  0.00  0.00    +0.000 OA
ATOM      4  N   UNL     1     -10.460  55.988  50.018  0.00  0.00    +0.000 N 
ATOM      5  H   UNL     1     -11.584  57.807  48.794  0.00  0.00    +0.000 HD
ATOM      6  H   UNL     1      -9.874  56.729  49.745  0.00  0.00    +0.000 HD
ENDROOT
BRANCH   4   7
ATOM      7  C   UNL     1      -9.945  54.857  50.630  0.00  0.00    +0.000 A 
ATOM      8  S   UNL     1      -9.804  54.967  52.321  0.00  0.00    +0.000 S 
ATOM      9  C   UNL     1      -9.522  53.646  50.118  0.00  0.00    +0.000 A 
ATOM     10  C   UNL     1      -9.460  53.303  52.440  0.00  0.00    +0.000 A 
ATOM     11  C   UNL     1      -9.346  52.699  51.199  0.00  0.00    +0.000 A 
ATOM     12  C   UNL     1      -9.307  52.600  53.769  0.00  0.00    +0.000 C 
ATOM     13  C   UNL     1      -9.003  51.245  51.055  0.00  0.00    +0.000 C 
ATOM     14  C   UNL     1      -8.578  51.233  53.600  0.00  0.00    +0.000 C 
ATOM     15  C   UNL     1      -9.166  50.482  52.376  0.00  0.00    +0.000 C 
ATOM     16  C   UNL     1      -8.790  50.355  54.849  0.00  0.00    +0.000 C 
ATOM     17  C   UNL     1      -7.061  51.456  53.435  0.00  0.00    +0.000 C 
BRANCH   9  18
ATOM     18  C   UNL     1      -9.248  53.373  48.694  0.00  0.00    +0.000 C 
ATOM     19  O   UNL     1      -8.133  53.107  48.261  0.00  0.00    +0.000 OA
BRANCH  18  20
ATOM     20  O   UNL     1     -10.337  53.610  47.908  0.00  0.00    +0.000 OA
BRANCH  20  21
ATOM     21  C   UNL     1     -10.194  54.514  46.810  0.00  0.00    +0.000 C 
ATOM     22  C   UNL     1     -11.548  54.970  46.305  0.00  0.00    +0.000 C 
ENDBRANCH  20  21
ENDBRANCH  18  20
ENDBRANCH   9  18
ENDBRANCH   4   7
BRANCH   1  23
ATOM     23  S   UNL     1     -13.876  57.554  48.986  0.00  0.00    +0.000 S 
ATOM     24  O   UNL     1     -14.551  56.402  48.422  0.00  0.00    +0.000 OA
ATOM     25  O   UNL     1     -13.918  58.826  48.290  0.00  0.00    +0.000 OA
BRANCH  23  26
ATOM     26  C   UNL     1     -14.465  57.817  50.662  0.00  0.00    +0.000 A 
ATOM     27  N   UNL     1     -14.116  59.017  51.205  0.00  0.00    +0.000 NA
ATOM     28  C   UNL     1     -15.213  56.841  51.305  0.00  0.00    +0.000 A 
ATOM     29  C   UNL     1     -14.583  59.249  52.454  0.00  0.00    +0.000 A 
ATOM     30  C   UNL     1     -15.658  57.117  52.596  0.00  0.00    +0.000 A 
ATOM     31  C   UNL     1     -15.351  58.347  53.189  0.00  0.00    +0.000 A 
ATOM     32  C   UNL     1     -15.834  58.665  54.571  0.00  0.00    +0.000 C 
ENDBRANCH  23  26
ENDBRANCH   1  23
TORSDOF 6
ENDMDL
MODEL 6
REMARK VINA RESULT:      -6.4      3.505      8.780
REMARK  Name = 
REMARK  10 active torsions:
REMARK  status: ('A' for Active; 'I' for Inactive)
REMARK    1  A    between atoms: S_1  and  N_4
REMARK    2  A    between atoms: S_1  and  C_5
REMARK    3  A    between atoms: N_10  and  C_13
REMARK    4  A    between atoms: C_14  and  C_17
REMARK    5  A    between atoms: C_16  and  C_20
REMARK    6  A    between atoms: C_20  and  O_24
REMARK    7  A    between atoms: O_24  and  C_27
REMARK    8  A    between atoms: C_25  and  C_28
REMARK    9  A    between atoms: C_25  and  C_29
REMARK   10  A    between atoms: C_27  and  C_30
REMARK                            x       y       z     vdW  Elec       q    Type
REMARK                         _______ _______ _______ _____ _____    ______ ____
ROOT
ATOM      1  N   UNL     1     -11.976  56.944  49.364  0.00  0.00    +0.000 N 
ATOM      2  C   UNL     1     -10.939  56.029  49.319  0.00  0.00    +0.000 C 
ATOM      3  O   UNL     1     -11.160  54.825  49.232  0.00  0.00    +0.000 OA
ATOM      4  N   UNL     1      -9.684  56.586  49.433  0.00  0.00    +0.000 N 
ATOM      5  H   UNL     1     -11.762  57.905  49.345  0.00  0.00    +0.000 HD
ATOM      6  H   UNL     1      -9.567  57.554  49.560  0.00  0.00    +0.000 HD
ENDROOT
BRANCH   4   7
ATOM      7  C   UNL     1      -8.592  55.736  49.364  0.00  0.00    +0.000 A 
ATOM      8  S   UNL     1      -8.299  55.079  47.823  0.00  0.00    +0.000 S 
ATOM      9  C   UNL     1      -7.688  55.320  50.323  0.00  0.00    +0.000 A 
ATOM     10  C   UNL     1      -6.792  54.467  48.327  0.00  0.00    +0.000 A 
ATOM     11  C   UNL     1      -6.569  54.665  49.679  0.00  0.00    +0.000 A 
ATOM     12  C   UNL     1      -5.833  53.790  47.375  0.00  0.00    +0.000 C 
ATOM     13  C   UNL     1      -5.325  54.169  50.357  0.00  0.00    +0.000 C 
ATOM     14  C   UNL     1      -4.769  52.954  48.149  0.00  0.00    +0.000 C 
ATOM     15  C   UNL     1      -4.235  53.782  49.349  0.00  0.00    +0.000 C 
ATOM     16  C   UNL     1      -3.579  52.620  47.230  0.00  0.00    +0.000 C 
ATOM     17  C   UNL     1      -5.383  51.623  48.626  0.00  0.00    +0.000 C 
BRANCH   9  18
ATOM     18  C   UNL     1      -7.860  55.478  51.779  0.00  0.00    +0.000 C 
ATOM     19  O   UNL     1      -7.254  56.310  52.443  0.00  0.00    +0.000 OA
BRANCH  18  20
ATOM     20  O   UNL     1      -8.640  54.495  52.314  0.00  0.00    +0.000 OA
BRANCH  20  21
ATOM     21  C   UNL     1      -9.911  54.861  52.857  0.00  0.00    +0.000 C 
ATOM     22  C   UNL     1     -10.953  53.803  52.554  0.00  0.00    +0.000 C 
ENDBRANCH  20  21
ENDBRANCH  18  20
ENDBRANCH   9  18
ENDBRANCH   4   7
BRANCH   1  23
ATOM     23  S   UNL     1     -13.579  56.475  49.449  0.00  0.00    +0.000 S 
ATOM     24  O   UNL     1     -13.631  55.085  49.856  0.00  0.00    +0.000 OA
ATOM     25  O   UNL     1     -14.174  56.880  48.190  0.00  0.00    +0.000 OA
BRANCH  23  26
ATOM     26  C   UNL     1     -14.281  57.494  50.750  0.00  0.00    +0.000 A 
ATOM     27  N   UNL     1     -14.363  56.888  51.966  0.00  0.00    +0.000 NA
ATOM     28  C   UNL     1     -14.694  58.792  50.479  0.00  0.00    +0.000 A 
ATOM     29  C   UNL     1     -14.855  57.654  52.968  0.00  0.00    +0.000 A 
ATOM     30  C   UNL     1     -15.211  59.536  51.537  0.00  0.00    +0.000 A 
ATOM     31  C   UNL     1     -15.288  58.970  52.813  0.00  0.00    +0.000 A 
ATOM     32  C   UNL     1     -15.828  59.762  53.965  0.00  0.00    +0.000 C 
ENDBRANCH  23  26
ENDBRANCH   1  23
TORSDOF 6
ENDMDL
MODEL 7
REMARK VINA RESULT:      -6.4      2.430      3.562
REMARK  Name = 
REMARK  10 active torsions:
REMARK  status: ('A' for Active; 'I' for Inactive)
REMARK    1  A    between atoms: S_1  and  N_4
REMARK    2  A    between atoms: S_1  and  C_5
REMARK    3  A    between atoms: N_10  and  C_13
REMARK    4  A    between atoms: C_14  and  C_17
REMARK    5  A    between atoms: C_16  and  C_20
REMARK    6  A    between atoms: C_20  and  O_24
REMARK    7  A    between atoms: O_24  and  C_27
REMARK    8  A    between atoms: C_25  and  C_28
REMARK    9  A    between atoms: C_25  and  C_29
REMARK   10  A    between atoms: C_27  and  C_30
REMARK                            x       y       z     vdW  Elec       q    Type
REMARK                         _______ _______ _______ _____ _____    ______ ____
ROOT
ATOM      1  N   UNL     1     -10.650  53.940  45.062  0.00  0.00    +0.000 N 
ATOM      2  C   UNL     1     -11.227  54.261  46.278  0.00  0.00    +0.000 C 
ATOM      3  O   UNL     1     -11.673  53.389  47.018  0.00  0.00    +0.000 OA
ATOM      4  N   UNL     1     -11.297  55.613  46.534  0.00  0.00    +0.000 N 
ATOM      5  H   UNL     1     -10.225  54.655  44.534  0.00  0.00    +0.000 HD
ATOM      6  H   UNL     1     -10.977  56.273  45.878  0.00  0.00    +0.000 HD
ENDROOT
BRANCH   4   7
ATOM      7  C   UNL     1     -11.834  56.013  47.747  0.00  0.00    +0.000 A 
ATOM      8  S   UNL     1     -13.462  56.501  47.676  0.00  0.00    +0.000 S 
ATOM      9  C   UNL     1     -11.289  56.091  49.014  0.00  0.00    +0.000 A 
ATOM     10  C   UNL     1     -13.566  56.539  49.375  0.00  0.00    +0.000 A 
ATOM     11  C   UNL     1     -12.347  56.292  49.983  0.00  0.00    +0.000 A 
ATOM     12  C   UNL     1     -14.862  56.813  50.102  0.00  0.00    +0.000 C 
ATOM     13  C   UNL     1     -12.185  56.318  51.475  0.00  0.00    +0.000 C 
ATOM     14  C   UNL     1     -14.600  57.222  51.584  0.00  0.00    +0.000 C 
ATOM     15  C   UNL     1     -13.537  56.274  52.200  0.00  0.00    +0.000 C 
ATOM     16  C   UNL     1     -15.894  57.095  52.411  0.00  0.00    +0.000 C 
ATOM     17  C   UNL     1     -14.139  58.691  51.655  0.00  0.00    +0.000 C 
BRANCH   9  18
ATOM     18  C   UNL     1      -9.850  56.025  49.326  0.00  0.00    +0.000 C 
ATOM     19  O   UNL     1      -9.168  57.011  49.582  0.00  0.00    +0.000 OA
BRANCH  18  20
ATOM     20  O   UNL     1      -9.341  54.773  49.138  0.00  0.00    +0.000 OA
BRANCH  20  21
ATOM     21  C   UNL     1      -9.740  53.738  50.041  0.00  0.00    +0.000 C 
ATOM     22  C   UNL     1      -9.354  52.375  49.506  0.00  0.00    +0.000 C 
ENDBRANCH  20  21
ENDBRANCH  18  20
ENDBRANCH   9  18
ENDBRANCH   4   7
BRANCH   1  23
ATOM     23  S   UNL     1     -10.648  52.380  44.458  0.00  0.00    +0.000 S 
ATOM     24  O   UNL     1     -10.156  52.415  43.095  0.00  0.00    +0.000 OA
ATOM     25  O   UNL     1     -11.971  51.852  44.733  0.00  0.00    +0.000 OA
BRANCH  23  26
ATOM     26  C   UNL     1      -9.471  51.497  45.486  0.00  0.00    +0.000 A 
ATOM     27  N   UNL     1      -8.246  52.084  45.582  0.00  0.00    +0.000 NA
ATOM     28  C   UNL     1      -9.835  50.311  46.110  0.00  0.00    +0.000 A 
ATOM     29  C   UNL     1      -7.358  51.452  46.384  0.00  0.00    +0.000 A 
ATOM     30  C   UNL     1      -8.882  49.687  46.910  0.00  0.00    +0.000 A 
ATOM     31  C   UNL     1      -7.618  50.265  47.066  0.00  0.00    +0.000 A 
ATOM     32  C   UNL     1      -6.586  49.613  47.936  0.00  0.00    +0.000 C 
ENDBRANCH  23  26
ENDBRANCH   1  23
TORSDOF 6
ENDMDL
MODEL 8
REMARK VINA RESULT:      -6.4      3.445      7.965
REMARK  Name = 
REMARK  10 active torsions:
REMARK  status: ('A' for Active; 'I' for Inactive)
REMARK    1  A    between atoms: S_1  and  N_4
REMARK    2  A    between atoms: S_1  and  C_5
REMARK    3  A    between atoms: N_10  and  C_13
REMARK    4  A    between atoms: C_14  and  C_17
REMARK    5  A    between atoms: C_16  and  C_20
REMARK    6  A    between atoms: C_20  and  O_24
REMARK    7  A    between atoms: O_24  and  C_27
REMARK    8  A    between atoms: C_25  and  C_28
REMARK    9  A    between atoms: C_25  and  C_29
REMARK   10  A    between atoms: C_27  and  C_30
REMARK                            x       y       z     vdW  Elec       q    Type
REMARK                         _______ _______ _______ _____ _____    ______ ____
ROOT
ATOM      1  N   UNL     1     -12.910  55.373  49.404  0.00  0.00    +0.000 N 
ATOM      2  C   UNL     1     -11.767  55.208  50.165  0.00  0.00    +0.000 C 
ATOM      3  O   UNL     1     -11.214  56.168  50.694  0.00  0.00    +0.000 OA
ATOM      4  N   UNL     1     -11.300  53.913  50.217  0.00  0.00    +0.000 N 
ATOM      5  H   UNL     1     -13.376  54.574  49.066  0.00  0.00    +0.000 HD
ATOM      6  H   UNL     1     -11.750  53.190  49.724  0.00  0.00    +0.000 HD
ENDROOT
BRANCH   4   7
ATOM      7  C   UNL     1     -10.176  53.661  50.986  0.00  0.00    +0.000 A 
ATOM      8  S   UNL     1     -10.501  53.242  52.602  0.00  0.00    +0.000 S 
ATOM      9  C   UNL     1      -8.828  53.688  50.683  0.00  0.00    +0.000 A 
ATOM     10  C   UNL     1      -8.877  52.794  52.854  0.00  0.00    +0.000 A 
ATOM     11  C   UNL     1      -8.080  53.067  51.755  0.00  0.00    +0.000 A 
ATOM     12  C   UNL     1      -8.399  52.171  54.145  0.00  0.00    +0.000 C 
ATOM     13  C   UNL     1      -6.603  52.797  51.762  0.00  0.00    +0.000 C 
ATOM     14  C   UNL     1      -6.849  52.270  54.277  0.00  0.00    +0.000 C 
ATOM     15  C   UNL     1      -6.190  51.885  52.925  0.00  0.00    +0.000 C 
ATOM     16  C   UNL     1      -6.340  51.294  55.354  0.00  0.00    +0.000 C 
ATOM     17  C   UNL     1      -6.442  53.695  54.703  0.00  0.00    +0.000 C 
BRANCH   9  18
ATOM     18  C   UNL     1      -8.241  54.295  49.474  0.00  0.00    +0.000 C 
ATOM     19  O   UNL     1      -7.234  54.994  49.492  0.00  0.00    +0.000 OA
BRANCH  18  20
ATOM     20  O   UNL     1      -9.032  54.124  48.376  0.00  0.00    +0.000 OA
BRANCH  20  21
ATOM     21  C   UNL     1      -9.242  55.244  47.512  0.00  0.00    +0.000 C 
ATOM     22  C   UNL     1     -10.441  55.018  46.615  0.00  0.00    +0.000 C 
ENDBRANCH  20  21
ENDBRANCH  18  20
ENDBRANCH   9  18
ENDBRANCH   4   7
BRANCH   1  23
ATOM     23  S   UNL     1     -13.529  56.883  49.036  0.00  0.00    +0.000 S 
ATOM     24  O   UNL     1     -14.600  56.721  48.074  0.00  0.00    +0.000 OA
ATOM     25  O   UNL     1     -12.382  57.707  48.705  0.00  0.00    +0.000 OA
BRANCH  23  26
ATOM     26  C   UNL     1     -14.214  57.482  50.584  0.00  0.00    +0.000 A 
ATOM     27  N   UNL     1     -14.792  56.522  51.359  0.00  0.00    +0.000 NA
ATOM     28  C   UNL     1     -14.134  58.827  50.914  0.00  0.00    +0.000 A 
ATOM     29  C   UNL     1     -15.281  56.948  52.547  0.00  0.00    +0.000 A 
ATOM     30  C   UNL     1     -14.667  59.222  52.139  0.00  0.00    +0.000 A 
ATOM     31  C   UNL     1     -15.245  58.271  52.985  0.00  0.00    +0.000 A 
ATOM     32  C   UNL     1     -15.809  58.677  54.313  0.00  0.00    +0.000 C 
ENDBRANCH  23  26
ENDBRANCH   1  23
TORSDOF 6
ENDMDL
MODEL 9
REMARK VINA RESULT:      -6.3      3.840      7.836
REMARK  Name = 
REMARK  10 active torsions:
REMARK  status: ('A' for Active; 'I' for Inactive)
REMARK    1  A    between atoms: S_1  and  N_4
REMARK    2  A    between atoms: S_1  and  C_5
REMARK    3  A    between atoms: N_10  and  C_13
REMARK    4  A    between atoms: C_14  and  C_17
REMARK    5  A    between atoms: C_16  and  C_20
REMARK    6  A    between atoms: C_20  and  O_24
REMARK    7  A    between atoms: O_24  and  C_27
REMARK    8  A    between atoms: C_25  and  C_28
REMARK    9  A    between atoms: C_25  and  C_29
REMARK   10  A    between atoms: C_27  and  C_30
REMARK                            x       y       z     vdW  Elec       q    Type
REMARK                         _______ _______ _______ _____ _____    ______ ____
ROOT
ATOM      1  N   UNL     1      -7.773  55.117  51.779  0.00  0.00    +0.000 N 
ATOM      2  C   UNL     1      -7.990  54.378  50.629  0.00  0.00    +0.000 C 
ATOM      3  O   UNL     1      -7.438  53.295  50.458  0.00  0.00    +0.000 OA
ATOM      4  N   UNL     1      -8.816  54.987  49.709  0.00  0.00    +0.000 N 
ATOM      5  H   UNL     1      -8.297  55.938  51.922  0.00  0.00    +0.000 HD
ATOM      6  H   UNL     1      -9.185  55.884  49.873  0.00  0.00    +0.000 HD
ENDROOT
BRANCH   4   7
ATOM      7  C   UNL     1      -9.107  54.295  48.545  0.00  0.00    +0.000 A 
ATOM      8  S   UNL     1      -8.085  54.650  47.233  0.00  0.00    +0.000 S 
ATOM      9  C   UNL     1     -10.082  53.362  48.249  0.00  0.00    +0.000 A 
ATOM     10  C   UNL     1      -8.724  53.354  46.333  0.00  0.00    +0.000 A 
ATOM     11  C   UNL     1      -9.778  52.732  46.981  0.00  0.00    +0.000 A 
ATOM     12  C   UNL     1      -8.175  52.956  44.982  0.00  0.00    +0.000 C 
ATOM     13  C   UNL     1     -10.528  51.590  46.359  0.00  0.00    +0.000 C 
ATOM     14  C   UNL     1      -9.190  52.065  44.204  0.00  0.00    +0.000 C 
ATOM     15  C   UNL     1      -9.776  50.993  45.161  0.00  0.00    +0.000 C 
ATOM     16  C   UNL     1      -8.483  51.336  43.045  0.00  0.00    +0.000 C 
ATOM     17  C   UNL     1     -10.308  52.937  43.599  0.00  0.00    +0.000 C 
BRANCH   9  18
ATOM     18  C   UNL     1     -11.272  53.085  49.074  0.00  0.00    +0.000 C 
ATOM     19  O   UNL     1     -12.421  53.234  48.674  0.00  0.00    +0.000 OA
BRANCH  18  20
ATOM     20  O   UNL     1     -10.945  52.804  50.369  0.00  0.00    +0.000 OA
BRANCH  20  21
ATOM     21  C   UNL     1     -11.860  53.194  51.396  0.00  0.00    +0.000 C 
ATOM     22  C   UNL     1     -11.556  54.595  51.886  0.00  0.00    +0.000 C 
ENDBRANCH  20  21
ENDBRANCH  18  20
ENDBRANCH   9  18
ENDBRANCH   4   7
BRANCH   1  23
ATOM     23  S   UNL     1      -6.649  54.665  52.932  0.00  0.00    +0.000 S 
ATOM     24  O   UNL     1      -6.514  55.743  53.892  0.00  0.00    +0.000 OA
ATOM     25  O   UNL     1      -5.487  54.211  52.191  0.00  0.00    +0.000 OA
BRANCH  23  26
ATOM     26  C   UNL     1      -7.380  53.242  53.745  0.00  0.00    +0.000 A 
ATOM     27  N   UNL     1      -6.502  52.478  54.453  0.00  0.00    +0.000 NA
ATOM     28  C   UNL     1      -8.739  52.986  53.627  0.00  0.00    +0.000 A 
ATOM     29  C   UNL     1      -7.042  51.421  55.104  0.00  0.00    +0.000 A 
ATOM     30  C   UNL     1      -9.247  51.878  54.300  0.00  0.00    +0.000 A 
ATOM     31  C   UNL     1      -8.392  51.077  55.065  0.00  0.00    +0.000 A 
ATOM     32  C   UNL     1      -8.925  49.890  55.807  0.00  0.00    +0.000 C 
ENDBRANCH  23  26
ENDBRANCH   1  23
TORSDOF 6
ENDMDL
