MODEL 1
REMARK VINA RESULT:      -7.6      0.000      0.000
REMARK  Name = 
REMARK  10 active torsions:
REMARK  status: ('A' for Active; 'I' for Inactive)
REMARK    1  A    between atoms: S_1  and  N_4
REMARK    2  A    between atoms: S_1  and  C_5
REMARK    3  A    between atoms: N_10  and  C_13
REMARK    4  A    between atoms: C_14  and  C_17
REMARK    5  A    between atoms: C_16  and  C_20
REMARK    6  A    between atoms: C_20  and  O_24
REMARK    7  A    between atoms: O_24  and  C_27
REMARK    8  A    between atoms: C_25  and  C_28
REMARK    9  A    between atoms: C_25  and  C_29
REMARK   10  A    between atoms: C_27  and  C_30
REMARK                            x       y       z     vdW  Elec       q    Type
REMARK                         _______ _______ _______ _____ _____    ______ ____
ROOT
ATOM      1  N   UNL     1      -8.046  53.253  49.568  0.00  0.00    +0.000 N 
ATOM      2  C   UNL     1      -9.152  54.092  49.693  0.00  0.00    +0.000 C 
ATOM      3  O   UNL     1      -9.209  55.167  49.095  0.00  0.00    +0.000 OA
ATOM      4  N   UNL     1     -10.144  53.706  50.591  0.00  0.00    +0.000 N 
ATOM      5  H   UNL     1      -8.011  52.422  50.094  0.00  0.00    +0.000 HD
ATOM      6  H   UNL     1     -10.094  52.842  51.061  0.00  0.00    +0.000 HD
ENDROOT
BRANCH   4   7
ATOM      7  C   UNL     1     -11.210  54.579  50.807  0.00  0.00    +0.000 A 
ATOM      8  S   UNL     1     -11.355  55.294  52.356  0.00  0.00    +0.000 S 
ATOM      9  C   UNL     1     -12.222  54.983  49.955  0.00  0.00    +0.000 A 
ATOM     10  C   UNL     1     -12.643  56.319  51.844  0.00  0.00    +0.000 A 
ATOM     11  C   UNL     1     -12.983  56.069  50.525  0.00  0.00    +0.000 A 
ATOM     12  C   UNL     1     -13.329  57.356  52.727  0.00  0.00    +0.000 C 
ATOM     13  C   UNL     1     -14.107  56.797  49.848  0.00  0.00    +0.000 C 
ATOM     14  C   UNL     1     -14.718  57.786  52.125  0.00  0.00    +0.000 C 
ATOM     15  C   UNL     1     -14.554  58.037  50.609  0.00  0.00    +0.000 C 
ATOM     16  C   UNL     1     -15.251  59.103  52.728  0.00  0.00    +0.000 C 
ATOM     17  C   UNL     1     -15.777  56.696  52.396  0.00  0.00    +0.000 C 
BRANCH   9  18
ATOM     18  C   UNL     1     -12.484  54.342  48.668  0.00  0.00    +0.000 C 
ATOM     19  O   UNL     1     -12.540  53.129  48.515  0.00  0.00    +0.000 OA
BRANCH  18  20
ATOM     20  O   UNL     1     -12.658  55.257  47.681  0.00  0.00    +0.000 OA
BRANCH  20  21
ATOM     21  C   UNL     1     -11.550  55.488  46.817  0.00  0.00    +0.000 C 
ATOM     22  C   UNL     1     -11.596  54.519  45.657  0.00  0.00    +0.000 C 
ENDBRANCH  20  21
ENDBRANCH  18  20
ENDBRANCH   9  18
ENDBRANCH   4   7
BRANCH   1  23
ATOM     23  S   UNL     1      -6.750  53.633  48.525  0.00  0.00    +0.000 S 
ATOM     24  O   UNL     1      -5.722  52.617  48.681  0.00  0.00    +0.000 OA
ATOM     25  O   UNL     1      -6.420  55.023  48.742  0.00  0.00    +0.000 OA
BRANCH  23  26
ATOM     26  C   UNL     1      -7.410  53.486  46.866  0.00  0.00    +0.000 A 
ATOM     27  C   UNL     1      -7.519  54.583  46.003  0.00  0.00    +0.000 A 
ATOM     28  C   UNL     1      -7.713  52.205  46.387  0.00  0.00    +0.000 A 
ATOM     29  C   UNL     1      -8.010  54.393  44.700  0.00  0.00    +0.000 A 
ATOM     30  C   UNL     1      -8.205  52.022  45.092  0.00  0.00    +0.000 A 
ATOM     31  C   UNL     1      -8.368  53.117  44.238  0.00  0.00    +0.000 A 
ATOM     32  C   UNL     1      -8.931  52.917  42.860  0.00  0.00    +0.000 C 
ENDBRANCH  23  26
ENDBRANCH   1  23
TORSDOF 6
ENDMDL
MODEL 2
REMARK VINA RESULT:      -7.4      2.972      8.175
REMARK  Name = 
REMARK  10 active torsions:
REMARK  status: ('A' for Active; 'I' for Inactive)
REMARK    1  A    between atoms: S_1  and  N_4
REMARK    2  A    between atoms: S_1  and  C_5
REMARK    3  A    between atoms: N_10  and  C_13
REMARK    4  A    between atoms: C_14  and  C_17
REMARK    5  A    between atoms: C_16  and  C_20
REMARK    6  A    between atoms: C_20  and  O_24
REMARK    7  A    between atoms: O_24  and  C_27
REMARK    8  A    between atoms: C_25  and  C_28
REMARK    9  A    between atoms: C_25  and  C_29
REMARK   10  A    between atoms: C_27  and  C_30
REMARK                            x       y       z     vdW  Elec       q    Type
REMARK                         _______ _______ _______ _____ _____    ______ ____
ROOT
ATOM      1  N   UNL     1     -11.654  56.982  49.059  0.00  0.00    +0.000 N 
ATOM      2  C   UNL     1     -10.655  56.117  49.501  0.00  0.00    +0.000 C 
ATOM      3  O   UNL     1     -10.928  55.015  49.977  0.00  0.00    +0.000 OA
ATOM      4  N   UNL     1      -9.345  56.589  49.466  0.00  0.00    +0.000 N 
ATOM      5  H   UNL     1     -11.406  57.874  48.725  0.00  0.00    +0.000 HD
ATOM      6  H   UNL     1      -9.134  57.469  49.078  0.00  0.00    +0.000 HD
ENDROOT
BRANCH   4   7
ATOM      7  C   UNL     1      -8.341  55.779  49.997  0.00  0.00    +0.000 A 
ATOM      8  S   UNL     1      -7.882  56.042  51.626  0.00  0.00    +0.000 S 
ATOM      9  C   UNL     1      -7.611  54.761  49.412  0.00  0.00    +0.000 A 
ATOM     10  C   UNL     1      -6.858  54.655  51.638  0.00  0.00    +0.000 A 
ATOM     11  C   UNL     1      -6.833  54.044  50.396  0.00  0.00    +0.000 A 
ATOM     12  C   UNL     1      -6.071  54.170  52.851  0.00  0.00    +0.000 C 
ATOM     13  C   UNL     1      -5.980  52.840  50.126  0.00  0.00    +0.000 C 
ATOM     14  C   UNL     1      -4.917  53.188  52.424  0.00  0.00    +0.000 C 
ATOM     15  C   UNL     1      -5.472  52.175  51.396  0.00  0.00    +0.000 C 
ATOM     16  C   UNL     1      -4.372  52.355  53.603  0.00  0.00    +0.000 C 
ATOM     17  C   UNL     1      -3.731  53.982  51.836  0.00  0.00    +0.000 C 
BRANCH   9  18
ATOM     18  C   UNL     1      -7.618  54.498  47.975  0.00  0.00    +0.000 C 
ATOM     19  O   UNL     1      -6.638  54.640  47.256  0.00  0.00    +0.000 OA
BRANCH  18  20
ATOM     20  O   UNL     1      -8.837  54.077  47.551  0.00  0.00    +0.000 OA
BRANCH  20  21
ATOM     21  C   UNL     1      -9.318  54.630  46.329  0.00  0.00    +0.000 C 
ATOM     22  C   UNL     1     -10.825  54.523  46.279  0.00  0.00    +0.000 C 
ENDBRANCH  20  21
ENDBRANCH  18  20
ENDBRANCH   9  18
ENDBRANCH   4   7
BRANCH   1  23
ATOM     23  S   UNL     1     -13.300  56.531  49.083  0.00  0.00    +0.000 S 
ATOM     24  O   UNL     1     -13.381  55.102  49.337  0.00  0.00    +0.000 OA
ATOM     25  O   UNL     1     -13.911  57.081  47.896  0.00  0.00    +0.000 OA
BRANCH  23  26
ATOM     26  C   UNL     1     -14.008  57.375  50.497  0.00  0.00    +0.000 A 
ATOM     27  C   UNL     1     -13.967  56.836  51.788  0.00  0.00    +0.000 A 
ATOM     28  C   UNL     1     -14.510  58.669  50.310  0.00  0.00    +0.000 A 
ATOM     29  C   UNL     1     -14.506  57.567  52.861  0.00  0.00    +0.000 A 
ATOM     30  C   UNL     1     -15.048  59.390  51.379  0.00  0.00    +0.000 A 
ATOM     31  C   UNL     1     -15.062  58.841  52.664  0.00  0.00    +0.000 A 
ATOM     32  C   UNL     1     -15.675  59.607  53.802  0.00  0.00    +0.000 C 
ENDBRANCH  23  26
ENDBRANCH   1  23
TORSDOF 6
ENDMDL
MODEL 3
REMARK VINA RESULT:      -7.3      2.539      4.050
REMARK  Name = 
REMARK  10 active torsions:
REMARK  status: ('A' for Active; 'I' for Inactive)
REMARK    1  A    between atoms: S_1  and  N_4
REMARK    2  A    between atoms: S_1  and  C_5
REMARK    3  A    between atoms: N_10  and  C_13
REMARK    4  A    between atoms: C_14  and  C_17
REMARK    5  A    between atoms: C_16  and  C_20
REMARK    6  A    between atoms: C_20  and  O_24
REMARK    7  A    between atoms: O_24  and  C_27
REMARK    8  A    between atoms: C_25  and  C_28
REMARK    9  A    between atoms: C_25  and  C_29
REMARK   10  A    between atoms: C_27  and  C_30
REMARK                            x       y       z     vdW  Elec       q    Type
REMARK                         _______ _______ _______ _____ _____    ______ ____
ROOT
ATOM      1  N   UNL     1      -8.186  53.098  49.069  0.00  0.00    +0.000 N 
ATOM      2  C   UNL     1      -9.165  54.070  49.267  0.00  0.00    +0.000 C 
ATOM      3  O   UNL     1      -8.892  55.270  49.222  0.00  0.00    +0.000 OA
ATOM      4  N   UNL     1     -10.441  53.626  49.607  0.00  0.00    +0.000 N 
ATOM      5  H   UNL     1      -8.427  52.147  49.156  0.00  0.00    +0.000 HD
ATOM      6  H   UNL     1     -10.653  52.665  49.634  0.00  0.00    +0.000 HD
ENDROOT
BRANCH   4   7
ATOM      7  C   UNL     1     -11.410  54.584  49.907  0.00  0.00    +0.000 A 
ATOM      8  S   UNL     1     -11.847  54.788  51.551  0.00  0.00    +0.000 S 
ATOM      9  C   UNL     1     -12.119  55.431  49.076  0.00  0.00    +0.000 A 
ATOM     10  C   UNL     1     -12.828  56.160  51.196  0.00  0.00    +0.000 A 
ATOM     11  C   UNL     1     -12.857  56.412  49.835  0.00  0.00    +0.000 A 
ATOM     12  C   UNL     1     -13.578  56.982  52.239  0.00  0.00    +0.000 C 
ATOM     13  C   UNL     1     -13.678  57.527  49.256  0.00  0.00    +0.000 C 
ATOM     14  C   UNL     1     -14.709  57.851  51.572  0.00  0.00    +0.000 C 
ATOM     15  C   UNL     1     -14.142  58.528  50.303  0.00  0.00    +0.000 C 
ATOM     16  C   UNL     1     -15.207  58.991  52.486  0.00  0.00    +0.000 C 
ATOM     17  C   UNL     1     -15.929  56.969  51.233  0.00  0.00    +0.000 C 
BRANCH   9  18
ATOM     18  C   UNL     1     -12.130  55.294  47.620  0.00  0.00    +0.000 C 
ATOM     19  O   UNL     1     -12.300  56.232  46.854  0.00  0.00    +0.000 OA
BRANCH  18  20
ATOM     20  O   UNL     1     -11.925  54.008  47.239  0.00  0.00    +0.000 OA
BRANCH  20  21
ATOM     21  C   UNL     1     -11.555  53.792  45.880  0.00  0.00    +0.000 C 
ATOM     22  C   UNL     1     -10.049  53.715  45.767  0.00  0.00    +0.000 C 
ENDBRANCH  20  21
ENDBRANCH  18  20
ENDBRANCH   9  18
ENDBRANCH   4   7
BRANCH   1  23
ATOM     23  S   UNL     1      -6.577  53.517  48.681  0.00  0.00    +0.000 S 
ATOM     24  O   UNL     1      -6.599  54.736  47.890  0.00  0.00    +0.000 OA
ATOM     25  O   UNL     1      -5.944  52.332  48.151  0.00  0.00    +0.000 OA
BRANCH  23  26
ATOM     26  C   UNL     1      -5.790  53.898  50.244  0.00  0.00    +0.000 A 
ATOM     27  C   UNL     1      -6.484  54.484  51.309  0.00  0.00    +0.000 A 
ATOM     28  C   UNL     1      -4.466  53.482  50.435  0.00  0.00    +0.000 A 
ATOM     29  C   UNL     1      -5.817  54.722  52.523  0.00  0.00    +0.000 A 
ATOM     30  C   UNL     1      -3.806  53.724  51.643  0.00  0.00    +0.000 A 
ATOM     31  C   UNL     1      -4.473  54.357  52.696  0.00  0.00    +0.000 A 
ATOM     32  C   UNL     1      -3.746  54.646  53.979  0.00  0.00    +0.000 C 
ENDBRANCH  23  26
ENDBRANCH   1  23
TORSDOF 6
ENDMDL
MODEL 4
REMARK VINA RESULT:      -7.2      3.078      4.982
REMARK  Name = 
REMARK  10 active torsions:
REMARK  status: ('A' for Active; 'I' for Inactive)
REMARK    1  A    between atoms: S_1  and  N_4
REMARK    2  A    between atoms: S_1  and  C_5
REMARK    3  A    between atoms: N_10  and  C_13
REMARK    4  A    between atoms: C_14  and  C_17
REMARK    5  A    between atoms: C_16  and  C_20
REMARK    6  A    between atoms: C_20  and  O_24
REMARK    7  A    between atoms: O_24  and  C_27
REMARK    8  A    between atoms: C_25  and  C_28
REMARK    9  A    between atoms: C_25  and  C_29
REMARK   10  A    between atoms: C_27  and  C_30
REMARK                            x       y       z     vdW  Elec       q    Type
REMARK                         _______ _______ _______ _____ _____    ______ ____
ROOT
ATOM      1  N   UNL     1      -8.244  52.692  50.215  0.00  0.00    +0.000 N 
ATOM      2  C   UNL     1      -9.143  53.730  50.450  0.00  0.00    +0.000 C 
ATOM      3  O   UNL     1      -8.931  54.572  51.323  0.00  0.00    +0.000 OA
ATOM      4  N   UNL     1     -10.329  53.721  49.720  0.00  0.00    +0.000 N 
ATOM      5  H   UNL     1      -8.463  52.008  49.541  0.00  0.00    +0.000 HD
ATOM      6  H   UNL     1     -10.487  53.048  49.019  0.00  0.00    +0.000 HD
ENDROOT
BRANCH   4   7
ATOM      7  C   UNL     1     -11.286  54.693  50.010  0.00  0.00    +0.000 A 
ATOM      8  S   UNL     1     -11.994  54.674  51.570  0.00  0.00    +0.000 S 
ATOM      9  C   UNL     1     -11.794  55.712  49.225  0.00  0.00    +0.000 A 
ATOM     10  C   UNL     1     -12.827  56.158  51.290  0.00  0.00    +0.000 A 
ATOM     11  C   UNL     1     -12.603  56.619  50.004  0.00  0.00    +0.000 A 
ATOM     12  C   UNL     1     -13.705  56.865  52.317  0.00  0.00    +0.000 C 
ATOM     13  C   UNL     1     -13.251  57.871  49.491  0.00  0.00    +0.000 C 
ATOM     14  C   UNL     1     -14.656  57.912  51.626  0.00  0.00    +0.000 C 
ATOM     15  C   UNL     1     -13.841  58.731  50.598  0.00  0.00    +0.000 C 
ATOM     16  C   UNL     1     -15.249  58.932  52.621  0.00  0.00    +0.000 C 
ATOM     17  C   UNL     1     -15.841  57.192  50.947  0.00  0.00    +0.000 C 
BRANCH   9  18
ATOM     18  C   UNL     1     -11.555  55.803  47.786  0.00  0.00    +0.000 C 
ATOM     19  O   UNL     1     -12.450  55.886  46.956  0.00  0.00    +0.000 OA
BRANCH  18  20
ATOM     20  O   UNL     1     -10.229  55.788  47.499  0.00  0.00    +0.000 OA
BRANCH  20  21
ATOM     21  C   UNL     1      -9.818  54.971  46.406  0.00  0.00    +0.000 C 
ATOM     22  C   UNL     1      -8.310  54.857  46.393  0.00  0.00    +0.000 C 
ENDBRANCH  20  21
ENDBRANCH  18  20
ENDBRANCH   9  18
ENDBRANCH   4   7
BRANCH   1  23
ATOM     23  S   UNL     1      -6.771  52.574  51.070  0.00  0.00    +0.000 S 
ATOM     24  O   UNL     1      -6.268  53.919  51.304  0.00  0.00    +0.000 OA
ATOM     25  O   UNL     1      -5.947  51.615  50.372  0.00  0.00    +0.000 OA
BRANCH  23  26
ATOM     26  C   UNL     1      -7.194  51.868  52.661  0.00  0.00    +0.000 A 
ATOM     27  C   UNL     1      -6.454  52.134  53.819  0.00  0.00    +0.000 A 
ATOM     28  C   UNL     1      -8.376  51.123  52.758  0.00  0.00    +0.000 A 
ATOM     29  C   UNL     1      -6.862  51.579  55.044  0.00  0.00    +0.000 A 
ATOM     30  C   UNL     1      -8.775  50.570  53.978  0.00  0.00    +0.000 A 
ATOM     31  C   UNL     1      -8.016  50.784  55.132  0.00  0.00    +0.000 A 
ATOM     32  C   UNL     1      -8.432  50.157  56.432  0.00  0.00    +0.000 C 
ENDBRANCH  23  26
ENDBRANCH   1  23
TORSDOF 6
ENDMDL
MODEL 5
REMARK VINA RESULT:      -7.1      1.988      2.764
REMARK  Name = 
REMARK  10 active torsions:
REMARK  status: ('A' for Active; 'I' for Inactive)
REMARK    1  A    between atoms: S_1  and  N_4
REMARK    2  A    between atoms: S_1  and  C_5
REMARK    3  A    between atoms: N_10  and  C_13
REMARK    4  A    between atoms: C_14  and  C_17
REMARK    5  A    between atoms: C_16  and  C_20
REMARK    6  A    between atoms: C_20  and  O_24
REMARK    7  A    between atoms: O_24  and  C_27
REMARK    8  A    between atoms: C_25  and  C_28
REMARK    9  A    between atoms: C_25  and  C_29
REMARK   10  A    between atoms: C_27  and  C_30
REMARK                            x       y       z     vdW  Elec       q    Type
REMARK                         _______ _______ _______ _____ _____    ______ ____
ROOT
ATOM      1  N   UNL     1      -9.111  51.765  49.355  0.00  0.00    +0.000 N 
ATOM      2  C   UNL     1     -10.185  52.604  49.650  0.00  0.00    +0.000 C 
ATOM      3  O   UNL     1     -11.341  52.279  49.381  0.00  0.00    +0.000 OA
ATOM      4  N   UNL     1      -9.884  53.858  50.176  0.00  0.00    +0.000 N 
ATOM      5  H   UNL     1      -8.194  52.072  49.542  0.00  0.00    +0.000 HD
ATOM      6  H   UNL     1      -8.957  54.108  50.394  0.00  0.00    +0.000 HD
ENDROOT
BRANCH   4   7
ATOM      7  C   UNL     1     -10.936  54.751  50.384  0.00  0.00    +0.000 A 
ATOM      8  S   UNL     1     -11.582  54.868  51.966  0.00  0.00    +0.000 S 
ATOM      9  C   UNL     1     -11.583  55.592  49.498  0.00  0.00    +0.000 A 
ATOM     10  C   UNL     1     -12.588  56.200  51.535  0.00  0.00    +0.000 A 
ATOM     11  C   UNL     1     -12.463  56.503  50.190  0.00  0.00    +0.000 A 
ATOM     12  C   UNL     1     -13.506  56.940  52.502  0.00  0.00    +0.000 C 
ATOM     13  C   UNL     1     -13.268  57.596  49.549  0.00  0.00    +0.000 C 
ATOM     14  C   UNL     1     -14.593  57.775  51.728  0.00  0.00    +0.000 C 
ATOM     15  C   UNL     1     -13.914  58.529  50.563  0.00  0.00    +0.000 C 
ATOM     16  C   UNL     1     -15.264  58.850  52.609  0.00  0.00    +0.000 C 
ATOM     17  C   UNL     1     -15.711  56.844  51.210  0.00  0.00    +0.000 C 
BRANCH   9  18
ATOM     18  C   UNL     1     -11.407  55.512  48.049  0.00  0.00    +0.000 C 
ATOM     19  O   UNL     1     -12.294  55.173  47.277  0.00  0.00    +0.000 OA
BRANCH  18  20
ATOM     20  O   UNL     1     -10.149  55.862  47.680  0.00  0.00    +0.000 OA
BRANCH  20  21
ATOM     21  C   UNL     1      -9.497  55.015  46.738  0.00  0.00    +0.000 C 
ATOM     22  C   UNL     1      -8.048  54.834  47.132  0.00  0.00    +0.000 C 
ENDBRANCH  20  21
ENDBRANCH  18  20
ENDBRANCH   9  18
ENDBRANCH   4   7
BRANCH   1  23
ATOM     23  S   UNL     1      -9.347  50.216  48.677  0.00  0.00    +0.000 S 
ATOM     24  O   UNL     1     -10.567  49.654  49.233  0.00  0.00    +0.000 OA
ATOM     25  O   UNL     1      -8.102  49.496  48.812  0.00  0.00    +0.000 OA
BRANCH  23  26
ATOM     26  C   UNL     1      -9.625  50.495  46.930  0.00  0.00    +0.000 A 
ATOM     27  C   UNL     1     -10.773  50.037  46.272  0.00  0.00    +0.000 A 
ATOM     28  C   UNL     1      -8.713  51.302  46.237  0.00  0.00    +0.000 A 
ATOM     29  C   UNL     1     -10.949  50.323  44.907  0.00  0.00    +0.000 A 
ATOM     30  C   UNL     1      -8.891  51.579  44.879  0.00  0.00    +0.000 A 
ATOM     31  C   UNL     1     -10.006  51.083  44.197  0.00  0.00    +0.000 A 
ATOM     32  C   UNL     1     -10.171  51.356  42.729  0.00  0.00    +0.000 C 
ENDBRANCH  23  26
ENDBRANCH   1  23
TORSDOF 6
ENDMDL
MODEL 6
REMARK VINA RESULT:      -7.0      3.125      8.758
REMARK  Name = 
REMARK  10 active torsions:
REMARK  status: ('A' for Active; 'I' for Inactive)
REMARK    1  A    between atoms: S_1  and  N_4
REMARK    2  A    between atoms: S_1  and  C_5
REMARK    3  A    between atoms: N_10  and  C_13
REMARK    4  A    between atoms: C_14  and  C_17
REMARK    5  A    between atoms: C_16  and  C_20
REMARK    6  A    between atoms: C_20  and  O_24
REMARK    7  A    between atoms: O_24  and  C_27
REMARK    8  A    between atoms: C_25  and  C_28
REMARK    9  A    between atoms: C_25  and  C_29
REMARK   10  A    between atoms: C_27  and  C_30
REMARK                            x       y       z     vdW  Elec       q    Type
REMARK                         _______ _______ _______ _____ _____    ______ ____
ROOT
ATOM      1  N   UNL     1     -11.446  56.979  49.188  0.00  0.00    +0.000 N 
ATOM      2  C   UNL     1     -10.459  55.998  49.276  0.00  0.00    +0.000 C 
ATOM      3  O   UNL     1     -10.751  54.808  49.388  0.00  0.00    +0.000 OA
ATOM      4  N   UNL     1      -9.136  56.431  49.321  0.00  0.00    +0.000 N 
ATOM      5  H   UNL     1     -11.180  57.926  49.144  0.00  0.00    +0.000 HD
ATOM      6  H   UNL     1      -8.911  57.384  49.224  0.00  0.00    +0.000 HD
ENDROOT
BRANCH   4   7
ATOM      7  C   UNL     1      -8.139  55.473  49.510  0.00  0.00    +0.000 A 
ATOM      8  S   UNL     1      -7.622  54.580  48.143  0.00  0.00    +0.000 S 
ATOM      9  C   UNL     1      -7.468  55.094  50.658  0.00  0.00    +0.000 A 
ATOM     10  C   UNL     1      -6.344  53.831  49.025  0.00  0.00    +0.000 A 
ATOM     11  C   UNL     1      -6.359  54.223  50.352  0.00  0.00    +0.000 A 
ATOM     12  C   UNL     1      -5.336  52.854  48.428  0.00  0.00    +0.000 C 
ATOM     13  C   UNL     1      -5.377  53.678  51.347  0.00  0.00    +0.000 C 
ATOM     14  C   UNL     1      -4.612  52.025  49.553  0.00  0.00    +0.000 C 
ATOM     15  C   UNL     1      -4.193  52.982  50.692  0.00  0.00    +0.000 C 
ATOM     16  C   UNL     1      -3.318  51.344  49.059  0.00  0.00    +0.000 C 
ATOM     17  C   UNL     1      -5.544  50.911  50.078  0.00  0.00    +0.000 C 
BRANCH   9  18
ATOM     18  C   UNL     1      -7.883  55.509  51.997  0.00  0.00    +0.000 C 
ATOM     19  O   UNL     1      -7.173  56.153  52.756  0.00  0.00    +0.000 OA
BRANCH  18  20
ATOM     20  O   UNL     1      -9.144  55.094  52.279  0.00  0.00    +0.000 OA
BRANCH  20  21
ATOM     21  C   UNL     1      -9.384  54.624  53.602  0.00  0.00    +0.000 C 
ATOM     22  C   UNL     1     -10.098  53.291  53.549  0.00  0.00    +0.000 C 
ENDBRANCH  20  21
ENDBRANCH  18  20
ENDBRANCH   9  18
ENDBRANCH   4   7
BRANCH   1  23
ATOM     23  S   UNL     1     -13.104  56.578  49.157  0.00  0.00    +0.000 S 
ATOM     24  O   UNL     1     -13.240  55.165  49.472  0.00  0.00    +0.000 OA
ATOM     25  O   UNL     1     -13.644  57.089  47.919  0.00  0.00    +0.000 OA
BRANCH  23  26
ATOM     26  C   UNL     1     -13.848  57.506  50.496  0.00  0.00    +0.000 A 
ATOM     27  C   UNL     1     -14.518  58.717  50.286  0.00  0.00    +0.000 A 
ATOM     28  C   UNL     1     -13.855  56.931  51.774  0.00  0.00    +0.000 A 
ATOM     29  C   UNL     1     -15.114  59.377  51.375  0.00  0.00    +0.000 A 
ATOM     30  C   UNL     1     -14.445  57.593  52.854  0.00  0.00    +0.000 A 
ATOM     31  C   UNL     1     -15.071  58.829  52.667  0.00  0.00    +0.000 A 
ATOM     32  C   UNL     1     -15.671  59.551  53.840  0.00  0.00    +0.000 C 
ENDBRANCH  23  26
ENDBRANCH   1  23
TORSDOF 6
ENDMDL
MODEL 7
REMARK VINA RESULT:      -6.9      3.555      6.939
REMARK  Name = 
REMARK  10 active torsions:
REMARK  status: ('A' for Active; 'I' for Inactive)
REMARK    1  A    between atoms: S_1  and  N_4
REMARK    2  A    between atoms: S_1  and  C_5
REMARK    3  A    between atoms: N_10  and  C_13
REMARK    4  A    between atoms: C_14  and  C_17
REMARK    5  A    between atoms: C_16  and  C_20
REMARK    6  A    between atoms: C_20  and  O_24
REMARK    7  A    between atoms: O_24  and  C_27
REMARK    8  A    between atoms: C_25  and  C_28
REMARK    9  A    between atoms: C_25  and  C_29
REMARK   10  A    between atoms: C_27  and  C_30
REMARK                            x       y       z     vdW  Elec       q    Type
REMARK                         _______ _______ _______ _____ _____    ______ ____
ROOT
ATOM      1  N   UNL     1      -8.942  54.506  52.528  0.00  0.00    +0.000 N 
ATOM      2  C   UNL     1      -8.949  54.258  51.157  0.00  0.00    +0.000 C 
ATOM      3  O   UNL     1      -8.022  54.629  50.437  0.00  0.00    +0.000 OA
ATOM      4  N   UNL     1     -10.087  53.655  50.626  0.00  0.00    +0.000 N 
ATOM      5  H   UNL     1      -9.718  54.236  53.071  0.00  0.00    +0.000 HD
ATOM      6  H   UNL     1     -10.820  53.355  51.210  0.00  0.00    +0.000 HD
ENDROOT
BRANCH   4   7
ATOM      7  C   UNL     1     -10.157  53.489  49.243  0.00  0.00    +0.000 A 
ATOM      8  S   UNL     1      -9.401  52.109  48.566  0.00  0.00    +0.000 S 
ATOM      9  C   UNL     1     -10.749  54.280  48.276  0.00  0.00    +0.000 A 
ATOM     10  C   UNL     1     -10.042  52.436  46.999  0.00  0.00    +0.000 A 
ATOM     11  C   UNL     1     -10.772  53.612  46.996  0.00  0.00    +0.000 A 
ATOM     12  C   UNL     1      -9.824  51.556  45.773  0.00  0.00    +0.000 C 
ATOM     13  C   UNL     1     -11.399  54.149  45.743  0.00  0.00    +0.000 C 
ATOM     14  C   UNL     1     -10.140  52.342  44.446  0.00  0.00    +0.000 C 
ATOM     15  C   UNL     1     -11.464  53.119  44.624  0.00  0.00    +0.000 C 
ATOM     16  C   UNL     1     -10.343  51.411  43.232  0.00  0.00    +0.000 C 
ATOM     17  C   UNL     1      -8.977  53.297  44.101  0.00  0.00    +0.000 C 
BRANCH   9  18
ATOM     18  C   UNL     1     -11.240  55.631  48.542  0.00  0.00    +0.000 C 
ATOM     19  O   UNL     1     -10.529  56.542  48.944  0.00  0.00    +0.000 OA
BRANCH  18  20
ATOM     20  O   UNL     1     -12.568  55.739  48.285  0.00  0.00    +0.000 OA
BRANCH  20  21
ATOM     21  C   UNL     1     -13.172  57.001  48.548  0.00  0.00    +0.000 C 
ATOM     22  C   UNL     1     -13.993  57.433  47.354  0.00  0.00    +0.000 C 
ENDBRANCH  20  21
ENDBRANCH  18  20
ENDBRANCH   9  18
ENDBRANCH   4   7
BRANCH   1  23
ATOM     23  S   UNL     1      -7.619  55.269  53.292  0.00  0.00    +0.000 S 
ATOM     24  O   UNL     1      -7.990  55.560  54.667  0.00  0.00    +0.000 OA
ATOM     25  O   UNL     1      -7.186  56.341  52.426  0.00  0.00    +0.000 OA
BRANCH  23  26
ATOM     26  C   UNL     1      -6.315  54.042  53.329  0.00  0.00    +0.000 A 
ATOM     27  C   UNL     1      -4.962  54.384  53.216  0.00  0.00    +0.000 A 
ATOM     28  C   UNL     1      -6.666  52.713  53.600  0.00  0.00    +0.000 A 
ATOM     29  C   UNL     1      -3.984  53.377  53.292  0.00  0.00    +0.000 A 
ATOM     30  C   UNL     1      -5.690  51.715  53.671  0.00  0.00    +0.000 A 
ATOM     31  C   UNL     1      -4.340  52.035  53.506  0.00  0.00    +0.000 A 
ATOM     32  C   UNL     1      -3.300  50.952  53.548  0.00  0.00    +0.000 C 
ENDBRANCH  23  26
ENDBRANCH   1  23
TORSDOF 6
ENDMDL
MODEL 8
REMARK VINA RESULT:      -6.8      2.957      7.852
REMARK  Name = 
REMARK  10 active torsions:
REMARK  status: ('A' for Active; 'I' for Inactive)
REMARK    1  A    between atoms: S_1  and  N_4
REMARK    2  A    between atoms: S_1  and  C_5
REMARK    3  A    between atoms: N_10  and  C_13
REMARK    4  A    between atoms: C_14  and  C_17
REMARK    5  A    between atoms: C_16  and  C_20
REMARK    6  A    between atoms: C_20  and  O_24
REMARK    7  A    between atoms: O_24  and  C_27
REMARK    8  A    between atoms: C_25  and  C_28
REMARK    9  A    between atoms: C_25  and  C_29
REMARK   10  A    between atoms: C_27  and  C_30
REMARK                            x       y       z     vdW  Elec       q    Type
REMARK                         _______ _______ _______ _____ _____    ______ ____
ROOT
ATOM      1  N   UNL     1     -12.928  55.425  49.084  0.00  0.00    +0.000 N 
ATOM      2  C   UNL     1     -11.883  55.173  49.972  0.00  0.00    +0.000 C 
ATOM      3  O   UNL     1     -11.334  56.087  50.587  0.00  0.00    +0.000 OA
ATOM      4  N   UNL     1     -11.428  53.860  50.062  0.00  0.00    +0.000 N 
ATOM      5  H   UNL     1     -13.316  54.678  48.573  0.00  0.00    +0.000 HD
ATOM      6  H   UNL     1     -11.876  53.134  49.571  0.00  0.00    +0.000 HD
ENDROOT
BRANCH   4   7
ATOM      7  C   UNL     1     -10.318  53.603  50.867  0.00  0.00    +0.000 A 
ATOM      8  S   UNL     1     -10.601  53.009  52.449  0.00  0.00    +0.000 S 
ATOM      9  C   UNL     1      -8.969  53.757  50.606  0.00  0.00    +0.000 A 
ATOM     10  C   UNL     1      -8.921  52.744  52.728  0.00  0.00    +0.000 A 
ATOM     11  C   UNL     1      -8.164  53.158  51.645  0.00  0.00    +0.000 A 
ATOM     12  C   UNL     1      -8.339  52.144  54.004  0.00  0.00    +0.000 C 
ATOM     13  C   UNL     1      -6.666  53.079  51.651  0.00  0.00    +0.000 C 
ATOM     14  C   UNL     1      -6.799  52.451  54.126  0.00  0.00    +0.000 C 
ATOM     15  C   UNL     1      -6.124  52.189  52.760  0.00  0.00    +0.000 C 
ATOM     16  C   UNL     1      -6.084  51.540  55.146  0.00  0.00    +0.000 C 
ATOM     17  C   UNL     1      -6.581  53.910  54.582  0.00  0.00    +0.000 C 
BRANCH   9  18
ATOM     18  C   UNL     1      -8.460  54.477  49.441  0.00  0.00    +0.000 C 
ATOM     19  O   UNL     1      -7.689  55.424  49.514  0.00  0.00    +0.000 OA
BRANCH  18  20
ATOM     20  O   UNL     1      -8.945  53.958  48.284  0.00  0.00    +0.000 OA
BRANCH  20  21
ATOM     21  C   UNL     1      -9.322  54.888  47.273  0.00  0.00    +0.000 C 
ATOM     22  C   UNL     1      -8.364  54.791  46.106  0.00  0.00    +0.000 C 
ENDBRANCH  20  21
ENDBRANCH  18  20
ENDBRANCH   9  18
ENDBRANCH   4   7
BRANCH   1  23
ATOM     23  S   UNL     1     -13.551  56.998  48.861  0.00  0.00    +0.000 S 
ATOM     24  O   UNL     1     -14.688  56.917  47.958  0.00  0.00    +0.000 OA
ATOM     25  O   UNL     1     -12.437  57.856  48.531  0.00  0.00    +0.000 OA
BRANCH  23  26
ATOM     26  C   UNL     1     -14.167  57.502  50.465  0.00  0.00    +0.000 A 
ATOM     27  C   UNL     1     -13.983  58.797  50.965  0.00  0.00    +0.000 A 
ATOM     28  C   UNL     1     -14.960  56.597  51.182  0.00  0.00    +0.000 A 
ATOM     29  C   UNL     1     -14.525  59.140  52.216  0.00  0.00    +0.000 A 
ATOM     30  C   UNL     1     -15.494  56.942  52.427  0.00  0.00    +0.000 A 
ATOM     31  C   UNL     1     -15.272  58.214  52.961  0.00  0.00    +0.000 A 
ATOM     32  C   UNL     1     -15.819  58.566  54.316  0.00  0.00    +0.000 C 
ENDBRANCH  23  26
ENDBRANCH   1  23
TORSDOF 6
ENDMDL
MODEL 9
REMARK VINA RESULT:      -6.7      3.765      7.637
REMARK  Name = 
REMARK  10 active torsions:
REMARK  status: ('A' for Active; 'I' for Inactive)
REMARK    1  A    between atoms: S_1  and  N_4
REMARK    2  A    between atoms: S_1  and  C_5
REMARK    3  A    between atoms: N_10  and  C_13
REMARK    4  A    between atoms: C_14  and  C_17
REMARK    5  A    between atoms: C_16  and  C_20
REMARK    6  A    between atoms: C_20  and  O_24
REMARK    7  A    between atoms: O_24  and  C_27
REMARK    8  A    between atoms: C_25  and  C_28
REMARK    9  A    between atoms: C_25  and  C_29
REMARK   10  A    between atoms: C_27  and  C_30
REMARK                            x       y       z     vdW  Elec       q    Type
REMARK                         _______ _______ _______ _____ _____    ______ ____
ROOT
ATOM      1  N   UNL     1      -7.977  55.260  51.779  0.00  0.00    +0.000 N 
ATOM      2  C   UNL     1      -8.169  54.474  50.644  0.00  0.00    +0.000 C 
ATOM      3  O   UNL     1      -7.491  53.467  50.442  0.00  0.00    +0.000 OA
ATOM      4  N   UNL     1      -9.095  54.928  49.708  0.00  0.00    +0.000 N 
ATOM      5  H   UNL     1      -8.504  56.084  51.890  0.00  0.00    +0.000 HD
ATOM      6  H   UNL     1      -9.638  55.731  49.880  0.00  0.00    +0.000 HD
ENDROOT
BRANCH   4   7
ATOM      7  C   UNL     1      -9.231  54.212  48.518  0.00  0.00    +0.000 A 
ATOM      8  S   UNL     1      -8.243  54.668  47.195  0.00  0.00    +0.000 S 
ATOM      9  C   UNL     1     -10.064  53.155  48.200  0.00  0.00    +0.000 A 
ATOM     10  C   UNL     1      -8.759  53.321  46.251  0.00  0.00    +0.000 A 
ATOM     11  C   UNL     1      -9.711  52.576  46.926  0.00  0.00    +0.000 A 
ATOM     12  C   UNL     1      -8.247  52.997  44.852  0.00  0.00    +0.000 C 
ATOM     13  C   UNL     1     -10.359  51.373  46.304  0.00  0.00    +0.000 C 
ATOM     14  C   UNL     1      -9.217  52.007  44.106  0.00  0.00    +0.000 C 
ATOM     15  C   UNL     1      -9.618  50.870  45.074  0.00  0.00    +0.000 C 
ATOM     16  C   UNL     1      -8.559  51.327  42.886  0.00  0.00    +0.000 C 
ATOM     17  C   UNL     1     -10.461  52.763  43.593  0.00  0.00    +0.000 C 
BRANCH   9  18
ATOM     18  C   UNL     1     -11.176  52.733  49.050  0.00  0.00    +0.000 C 
ATOM     19  O   UNL     1     -12.352  52.875  48.746  0.00  0.00    +0.000 OA
BRANCH  18  20
ATOM     20  O   UNL     1     -10.735  52.167  50.202  0.00  0.00    +0.000 OA
BRANCH  20  21
ATOM     21  C   UNL     1     -10.577  50.751  50.202  0.00  0.00    +0.000 C 
ATOM     22  C   UNL     1      -9.234  50.388  50.795  0.00  0.00    +0.000 C 
ENDBRANCH  20  21
ENDBRANCH  18  20
ENDBRANCH   9  18
ENDBRANCH   4   7
BRANCH   1  23
ATOM     23  S   UNL     1      -6.847  54.827  52.983  0.00  0.00    +0.000 S 
ATOM     24  O   UNL     1      -6.793  55.897  53.967  0.00  0.00    +0.000 OA
ATOM     25  O   UNL     1      -5.638  54.416  52.308  0.00  0.00    +0.000 OA
BRANCH  23  26
ATOM     26  C   UNL     1      -7.534  53.383  53.789  0.00  0.00    +0.000 A 
ATOM     27  C   UNL     1      -8.866  52.988  53.611  0.00  0.00    +0.000 A 
ATOM     28  C   UNL     1      -6.669  52.562  54.525  0.00  0.00    +0.000 A 
ATOM     29  C   UNL     1      -9.333  51.822  54.242  0.00  0.00    +0.000 A 
ATOM     30  C   UNL     1      -7.139  51.406  55.153  0.00  0.00    +0.000 A 
ATOM     31  C   UNL     1      -8.479  51.030  55.027  0.00  0.00    +0.000 A 
ATOM     32  C   UNL     1      -8.985  49.805  55.735  0.00  0.00    +0.000 C 
ENDBRANCH  23  26
ENDBRANCH   1  23
TORSDOF 6
ENDMDL
