MODEL 1
REMARK VINA RESULT:      -7.5      0.000      0.000
REMARK  Name = 
REMARK  9 active torsions:
REMARK  status: ('A' for Active; 'I' for Inactive)
REMARK    1  A    between atoms: S_1  and  N_4
REMARK    2  A    between atoms: S_1  and  C_5
REMARK    3  A    between atoms: N_10  and  C_13
REMARK    4  A    between atoms: C_14  and  C_17
REMARK    5  A    between atoms: C_16  and  C_20
REMARK    6  A    between atoms: C_20  and  O_24
REMARK    7  A    between atoms: O_24  and  C_27
REMARK    8  A    between atoms: C_25  and  C_28
REMARK    9  A    between atoms: C_27  and  C_29
REMARK                            x       y       z     vdW  Elec       q    Type
REMARK                         _______ _______ _______ _____ _____    ______ ____
ROOT
ATOM      1  N   UNL     1     -11.134  54.392  45.712  0.00  0.00    +0.000 N 
ATOM      2  C   UNL     1     -11.745  54.635  46.936  0.00  0.00    +0.000 C 
ATOM      3  O   UNL     1     -12.227  53.738  47.611  0.00  0.00    +0.000 OA
ATOM      4  N   UNL     1     -11.843  55.976  47.244  0.00  0.00    +0.000 N 
ATOM      5  H   UNL     1     -10.756  55.158  45.222  0.00  0.00    +0.000 HD
ATOM      6  H   UNL     1     -11.467  56.661  46.645  0.00  0.00    +0.000 HD
ENDROOT
BRANCH   4   7
ATOM      7  C   UNL     1     -12.486  56.332  48.415  0.00  0.00    +0.000 A 
ATOM      8  S   UNL     1     -14.093  56.840  48.210  0.00  0.00    +0.000 S 
ATOM      9  C   UNL     1     -12.083  56.293  49.740  0.00  0.00    +0.000 A 
ATOM     10  C   UNL     1     -14.368  56.795  49.891  0.00  0.00    +0.000 A 
ATOM     11  C   UNL     1     -13.207  56.568  50.610  0.00  0.00    +0.000 A 
ATOM     12  C   UNL     1     -15.722  57.043  50.475  0.00  0.00    +0.000 C 
ATOM     13  C   UNL     1     -13.193  56.590  52.115  0.00  0.00    +0.000 C 
ATOM     14  C   UNL     1     -15.726  56.864  52.002  0.00  0.00    +0.000 C 
ATOM     15  C   UNL     1     -14.427  57.304  52.709  0.00  0.00    +0.000 C 
ATOM     16  C   UNL     1     -14.252  58.828  52.711  0.00  0.00    +0.000 C 
BRANCH   9  17
ATOM     17  C   UNL     1     -10.709  55.999  50.142  0.00  0.00    +0.000 C 
ATOM     18  O   UNL     1     -10.427  55.228  51.057  0.00  0.00    +0.000 OA
BRANCH  17  19
ATOM     19  O   UNL     1      -9.799  56.694  49.407  0.00  0.00    +0.000 OA
BRANCH  19  20
ATOM     20  C   UNL     1      -8.477  56.145  49.347  0.00  0.00    +0.000 C 
ATOM     21  C   UNL     1      -8.320  55.314  48.090  0.00  0.00    +0.000 C 
ENDBRANCH  19  20
ENDBRANCH  17  19
ENDBRANCH   9  17
ENDBRANCH   4   7
BRANCH   1  22
ATOM     22  S   UNL     1     -11.000  52.879  45.023  0.00  0.00    +0.000 S 
ATOM     23  O   UNL     1     -10.586  52.977  43.643  0.00  0.00    +0.000 OA
ATOM     24  O   UNL     1     -12.231  52.199  45.377  0.00  0.00    +0.000 OA
BRANCH  22  25
ATOM     25  C   UNL     1      -9.690  52.121  45.963  0.00  0.00    +0.000 A 
ATOM     26  C   UNL     1      -8.357  52.450  45.697  0.00  0.00    +0.000 A 
ATOM     27  C   UNL     1     -10.004  51.250  47.009  0.00  0.00    +0.000 A 
ATOM     28  C   UNL     1      -7.335  51.872  46.460  0.00  0.00    +0.000 A 
ATOM     29  C   UNL     1      -8.979  50.671  47.764  0.00  0.00    +0.000 A 
ATOM     30  C   UNL     1      -7.638  50.974  47.492  0.00  0.00    +0.000 A 
ATOM     31  C   UNL     1      -6.552  50.337  48.311  0.00  0.00    +0.000 C 
ENDBRANCH  22  25
ENDBRANCH   1  22
TORSDOF 6
ENDMDL
MODEL 2
REMARK VINA RESULT:      -7.1      3.530      7.677
REMARK  Name = 
REMARK  9 active torsions:
REMARK  status: ('A' for Active; 'I' for Inactive)
REMARK    1  A    between atoms: S_1  and  N_4
REMARK    2  A    between atoms: S_1  and  C_5
REMARK    3  A    between atoms: N_10  and  C_13
REMARK    4  A    between atoms: C_14  and  C_17
REMARK    5  A    between atoms: C_16  and  C_20
REMARK    6  A    between atoms: C_20  and  O_24
REMARK    7  A    between atoms: O_24  and  C_27
REMARK    8  A    between atoms: C_25  and  C_28
REMARK    9  A    between atoms: C_27  and  C_29
REMARK                            x       y       z     vdW  Elec       q    Type
REMARK                         _______ _______ _______ _____ _____    ______ ____
ROOT
ATOM      1  N   UNL     1     -11.135  56.457  49.119  0.00  0.00    +0.000 N 
ATOM      2  C   UNL     1     -10.262  55.798  49.975  0.00  0.00    +0.000 C 
ATOM      3  O   UNL     1     -10.621  54.864  50.676  0.00  0.00    +0.000 OA
ATOM      4  N   UNL     1      -9.008  56.370  50.027  0.00  0.00    +0.000 N 
ATOM      5  H   UNL     1     -10.780  57.197  48.574  0.00  0.00    +0.000 HD
ATOM      6  H   UNL     1      -8.782  57.146  49.465  0.00  0.00    +0.000 HD
ENDROOT
BRANCH   4   7
ATOM      7  C   UNL     1      -8.076  55.825  50.892  0.00  0.00    +0.000 A 
ATOM      8  S   UNL     1      -8.430  56.046  52.538  0.00  0.00    +0.000 S 
ATOM      9  C   UNL     1      -6.935  55.074  50.668  0.00  0.00    +0.000 A 
ATOM     10  C   UNL     1      -7.206  54.951  52.993  0.00  0.00    +0.000 A 
ATOM     11  C   UNL     1      -6.425  54.558  51.921  0.00  0.00    +0.000 A 
ATOM     12  C   UNL     1      -7.003  54.544  54.417  0.00  0.00    +0.000 C 
ATOM     13  C   UNL     1      -5.220  53.674  52.104  0.00  0.00    +0.000 C 
ATOM     14  C   UNL     1      -5.895  53.487  54.556  0.00  0.00    +0.000 C 
ATOM     15  C   UNL     1      -4.722  53.645  53.566  0.00  0.00    +0.000 C 
ATOM     16  C   UNL     1      -3.847  54.862  53.889  0.00  0.00    +0.000 C 
BRANCH   9  17
ATOM     17  C   UNL     1      -6.378  54.858  49.333  0.00  0.00    +0.000 C 
ATOM     18  O   UNL     1      -5.235  55.184  49.022  0.00  0.00    +0.000 OA
BRANCH  17  19
ATOM     19  O   UNL     1      -7.278  54.287  48.488  0.00  0.00    +0.000 OA
BRANCH  19  20
ATOM     20  C   UNL     1      -7.019  54.437  47.087  0.00  0.00    +0.000 C 
ATOM     21  C   UNL     1      -8.257  54.957  46.386  0.00  0.00    +0.000 C 
ENDBRANCH  19  20
ENDBRANCH  17  19
ENDBRANCH   9  17
ENDBRANCH   4   7
BRANCH   1  22
ATOM     22  S   UNL     1     -12.749  56.071  48.959  0.00  0.00    +0.000 S 
ATOM     23  O   UNL     1     -12.973  54.669  49.228  0.00  0.00    +0.000 OA
ATOM     24  O   UNL     1     -13.148  56.650  47.690  0.00  0.00    +0.000 OA
BRANCH  22  25
ATOM     25  C   UNL     1     -13.526  57.032  50.243  0.00  0.00    +0.000 A 
ATOM     26  C   UNL     1     -14.063  58.289  49.949  0.00  0.00    +0.000 A 
ATOM     27  C   UNL     1     -13.654  56.495  51.527  0.00  0.00    +0.000 A 
ATOM     28  C   UNL     1     -14.698  59.024  50.957  0.00  0.00    +0.000 A 
ATOM     29  C   UNL     1     -14.283  57.237  52.531  0.00  0.00    +0.000 A 
ATOM     30  C   UNL     1     -14.806  58.508  52.255  0.00  0.00    +0.000 A 
ATOM     31  C   UNL     1     -15.473  59.290  53.349  0.00  0.00    +0.000 C 
ENDBRANCH  22  25
ENDBRANCH   1  22
TORSDOF 6
ENDMDL
MODEL 3
REMARK VINA RESULT:      -7.0      2.846      8.127
REMARK  Name = 
REMARK  9 active torsions:
REMARK  status: ('A' for Active; 'I' for Inactive)
REMARK    1  A    between atoms: S_1  and  N_4
REMARK    2  A    between atoms: S_1  and  C_5
REMARK    3  A    between atoms: N_10  and  C_13
REMARK    4  A    between atoms: C_14  and  C_17
REMARK    5  A    between atoms: C_16  and  C_20
REMARK    6  A    between atoms: C_20  and  O_24
REMARK    7  A    between atoms: O_24  and  C_27
REMARK    8  A    between atoms: C_25  and  C_28
REMARK    9  A    between atoms: C_27  and  C_29
REMARK                            x       y       z     vdW  Elec       q    Type
REMARK                         _______ _______ _______ _____ _____    ______ ____
ROOT
ATOM      1  N   UNL     1     -11.691  56.756  49.239  0.00  0.00    +0.000 N 
ATOM      2  C   UNL     1     -10.680  55.811  49.124  0.00  0.00    +0.000 C 
ATOM      3  O   UNL     1     -10.916  54.620  48.982  0.00  0.00    +0.000 OA
ATOM      4  N   UNL     1      -9.415  56.335  49.293  0.00  0.00    +0.000 N 
ATOM      5  H   UNL     1     -11.433  57.701  49.342  0.00  0.00    +0.000 HD
ATOM      6  H   UNL     1      -9.284  57.300  49.440  0.00  0.00    +0.000 HD
ENDROOT
BRANCH   4   7
ATOM      7  C   UNL     1      -8.337  55.470  49.254  0.00  0.00    +0.000 A 
ATOM      8  S   UNL     1      -7.929  54.925  47.698  0.00  0.00    +0.000 S 
ATOM      9  C   UNL     1      -7.482  55.012  50.242  0.00  0.00    +0.000 A 
ATOM     10  C   UNL     1      -6.469  54.257  48.268  0.00  0.00    +0.000 A 
ATOM     11  C   UNL     1      -6.375  54.293  49.648  0.00  0.00    +0.000 A 
ATOM     12  C   UNL     1      -5.462  53.654  47.340  0.00  0.00    +0.000 C 
ATOM     13  C   UNL     1      -5.218  53.665  50.378  0.00  0.00    +0.000 C 
ATOM     14  C   UNL     1      -4.199  53.198  48.087  0.00  0.00    +0.000 C 
ATOM     15  C   UNL     1      -4.449  52.647  49.507  0.00  0.00    +0.000 C 
ATOM     16  C   UNL     1      -5.145  51.281  49.487  0.00  0.00    +0.000 C 
BRANCH   9  17
ATOM     17  C   UNL     1      -7.712  55.259  51.665  0.00  0.00    +0.000 C 
ATOM     18  O   UNL     1      -7.207  56.201  52.272  0.00  0.00    +0.000 OA
BRANCH  17  19
ATOM     19  O   UNL     1      -8.516  54.317  52.227  0.00  0.00    +0.000 OA
BRANCH  19  20
ATOM     20  C   UNL     1      -9.434  54.778  53.225  0.00  0.00    +0.000 C 
ATOM     21  C   UNL     1     -10.794  55.021  52.603  0.00  0.00    +0.000 C 
ENDBRANCH  19  20
ENDBRANCH  17  19
ENDBRANCH   9  17
ENDBRANCH   4   7
BRANCH   1  22
ATOM     22  S   UNL     1     -13.316  56.386  49.214  0.00  0.00    +0.000 S 
ATOM     23  O   UNL     1     -13.532  54.989  49.511  0.00  0.00    +0.000 OA
ATOM     24  O   UNL     1     -13.810  56.960  47.977  0.00  0.00    +0.000 OA
BRANCH  22  25
ATOM     25  C   UNL     1     -13.976  57.365  50.549  0.00  0.00    +0.000 A 
ATOM     26  C   UNL     1     -14.503  58.635  50.292  0.00  0.00    +0.000 A 
ATOM     27  C   UNL     1     -14.025  56.832  51.839  0.00  0.00    +0.000 A 
ATOM     28  C   UNL     1     -15.047  59.384  51.342  0.00  0.00    +0.000 A 
ATOM     29  C   UNL     1     -14.562  57.588  52.885  0.00  0.00    +0.000 A 
ATOM     30  C   UNL     1     -15.073  58.871  52.645  0.00  0.00    +0.000 A 
ATOM     31  C   UNL     1     -15.641  59.669  53.783  0.00  0.00    +0.000 C 
ENDBRANCH  22  25
ENDBRANCH   1  22
TORSDOF 6
ENDMDL
MODEL 4
REMARK VINA RESULT:      -6.8      3.691      7.631
REMARK  Name = 
REMARK  9 active torsions:
REMARK  status: ('A' for Active; 'I' for Inactive)
REMARK    1  A    between atoms: S_1  and  N_4
REMARK    2  A    between atoms: S_1  and  C_5
REMARK    3  A    between atoms: N_10  and  C_13
REMARK    4  A    between atoms: C_14  and  C_17
REMARK    5  A    between atoms: C_16  and  C_20
REMARK    6  A    between atoms: C_20  and  O_24
REMARK    7  A    between atoms: O_24  and  C_27
REMARK    8  A    between atoms: C_25  and  C_28
REMARK    9  A    between atoms: C_27  and  C_29
REMARK                            x       y       z     vdW  Elec       q    Type
REMARK                         _______ _______ _______ _____ _____    ______ ____
ROOT
ATOM      1  N   UNL     1     -14.458  55.056  51.190  0.00  0.00    +0.000 N 
ATOM      2  C   UNL     1     -13.156  55.166  51.662  0.00  0.00    +0.000 C 
ATOM      3  O   UNL     1     -12.760  56.160  52.252  0.00  0.00    +0.000 OA
ATOM      4  N   UNL     1     -12.350  54.106  51.303  0.00  0.00    +0.000 N 
ATOM      5  H   UNL     1     -14.716  54.224  50.731  0.00  0.00    +0.000 HD
ATOM      6  H   UNL     1     -12.714  53.344  50.796  0.00  0.00    +0.000 HD
ENDROOT
BRANCH   4   7
ATOM      7  C   UNL     1     -11.019  54.141  51.674  0.00  0.00    +0.000 A 
ATOM      8  S   UNL     1     -10.669  53.320  53.119  0.00  0.00    +0.000 S 
ATOM      9  C   UNL     1      -9.899  54.668  51.052  0.00  0.00    +0.000 A 
ATOM     10  C   UNL     1      -8.993  53.444  52.834  0.00  0.00    +0.000 A 
ATOM     11  C   UNL     1      -8.700  54.249  51.747  0.00  0.00    +0.000 A 
ATOM     12  C   UNL     1      -7.991  52.786  53.728  0.00  0.00    +0.000 C 
ATOM     13  C   UNL     1      -7.282  54.583  51.371  0.00  0.00    +0.000 C 
ATOM     14  C   UNL     1      -6.555  52.975  53.212  0.00  0.00    +0.000 C 
ATOM     15  C   UNL     1      -6.287  54.330  52.525  0.00  0.00    +0.000 C 
ATOM     16  C   UNL     1      -6.270  55.495  53.523  0.00  0.00    +0.000 C 
BRANCH   9  17
ATOM     17  C   UNL     1      -9.979  55.512  49.861  0.00  0.00    +0.000 C 
ATOM     18  O   UNL     1      -9.531  56.656  49.817  0.00  0.00    +0.000 OA
BRANCH  17  19
ATOM     19  O   UNL     1     -10.623  54.892  48.835  0.00  0.00    +0.000 OA
BRANCH  19  20
ATOM     20  C   UNL     1     -11.604  55.670  48.138  0.00  0.00    +0.000 C 
ATOM     21  C   UNL     1     -11.369  55.578  46.644  0.00  0.00    +0.000 C 
ENDBRANCH  19  20
ENDBRANCH  17  19
ENDBRANCH   9  17
ENDBRANCH   4   7
BRANCH   1  22
ATOM     22  S   UNL     1     -15.611  56.249  51.356  0.00  0.00    +0.000 S 
ATOM     23  O   UNL     1     -15.941  56.457  52.747  0.00  0.00    +0.000 OA
ATOM     24  O   UNL     1     -16.644  55.906  50.398  0.00  0.00    +0.000 OA
BRANCH  22  25
ATOM     25  C   UNL     1     -14.782  57.702  50.740  0.00  0.00    +0.000 A 
ATOM     26  C   UNL     1     -14.298  57.728  49.428  0.00  0.00    +0.000 A 
ATOM     27  C   UNL     1     -14.679  58.835  51.550  0.00  0.00    +0.000 A 
ATOM     28  C   UNL     1     -13.676  58.883  48.942  0.00  0.00    +0.000 A 
ATOM     29  C   UNL     1     -14.050  59.984  51.062  0.00  0.00    +0.000 A 
ATOM     30  C   UNL     1     -13.540  60.016  49.756  0.00  0.00    +0.000 A 
ATOM     31  C   UNL     1     -12.864  61.258  49.253  0.00  0.00    +0.000 C 
ENDBRANCH  22  25
ENDBRANCH   1  22
TORSDOF 6
ENDMDL
MODEL 5
REMARK VINA RESULT:      -6.7      2.536      3.661
REMARK  Name = 
REMARK  9 active torsions:
REMARK  status: ('A' for Active; 'I' for Inactive)
REMARK    1  A    between atoms: S_1  and  N_4
REMARK    2  A    between atoms: S_1  and  C_5
REMARK    3  A    between atoms: N_10  and  C_13
REMARK    4  A    between atoms: C_14  and  C_17
REMARK    5  A    between atoms: C_16  and  C_20
REMARK    6  A    between atoms: C_20  and  O_24
REMARK    7  A    between atoms: O_24  and  C_27
REMARK    8  A    between atoms: C_25  and  C_28
REMARK    9  A    between atoms: C_27  and  C_29
REMARK                            x       y       z     vdW  Elec       q    Type
REMARK                         _______ _______ _______ _____ _____    ______ ____
ROOT
ATOM      1  N   UNL     1      -9.197  52.459  48.895  0.00  0.00    +0.000 N 
ATOM      2  C   UNL     1     -10.384  53.037  49.326  0.00  0.00    +0.000 C 
ATOM      3  O   UNL     1     -11.425  52.402  49.407  0.00  0.00    +0.000 OA
ATOM      4  N   UNL     1     -10.286  54.396  49.541  0.00  0.00    +0.000 N 
ATOM      5  H   UNL     1      -8.391  53.024  48.861  0.00  0.00    +0.000 HD
ATOM      6  H   UNL     1      -9.428  54.866  49.427  0.00  0.00    +0.000 HD
ENDROOT
BRANCH   4   7
ATOM      7  C   UNL     1     -11.426  55.082  49.920  0.00  0.00    +0.000 A 
ATOM      8  S   UNL     1     -11.680  55.152  51.598  0.00  0.00    +0.000 S 
ATOM      9  C   UNL     1     -12.370  55.782  49.188  0.00  0.00    +0.000 A 
ATOM     10  C   UNL     1     -12.918  56.308  51.405  0.00  0.00    +0.000 A 
ATOM     11  C   UNL     1     -13.251  56.508  50.077  0.00  0.00    +0.000 A 
ATOM     12  C   UNL     1     -13.578  56.958  52.579  0.00  0.00    +0.000 C 
ATOM     13  C   UNL     1     -14.388  57.409  49.676  0.00  0.00    +0.000 C 
ATOM     14  C   UNL     1     -14.598  58.021  52.143  0.00  0.00    +0.000 C 
ATOM     15  C   UNL     1     -15.361  57.693  50.842  0.00  0.00    +0.000 C 
ATOM     16  C   UNL     1     -16.366  56.550  51.030  0.00  0.00    +0.000 C 
BRANCH   9  17
ATOM     17  C   UNL     1     -12.413  55.762  47.726  0.00  0.00    +0.000 C 
ATOM     18  O   UNL     1     -12.730  56.739  47.050  0.00  0.00    +0.000 OA
BRANCH  17  19
ATOM     19  O   UNL     1     -12.093  54.541  47.220  0.00  0.00    +0.000 OA
BRANCH  19  20
ATOM     20  C   UNL     1     -11.579  54.521  45.883  0.00  0.00    +0.000 C 
ATOM     21  C   UNL     1     -10.065  54.459  45.912  0.00  0.00    +0.000 C 
ENDBRANCH  19  20
ENDBRANCH  17  19
ENDBRANCH   9  17
ENDBRANCH   4   7
BRANCH   1  22
ATOM     22  S   UNL     1      -9.055  50.864  48.430  0.00  0.00    +0.000 S 
ATOM     23  O   UNL     1     -10.098  50.059  49.024  0.00  0.00    +0.000 OA
ATOM     24  O   UNL     1      -7.659  50.535  48.645  0.00  0.00    +0.000 OA
BRANCH  22  25
ATOM     25  C   UNL     1      -9.315  50.930  46.668  0.00  0.00    +0.000 A 
ATOM     26  C   UNL     1     -10.607  50.810  46.146  0.00  0.00    +0.000 A 
ATOM     27  C   UNL     1      -8.233  51.171  45.818  0.00  0.00    +0.000 A 
ATOM     28  C   UNL     1     -10.806  50.894  44.763  0.00  0.00    +0.000 A 
ATOM     29  C   UNL     1      -8.437  51.247  44.437  0.00  0.00    +0.000 A 
ATOM     30  C   UNL     1      -9.723  51.105  43.899  0.00  0.00    +0.000 A 
ATOM     31  C   UNL     1      -9.920  51.184  42.413  0.00  0.00    +0.000 C 
ENDBRANCH  22  25
ENDBRANCH   1  22
TORSDOF 6
ENDMDL
MODEL 6
REMARK VINA RESULT:      -6.6      3.988      6.891
REMARK  Name = 
REMARK  9 active torsions:
REMARK  status: ('A' for Active; 'I' for Inactive)
REMARK    1  A    between atoms: S_1  and  N_4
REMARK    2  A    between atoms: S_1  and  C_5
REMARK    3  A    between atoms: N_10  and  C_13
REMARK    4  A    between atoms: C_14  and  C_17
REMARK    5  A    between atoms: C_16  and  C_20
REMARK    6  A    between atoms: C_20  and  O_24
REMARK    7  A    between atoms: O_24  and  C_27
REMARK    8  A    between atoms: C_25  and  C_28
REMARK    9  A    between atoms: C_27  and  C_29
REMARK                            x       y       z     vdW  Elec       q    Type
REMARK                         _______ _______ _______ _____ _____    ______ ____
ROOT
ATOM      1  N   UNL     1     -12.516  55.170  51.612  0.00  0.00    +0.000 N 
ATOM      2  C   UNL     1     -11.128  55.122  51.651  0.00  0.00    +0.000 C 
ATOM      3  O   UNL     1     -10.434  55.722  50.844  0.00  0.00    +0.000 OA
ATOM      4  N   UNL     1     -10.635  54.257  52.605  0.00  0.00    +0.000 N 
ATOM      5  H   UNL     1     -13.016  54.671  52.297  0.00  0.00    +0.000 HD
ATOM      6  H   UNL     1     -11.242  53.769  53.208  0.00  0.00    +0.000 HD
ENDROOT
BRANCH   4   7
ATOM      7  C   UNL     1      -9.265  54.090  52.692  0.00  0.00    +0.000 A 
ATOM      8  S   UNL     1      -8.493  55.150  53.771  0.00  0.00    +0.000 S 
ATOM      9  C   UNL     1      -8.406  53.173  52.109  0.00  0.00    +0.000 A 
ATOM     10  C   UNL     1      -7.040  54.266  53.668  0.00  0.00    +0.000 A 
ATOM     11  C   UNL     1      -7.087  53.284  52.695  0.00  0.00    +0.000 A 
ATOM     12  C   UNL     1      -5.854  54.599  54.516  0.00  0.00    +0.000 C 
ATOM     13  C   UNL     1      -5.882  52.448  52.358  0.00  0.00    +0.000 C 
ATOM     14  C   UNL     1      -4.700  53.607  54.298  0.00  0.00    +0.000 C 
ATOM     15  C   UNL     1      -4.563  53.081  52.854  0.00  0.00    +0.000 C 
ATOM     16  C   UNL     1      -4.055  54.158  51.888  0.00  0.00    +0.000 C 
BRANCH   9  17
ATOM     17  C   UNL     1      -8.831  52.243  51.064  0.00  0.00    +0.000 C 
ATOM     18  O   UNL     1      -9.781  51.473  51.195  0.00  0.00    +0.000 OA
BRANCH  17  19
ATOM     19  O   UNL     1      -8.041  52.316  49.959  0.00  0.00    +0.000 OA
BRANCH  19  20
ATOM     20  C   UNL     1      -8.692  52.673  48.733  0.00  0.00    +0.000 C 
ATOM     21  C   UNL     1      -8.533  54.157  48.478  0.00  0.00    +0.000 C 
ENDBRANCH  19  20
ENDBRANCH  17  19
ENDBRANCH   9  17
ENDBRANCH   4   7
BRANCH   1  22
ATOM     22  S   UNL     1     -13.384  56.025  50.474  0.00  0.00    +0.000 S 
ATOM     23  O   UNL     1     -13.073  57.434  50.539  0.00  0.00    +0.000 OA
ATOM     24  O   UNL     1     -14.751  55.565  50.625  0.00  0.00    +0.000 OA
BRANCH  22  25
ATOM     25  C   UNL     1     -12.778  55.375  48.929  0.00  0.00    +0.000 A 
ATOM     26  C   UNL     1     -12.442  56.245  47.887  0.00  0.00    +0.000 A 
ATOM     27  C   UNL     1     -12.576  53.999  48.789  0.00  0.00    +0.000 A 
ATOM     28  C   UNL     1     -11.937  55.728  46.689  0.00  0.00    +0.000 A 
ATOM     29  C   UNL     1     -12.079  53.488  47.587  0.00  0.00    +0.000 A 
ATOM     30  C   UNL     1     -11.759  54.348  46.527  0.00  0.00    +0.000 A 
ATOM     31  C   UNL     1     -11.231  53.778  45.242  0.00  0.00    +0.000 C 
ENDBRANCH  22  25
ENDBRANCH   1  22
TORSDOF 6
ENDMDL
MODEL 7
REMARK VINA RESULT:      -6.6      3.292      7.243
REMARK  Name = 
REMARK  9 active torsions:
REMARK  status: ('A' for Active; 'I' for Inactive)
REMARK    1  A    between atoms: S_1  and  N_4
REMARK    2  A    between atoms: S_1  and  C_5
REMARK    3  A    between atoms: N_10  and  C_13
REMARK    4  A    between atoms: C_14  and  C_17
REMARK    5  A    between atoms: C_16  and  C_20
REMARK    6  A    between atoms: C_20  and  O_24
REMARK    7  A    between atoms: O_24  and  C_27
REMARK    8  A    between atoms: C_25  and  C_28
REMARK    9  A    between atoms: C_27  and  C_29
REMARK                            x       y       z     vdW  Elec       q    Type
REMARK                         _______ _______ _______ _____ _____    ______ ____
ROOT
ATOM      1  N   UNL     1     -10.045  54.853  47.298  0.00  0.00    +0.000 N 
ATOM      2  C   UNL     1      -9.388  54.280  48.380  0.00  0.00    +0.000 C 
ATOM      3  O   UNL     1      -9.963  53.556  49.180  0.00  0.00    +0.000 OA
ATOM      4  N   UNL     1      -8.080  54.695  48.512  0.00  0.00    +0.000 N 
ATOM      5  H   UNL     1      -9.522  55.419  46.685  0.00  0.00    +0.000 HD
ATOM      6  H   UNL     1      -7.676  55.310  47.856  0.00  0.00    +0.000 HD
ENDROOT
BRANCH   4   7
ATOM      7  C   UNL     1      -7.350  54.229  49.590  0.00  0.00    +0.000 A 
ATOM      8  S   UNL     1      -6.473  52.807  49.283  0.00  0.00    +0.000 S 
ATOM      9  C   UNL     1      -7.148  54.740  50.861  0.00  0.00    +0.000 A 
ATOM     10  C   UNL     1      -5.621  52.965  50.751  0.00  0.00    +0.000 A 
ATOM     11  C   UNL     1      -6.119  53.984  51.543  0.00  0.00    +0.000 A 
ATOM     12  C   UNL     1      -4.508  52.037  51.120  0.00  0.00    +0.000 C 
ATOM     13  C   UNL     1      -5.588  54.239  52.928  0.00  0.00    +0.000 C 
ATOM     14  C   UNL     1      -3.848  52.438  52.448  0.00  0.00    +0.000 C 
ATOM     15  C   UNL     1      -4.811  53.031  53.497  0.00  0.00    +0.000 C 
ATOM     16  C   UNL     1      -5.757  51.975  54.082  0.00  0.00    +0.000 C 
BRANCH   9  17
ATOM     17  C   UNL     1      -7.890  55.888  51.380  0.00  0.00    +0.000 C 
ATOM     18  O   UNL     1      -7.867  56.997  50.850  0.00  0.00    +0.000 OA
BRANCH  17  19
ATOM     19  O   UNL     1      -8.572  55.587  52.517  0.00  0.00    +0.000 OA
BRANCH  19  20
ATOM     20  C   UNL     1      -9.574  54.569  52.407  0.00  0.00    +0.000 C 
ATOM     21  C   UNL     1     -10.951  55.200  52.383  0.00  0.00    +0.000 C 
ENDBRANCH  19  20
ENDBRANCH  17  19
ENDBRANCH   9  17
ENDBRANCH   4   7
BRANCH   1  22
ATOM     22  S   UNL     1     -11.666  54.638  46.975  0.00  0.00    +0.000 S 
ATOM     23  O   UNL     1     -12.161  53.433  47.599  0.00  0.00    +0.000 OA
ATOM     24  O   UNL     1     -11.790  54.830  45.543  0.00  0.00    +0.000 OA
BRANCH  22  25
ATOM     25  C   UNL     1     -12.426  56.045  47.762  0.00  0.00    +0.000 A 
ATOM     26  C   UNL     1     -13.365  56.813  47.067  0.00  0.00    +0.000 A 
ATOM     27  C   UNL     1     -12.129  56.335  49.096  0.00  0.00    +0.000 A 
ATOM     28  C   UNL     1     -13.980  57.898  47.702  0.00  0.00    +0.000 A 
ATOM     29  C   UNL     1     -12.740  57.425  49.724  0.00  0.00    +0.000 A 
ATOM     30  C   UNL     1     -13.667  58.216  49.031  0.00  0.00    +0.000 A 
ATOM     31  C   UNL     1     -14.308  59.385  49.722  0.00  0.00    +0.000 C 
ENDBRANCH  22  25
ENDBRANCH   1  22
TORSDOF 6
ENDMDL
MODEL 8
REMARK VINA RESULT:      -6.6      3.526      4.678
REMARK  Name = 
REMARK  9 active torsions:
REMARK  status: ('A' for Active; 'I' for Inactive)
REMARK    1  A    between atoms: S_1  and  N_4
REMARK    2  A    between atoms: S_1  and  C_5
REMARK    3  A    between atoms: N_10  and  C_13
REMARK    4  A    between atoms: C_14  and  C_17
REMARK    5  A    between atoms: C_16  and  C_20
REMARK    6  A    between atoms: C_20  and  O_24
REMARK    7  A    between atoms: O_24  and  C_27
REMARK    8  A    between atoms: C_25  and  C_28
REMARK    9  A    between atoms: C_27  and  C_29
REMARK                            x       y       z     vdW  Elec       q    Type
REMARK                         _______ _______ _______ _____ _____    ______ ____
ROOT
ATOM      1  N   UNL     1      -7.959  54.258  48.955  0.00  0.00    +0.000 N 
ATOM      2  C   UNL     1      -8.917  55.060  49.564  0.00  0.00    +0.000 C 
ATOM      3  O   UNL     1      -8.634  55.847  50.456  0.00  0.00    +0.000 OA
ATOM      4  N   UNL     1     -10.203  54.798  49.141  0.00  0.00    +0.000 N 
ATOM      5  H   UNL     1      -8.252  53.652  48.236  0.00  0.00    +0.000 HD
ATOM      6  H   UNL     1     -10.378  54.126  48.443  0.00  0.00    +0.000 HD
ENDROOT
BRANCH   4   7
ATOM      7  C   UNL     1     -11.240  55.501  49.725  0.00  0.00    +0.000 A 
ATOM      8  S   UNL     1     -11.713  56.893  48.875  0.00  0.00    +0.000 S 
ATOM      9  C   UNL     1     -12.013  55.249  50.846  0.00  0.00    +0.000 A 
ATOM     10  C   UNL     1     -13.105  57.065  49.844  0.00  0.00    +0.000 A 
ATOM     11  C   UNL     1     -13.119  56.181  50.909  0.00  0.00    +0.000 A 
ATOM     12  C   UNL     1     -14.134  58.113  49.565  0.00  0.00    +0.000 C 
ATOM     13  C   UNL     1     -14.201  56.223  51.954  0.00  0.00    +0.000 C 
ATOM     14  C   UNL     1     -15.329  58.008  50.526  0.00  0.00    +0.000 C 
ATOM     15  C   UNL     1     -14.971  57.561  51.959  0.00  0.00    +0.000 C 
ATOM     16  C   UNL     1     -14.215  58.646  52.735  0.00  0.00    +0.000 C 
BRANCH   9  17
ATOM     17  C   UNL     1     -11.713  54.173  51.790  0.00  0.00    +0.000 C 
ATOM     18  O   UNL     1     -12.056  53.006  51.609  0.00  0.00    +0.000 OA
BRANCH  17  19
ATOM     19  O   UNL     1     -11.043  54.623  52.885  0.00  0.00    +0.000 OA
BRANCH  19  20
ATOM     20  C   UNL     1      -9.779  54.006  53.155  0.00  0.00    +0.000 C 
ATOM     21  C   UNL     1      -8.855  54.997  53.833  0.00  0.00    +0.000 C 
ENDBRANCH  19  20
ENDBRANCH  17  19
ENDBRANCH   9  17
ENDBRANCH   4   7
BRANCH   1  22
ATOM     22  S   UNL     1      -6.344  54.262  49.368  0.00  0.00    +0.000 S 
ATOM     23  O   UNL     1      -5.842  55.612  49.473  0.00  0.00    +0.000 OA
ATOM     24  O   UNL     1      -5.725  53.314  48.461  0.00  0.00    +0.000 OA
BRANCH  22  25
ATOM     25  C   UNL     1      -6.339  53.520  50.989  0.00  0.00    +0.000 A 
ATOM     26  C   UNL     1      -7.013  52.315  51.210  0.00  0.00    +0.000 A 
ATOM     27  C   UNL     1      -5.603  54.113  52.018  0.00  0.00    +0.000 A 
ATOM     28  C   UNL     1      -6.979  51.724  52.478  0.00  0.00    +0.000 A 
ATOM     29  C   UNL     1      -5.577  53.522  53.285  0.00  0.00    +0.000 A 
ATOM     30  C   UNL     1      -6.268  52.326  53.525  0.00  0.00    +0.000 A 
ATOM     31  C   UNL     1      -6.232  51.710  54.894  0.00  0.00    +0.000 C 
ENDBRANCH  22  25
ENDBRANCH   1  22
TORSDOF 6
ENDMDL
MODEL 9
REMARK VINA RESULT:      -6.5      3.419      8.587
REMARK  Name = 
REMARK  9 active torsions:
REMARK  status: ('A' for Active; 'I' for Inactive)
REMARK    1  A    between atoms: S_1  and  N_4
REMARK    2  A    between atoms: S_1  and  C_5
REMARK    3  A    between atoms: N_10  and  C_13
REMARK    4  A    between atoms: C_14  and  C_17
REMARK    5  A    between atoms: C_16  and  C_20
REMARK    6  A    between atoms: C_20  and  O_24
REMARK    7  A    between atoms: O_24  and  C_27
REMARK    8  A    between atoms: C_25  and  C_28
REMARK    9  A    between atoms: C_27  and  C_29
REMARK                            x       y       z     vdW  Elec       q    Type
REMARK                         _______ _______ _______ _____ _____    ______ ____
ROOT
ATOM      1  N   UNL     1     -11.400  55.340  51.024  0.00  0.00    +0.000 N 
ATOM      2  C   UNL     1     -10.224  54.679  50.690  0.00  0.00    +0.000 C 
ATOM      3  O   UNL     1      -9.827  54.600  49.538  0.00  0.00    +0.000 OA
ATOM      4  N   UNL     1      -9.629  54.045  51.760  0.00  0.00    +0.000 N 
ATOM      5  H   UNL     1     -11.659  55.376  51.973  0.00  0.00    +0.000 HD
ATOM      6  H   UNL     1     -10.012  54.112  52.665  0.00  0.00    +0.000 HD
ENDROOT
BRANCH   4   7
ATOM      7  C   UNL     1      -8.481  53.309  51.529  0.00  0.00    +0.000 A 
ATOM      8  S   UNL     1      -8.755  51.671  51.171  0.00  0.00    +0.000 S 
ATOM      9  C   UNL     1      -7.146  53.672  51.470  0.00  0.00    +0.000 A 
ATOM     10  C   UNL     1      -7.131  51.458  50.701  0.00  0.00    +0.000 A 
ATOM     11  C   UNL     1      -6.351  52.567  50.977  0.00  0.00    +0.000 A 
ATOM     12  C   UNL     1      -6.642  50.171  50.117  0.00  0.00    +0.000 C 
ATOM     13  C   UNL     1      -4.864  52.566  50.741  0.00  0.00    +0.000 C 
ATOM     14  C   UNL     1      -5.166  50.258  49.698  0.00  0.00    +0.000 C 
ATOM     15  C   UNL     1      -4.286  51.140  50.609  0.00  0.00    +0.000 C 
ATOM     16  C   UNL     1      -4.043  50.500  51.981  0.00  0.00    +0.000 C 
BRANCH   9  17
ATOM     17  C   UNL     1      -6.669  55.000  51.855  0.00  0.00    +0.000 C 
ATOM     18  O   UNL     1      -7.007  56.029  51.274  0.00  0.00    +0.000 OA
BRANCH  17  19
ATOM     19  O   UNL     1      -5.797  54.950  52.898  0.00  0.00    +0.000 OA
BRANCH  19  20
ATOM     20  C   UNL     1      -6.374  54.950  54.209  0.00  0.00    +0.000 C 
ATOM     21  C   UNL     1      -6.098  53.627  54.895  0.00  0.00    +0.000 C 
ENDBRANCH  19  20
ENDBRANCH  17  19
ENDBRANCH   9  17
ENDBRANCH   4   7
BRANCH   1  22
ATOM     22  S   UNL     1     -12.399  56.078  49.911  0.00  0.00    +0.000 S 
ATOM     23  O   UNL     1     -13.236  55.106  49.246  0.00  0.00    +0.000 OA
ATOM     24  O   UNL     1     -11.527  56.946  49.144  0.00  0.00    +0.000 OA
BRANCH  22  25
ATOM     25  C   UNL     1     -13.428  57.124  50.922  0.00  0.00    +0.000 A 
ATOM     26  C   UNL     1     -13.633  56.813  52.270  0.00  0.00    +0.000 A 
ATOM     27  C   UNL     1     -13.972  58.291  50.380  0.00  0.00    +0.000 A 
ATOM     28  C   UNL     1     -14.417  57.657  53.065  0.00  0.00    +0.000 A 
ATOM     29  C   UNL     1     -14.761  59.127  51.176  0.00  0.00    +0.000 A 
ATOM     30  C   UNL     1     -14.993  58.814  52.522  0.00  0.00    +0.000 A 
ATOM     31  C   UNL     1     -15.847  59.722  53.359  0.00  0.00    +0.000 C 
ENDBRANCH  22  25
ENDBRANCH   1  22
TORSDOF 6
ENDMDL
