MODEL 1
REMARK VINA RESULT:      -7.8      0.000      0.000
REMARK  Name = 
REMARK  9 active torsions:
REMARK  status: ('A' for Active; 'I' for Inactive)
REMARK    1  A    between atoms: S_1  and  N_4
REMARK    2  A    between atoms: S_1  and  C_5
REMARK    3  A    between atoms: N_10  and  C_13
REMARK    4  A    between atoms: C_16  and  C_19
REMARK    5  A    between atoms: C_19  and  O_23
REMARK    6  A    between atoms: O_23  and  C_26
REMARK    7  A    between atoms: C_24  and  C_27
REMARK    8  A    between atoms: C_24  and  C_28
REMARK    9  A    between atoms: C_26  and  C_29
REMARK                            x       y       z     vdW  Elec       q    Type
REMARK                         _______ _______ _______ _____ _____    ______ ____
ROOT
ATOM      1  C   UNL     1     -10.955  54.388  51.601  0.00  0.00    +0.000 A 
ATOM      2  S   UNL     1     -10.521  53.718  53.101  0.00  0.00    +0.000 S 
ATOM      3  C   UNL     1      -9.880  54.907  50.902  0.00  0.00    +0.000 A 
ATOM      4  C   UNL     1      -8.857  53.873  52.746  0.00  0.00    +0.000 A 
ATOM      5  C   UNL     1      -8.642  54.516  51.539  0.00  0.00    +0.000 A 
ATOM      6  C   UNL     1      -7.767  53.361  53.662  0.00  0.00    +0.000 C 
ATOM      7  C   UNL     1      -7.258  54.817  51.040  0.00  0.00    +0.000 C 
ATOM      8  C   UNL     1      -6.394  54.037  53.334  0.00  0.00    +0.000 C 
ATOM      9  C   UNL     1      -6.179  54.045  51.803  0.00  0.00    +0.000 C 
ATOM     10  C   UNL     1      -5.232  53.256  53.970  0.00  0.00    +0.000 C 
ATOM     11  C   UNL     1      -6.364  55.470  53.905  0.00  0.00    +0.000 C 
ENDROOT
BRANCH   1  15
ATOM     12  N   UNL     1     -14.436  55.218  51.151  0.00  0.00    +0.000 N 
ATOM     13  C   UNL     1     -13.122  55.354  51.593  0.00  0.00    +0.000 C 
ATOM     14  O   UNL     1     -12.730  56.377  52.139  0.00  0.00    +0.000 OA
ATOM     15  N   UNL     1     -12.299  54.291  51.262  0.00  0.00    +0.000 N 
ATOM     16  H   UNL     1     -14.692  54.377  50.707  0.00  0.00    +0.000 HD
ATOM     17  H   UNL     1     -12.654  53.495  50.804  0.00  0.00    +0.000 HD
BRANCH  12  18
ATOM     18  S   UNL     1     -15.604  56.405  51.337  0.00  0.00    +0.000 S 
ATOM     19  O   UNL     1     -15.775  56.742  52.729  0.00  0.00    +0.000 OA
ATOM     20  O   UNL     1     -16.732  55.941  50.549  0.00  0.00    +0.000 OA
BRANCH  18  21
ATOM     21  C   UNL     1     -14.914  57.809  50.482  0.00  0.00    +0.000 A 
ATOM     22  C   UNL     1     -14.780  59.037  51.141  0.00  0.00    +0.000 A 
ATOM     23  C   UNL     1     -14.408  57.647  49.188  0.00  0.00    +0.000 A 
ATOM     24  C   UNL     1     -14.172  60.109  50.489  0.00  0.00    +0.000 A 
ATOM     25  C   UNL     1     -13.802  58.724  48.541  0.00  0.00    +0.000 A 
ATOM     26  C   UNL     1     -13.684  59.953  49.189  0.00  0.00    +0.000 A 
ENDBRANCH  18  21
ENDBRANCH  12  18
ENDBRANCH   1  15
BRANCH   3  27
ATOM     27  C   UNL     1     -10.036  55.719  49.693  0.00  0.00    +0.000 C 
ATOM     28  O   UNL     1      -9.690  56.893  49.625  0.00  0.00    +0.000 OA
BRANCH  27  29
ATOM     29  O   UNL     1     -10.596  55.018  48.672  0.00  0.00    +0.000 OA
BRANCH  29  30
ATOM     30  C   UNL     1     -11.633  55.664  47.927  0.00  0.00    +0.000 C 
ATOM     31  C   UNL     1     -11.577  55.213  46.483  0.00  0.00    +0.000 C 
ENDBRANCH  29  30
ENDBRANCH  27  29
ENDBRANCH   3  27
TORSDOF 6
ENDMDL
MODEL 2
REMARK VINA RESULT:      -7.4      2.526      7.677
REMARK  Name = 
REMARK  9 active torsions:
REMARK  status: ('A' for Active; 'I' for Inactive)
REMARK    1  A    between atoms: S_1  and  N_4
REMARK    2  A    between atoms: S_1  and  C_5
REMARK    3  A    between atoms: N_10  and  C_13
REMARK    4  A    between atoms: C_16  and  C_19
REMARK    5  A    between atoms: C_19  and  O_23
REMARK    6  A    between atoms: O_23  and  C_26
REMARK    7  A    between atoms: C_24  and  C_27
REMARK    8  A    between atoms: C_24  and  C_28
REMARK    9  A    between atoms: C_26  and  C_29
REMARK                            x       y       z     vdW  Elec       q    Type
REMARK                         _______ _______ _______ _____ _____    ______ ____
ROOT
ATOM      1  C   UNL     1     -11.188  54.897  50.156  0.00  0.00    +0.000 A 
ATOM      2  S   UNL     1     -11.780  54.932  51.749  0.00  0.00    +0.000 S 
ATOM      3  C   UNL     1     -11.844  55.771  49.309  0.00  0.00    +0.000 A 
ATOM      4  C   UNL     1     -12.754  56.294  51.411  0.00  0.00    +0.000 A 
ATOM      5  C   UNL     1     -12.697  56.653  50.074  0.00  0.00    +0.000 A 
ATOM      6  C   UNL     1     -13.574  57.005  52.464  0.00  0.00    +0.000 C 
ATOM      7  C   UNL     1     -13.513  57.789  49.526  0.00  0.00    +0.000 C 
ATOM      8  C   UNL     1     -14.693  57.881  51.810  0.00  0.00    +0.000 C 
ATOM      9  C   UNL     1     -14.094  58.678  50.628  0.00  0.00    +0.000 C 
ATOM     10  C   UNL     1     -15.261  58.892  52.821  0.00  0.00    +0.000 C 
ATOM     11  C   UNL     1     -15.857  56.984  51.339  0.00  0.00    +0.000 C 
ENDROOT
BRANCH   1  15
ATOM     12  N   UNL     1      -7.836  53.569  50.051  0.00  0.00    +0.000 N 
ATOM     13  C   UNL     1      -8.848  54.509  50.230  0.00  0.00    +0.000 C 
ATOM     14  O   UNL     1      -8.622  55.615  50.705  0.00  0.00    +0.000 OA
ATOM     15  N   UNL     1     -10.116  54.041  49.929  0.00  0.00    +0.000 N 
ATOM     16  H   UNL     1      -8.078  52.691  49.677  0.00  0.00    +0.000 HD
ATOM     17  H   UNL     1     -10.253  53.136  49.567  0.00  0.00    +0.000 HD
BRANCH  12  18
ATOM     18  S   UNL     1      -6.230  53.852  50.437  0.00  0.00    +0.000 S 
ATOM     19  O   UNL     1      -5.809  55.147  49.960  0.00  0.00    +0.000 OA
ATOM     20  O   UNL     1      -5.531  52.651  50.016  0.00  0.00    +0.000 OA
BRANCH  18  21
ATOM     21  C   UNL     1      -6.222  53.861  52.219  0.00  0.00    +0.000 A 
ATOM     22  C   UNL     1      -7.000  52.941  52.931  0.00  0.00    +0.000 A 
ATOM     23  C   UNL     1      -5.350  54.719  52.899  0.00  0.00    +0.000 A 
ATOM     24  C   UNL     1      -6.930  52.907  54.324  0.00  0.00    +0.000 A 
ATOM     25  C   UNL     1      -5.286  54.681  54.292  0.00  0.00    +0.000 A 
ATOM     26  C   UNL     1      -6.074  53.777  55.004  0.00  0.00    +0.000 A 
ENDBRANCH  18  21
ENDBRANCH  12  18
ENDBRANCH   1  15
BRANCH   3  27
ATOM     27  C   UNL     1     -11.654  55.763  47.857  0.00  0.00    +0.000 C 
ATOM     28  O   UNL     1     -12.585  55.748  47.059  0.00  0.00    +0.000 OA
BRANCH  27  29
ATOM     29  O   UNL     1     -10.340  55.781  47.511  0.00  0.00    +0.000 OA
BRANCH  29  30
ATOM     30  C   UNL     1      -9.923  54.882  46.478  0.00  0.00    +0.000 C 
ATOM     31  C   UNL     1      -8.421  54.964  46.310  0.00  0.00    +0.000 C 
ENDBRANCH  29  30
ENDBRANCH  27  29
ENDBRANCH   3  27
TORSDOF 6
ENDMDL
MODEL 3
REMARK VINA RESULT:      -7.2      2.385      3.158
REMARK  Name = 
REMARK  9 active torsions:
REMARK  status: ('A' for Active; 'I' for Inactive)
REMARK    1  A    between atoms: S_1  and  N_4
REMARK    2  A    between atoms: S_1  and  C_5
REMARK    3  A    between atoms: N_10  and  C_13
REMARK    4  A    between atoms: C_16  and  C_19
REMARK    5  A    between atoms: C_19  and  O_23
REMARK    6  A    between atoms: O_23  and  C_26
REMARK    7  A    between atoms: C_24  and  C_27
REMARK    8  A    between atoms: C_24  and  C_28
REMARK    9  A    between atoms: C_26  and  C_29
REMARK                            x       y       z     vdW  Elec       q    Type
REMARK                         _______ _______ _______ _____ _____    ______ ____
ROOT
ATOM      1  C   UNL     1      -9.992  54.951  50.633  0.00  0.00    +0.000 A 
ATOM      2  S   UNL     1      -9.925  54.987  52.330  0.00  0.00    +0.000 S 
ATOM      3  C   UNL     1      -9.558  53.754  50.094  0.00  0.00    +0.000 A 
ATOM      4  C   UNL     1      -9.557  53.320  52.402  0.00  0.00    +0.000 A 
ATOM      5  C   UNL     1      -9.393  52.771  51.141  0.00  0.00    +0.000 A 
ATOM      6  C   UNL     1      -9.427  52.559  53.703  0.00  0.00    +0.000 C 
ATOM      7  C   UNL     1      -9.011  51.331  50.951  0.00  0.00    +0.000 C 
ATOM      8  C   UNL     1      -8.644  51.220  53.495  0.00  0.00    +0.000 C 
ATOM      9  C   UNL     1      -9.175  50.507  52.230  0.00  0.00    +0.000 C 
ATOM     10  C   UNL     1      -8.847  50.274  54.690  0.00  0.00    +0.000 C 
ATOM     11  C   UNL     1      -7.133  51.507  53.375  0.00  0.00    +0.000 C 
ENDROOT
BRANCH   1  15
ATOM     12  N   UNL     1     -12.318  57.356  49.285  0.00  0.00    +0.000 N 
ATOM     13  C   UNL     1     -11.873  56.152  49.826  0.00  0.00    +0.000 C 
ATOM     14  O   UNL     1     -12.654  55.278  50.178  0.00  0.00    +0.000 OA
ATOM     15  N   UNL     1     -10.504  56.091  50.024  0.00  0.00    +0.000 N 
ATOM     16  H   UNL     1     -11.645  58.029  49.032  0.00  0.00    +0.000 HD
ATOM     17  H   UNL     1      -9.914  56.828  49.743  0.00  0.00    +0.000 HD
BRANCH  12  18
ATOM     18  S   UNL     1     -13.935  57.720  49.040  0.00  0.00    +0.000 S 
ATOM     19  O   UNL     1     -14.609  56.634  48.372  0.00  0.00    +0.000 OA
ATOM     20  O   UNL     1     -13.931  59.051  48.459  0.00  0.00    +0.000 OA
BRANCH  18  21
ATOM     21  C   UNL     1     -14.585  57.875  50.692  0.00  0.00    +0.000 A 
ATOM     22  C   UNL     1     -15.273  56.807  51.281  0.00  0.00    +0.000 A 
ATOM     23  C   UNL     1     -14.308  59.028  51.436  0.00  0.00    +0.000 A 
ATOM     24  C   UNL     1     -15.713  56.911  52.600  0.00  0.00    +0.000 A 
ATOM     25  C   UNL     1     -14.753  59.126  52.754  0.00  0.00    +0.000 A 
ATOM     26  C   UNL     1     -15.454  58.071  53.336  0.00  0.00    +0.000 A 
ENDBRANCH  18  21
ENDBRANCH  12  18
ENDBRANCH   1  15
BRANCH   3  27
ATOM     27  C   UNL     1      -9.326  53.566  48.660  0.00  0.00    +0.000 C 
ATOM     28  O   UNL     1      -8.240  53.239  48.193  0.00  0.00    +0.000 OA
BRANCH  27  29
ATOM     29  O   UNL     1     -10.446  53.790  47.924  0.00  0.00    +0.000 OA
BRANCH  29  30
ATOM     30  C   UNL     1     -10.314  54.624  46.769  0.00  0.00    +0.000 C 
ATOM     31  C   UNL     1     -11.678  54.863  46.157  0.00  0.00    +0.000 C 
ENDBRANCH  29  30
ENDBRANCH  27  29
ENDBRANCH   3  27
TORSDOF 6
ENDMDL
MODEL 4
REMARK VINA RESULT:      -7.1      3.006      8.172
REMARK  Name = 
REMARK  9 active torsions:
REMARK  status: ('A' for Active; 'I' for Inactive)
REMARK    1  A    between atoms: S_1  and  N_4
REMARK    2  A    between atoms: S_1  and  C_5
REMARK    3  A    between atoms: N_10  and  C_13
REMARK    4  A    between atoms: C_16  and  C_19
REMARK    5  A    between atoms: C_19  and  O_23
REMARK    6  A    between atoms: O_23  and  C_26
REMARK    7  A    between atoms: C_24  and  C_27
REMARK    8  A    between atoms: C_24  and  C_28
REMARK    9  A    between atoms: C_26  and  C_29
REMARK                            x       y       z     vdW  Elec       q    Type
REMARK                         _______ _______ _______ _____ _____    ______ ____
ROOT
ATOM      1  C   UNL     1     -10.909  54.995  50.275  0.00  0.00    +0.000 A 
ATOM      2  S   UNL     1     -11.485  55.046  51.873  0.00  0.00    +0.000 S 
ATOM      3  C   UNL     1     -11.647  55.773  49.402  0.00  0.00    +0.000 A 
ATOM      4  C   UNL     1     -12.578  56.303  51.492  0.00  0.00    +0.000 A 
ATOM      5  C   UNL     1     -12.566  56.609  50.141  0.00  0.00    +0.000 A 
ATOM      6  C   UNL     1     -13.447  56.983  52.527  0.00  0.00    +0.000 C 
ATOM      7  C   UNL     1     -13.483  57.646  49.559  0.00  0.00    +0.000 C 
ATOM      8  C   UNL     1     -14.644  57.731  51.853  0.00  0.00    +0.000 C 
ATOM      9  C   UNL     1     -14.129  58.526  50.630  0.00  0.00    +0.000 C 
ATOM     10  C   UNL     1     -15.288  58.730  52.828  0.00  0.00    +0.000 C 
ATOM     11  C   UNL     1     -15.730  56.717  51.435  0.00  0.00    +0.000 C 
ENDROOT
BRANCH   1  15
ATOM     12  N   UNL     1      -7.449  53.988  50.106  0.00  0.00    +0.000 N 
ATOM     13  C   UNL     1      -8.541  54.840  50.253  0.00  0.00    +0.000 C 
ATOM     14  O   UNL     1      -8.405  56.004  50.610  0.00  0.00    +0.000 OA
ATOM     15  N   UNL     1      -9.768  54.227  50.069  0.00  0.00    +0.000 N 
ATOM     16  H   UNL     1      -7.619  53.059  49.829  0.00  0.00    +0.000 HD
ATOM     17  H   UNL     1      -9.831  53.282  49.801  0.00  0.00    +0.000 HD
BRANCH  12  18
ATOM     18  S   UNL     1      -5.864  54.459  50.373  0.00  0.00    +0.000 S 
ATOM     19  O   UNL     1      -5.597  54.584  51.784  0.00  0.00    +0.000 OA
ATOM     20  O   UNL     1      -5.658  55.587  49.482  0.00  0.00    +0.000 OA
BRANCH  18  21
ATOM     21  C   UNL     1      -4.908  53.101  49.722  0.00  0.00    +0.000 A 
ATOM     22  C   UNL     1      -4.382  52.134  50.586  0.00  0.00    +0.000 A 
ATOM     23  C   UNL     1      -4.783  52.949  48.337  0.00  0.00    +0.000 A 
ATOM     24  C   UNL     1      -3.699  51.037  50.062  0.00  0.00    +0.000 A 
ATOM     25  C   UNL     1      -4.097  51.849  47.820  0.00  0.00    +0.000 A 
ATOM     26  C   UNL     1      -3.556  50.895  48.679  0.00  0.00    +0.000 A 
ENDBRANCH  18  21
ENDBRANCH  12  18
ENDBRANCH   1  15
BRANCH   3  27
ATOM     27  C   UNL     1     -11.472  55.720  47.949  0.00  0.00    +0.000 C 
ATOM     28  O   UNL     1     -12.408  55.624  47.163  0.00  0.00    +0.000 OA
BRANCH  27  29
ATOM     29  O   UNL     1     -10.164  55.797  47.586  0.00  0.00    +0.000 OA
BRANCH  29  30
ATOM     30  C   UNL     1      -9.719  54.911  46.554  0.00  0.00    +0.000 C 
ATOM     31  C   UNL     1      -8.206  54.914  46.500  0.00  0.00    +0.000 C 
ENDBRANCH  29  30
ENDBRANCH  27  29
ENDBRANCH   3  27
TORSDOF 6
ENDMDL
MODEL 5
REMARK VINA RESULT:      -7.1      2.279      2.949
REMARK  Name = 
REMARK  9 active torsions:
REMARK  status: ('A' for Active; 'I' for Inactive)
REMARK    1  A    between atoms: S_1  and  N_4
REMARK    2  A    between atoms: S_1  and  C_5
REMARK    3  A    between atoms: N_10  and  C_13
REMARK    4  A    between atoms: C_16  and  C_19
REMARK    5  A    between atoms: C_19  and  O_23
REMARK    6  A    between atoms: O_23  and  C_26
REMARK    7  A    between atoms: C_24  and  C_27
REMARK    8  A    between atoms: C_24  and  C_28
REMARK    9  A    between atoms: C_26  and  C_29
REMARK                            x       y       z     vdW  Elec       q    Type
REMARK                         _______ _______ _______ _____ _____    ______ ____
ROOT
ATOM      1  C   UNL     1      -8.489  55.703  49.923  0.00  0.00    +0.000 A 
ATOM      2  S   UNL     1      -8.028  55.931  51.543  0.00  0.00    +0.000 S 
ATOM      3  C   UNL     1      -7.744  54.738  49.272  0.00  0.00    +0.000 A 
ATOM      4  C   UNL     1      -6.995  54.571  51.492  0.00  0.00    +0.000 A 
ATOM      5  C   UNL     1      -6.933  54.014  50.226  0.00  0.00    +0.000 A 
ATOM      6  C   UNL     1      -6.245  54.059  52.702  0.00  0.00    +0.000 C 
ATOM      7  C   UNL     1      -6.046  52.840  49.922  0.00  0.00    +0.000 C 
ATOM      8  C   UNL     1      -5.054  53.137  52.277  0.00  0.00    +0.000 C 
ATOM      9  C   UNL     1      -5.533  52.150  51.187  0.00  0.00    +0.000 C 
ATOM     10  C   UNL     1      -4.544  52.312  53.470  0.00  0.00    +0.000 C 
ATOM     11  C   UNL     1      -3.879  53.997  51.765  0.00  0.00    +0.000 C 
ENDROOT
BRANCH   1  15
ATOM     12  N   UNL     1     -11.854  56.774  49.184  0.00  0.00    +0.000 N 
ATOM     13  C   UNL     1     -10.826  55.915  49.564  0.00  0.00    +0.000 C 
ATOM     14  O   UNL     1     -11.053  54.799  50.015  0.00  0.00    +0.000 OA
ATOM     15  N   UNL     1      -9.561  56.474  49.487  0.00  0.00    +0.000 N 
ATOM     16  H   UNL     1     -11.612  57.664  48.839  0.00  0.00    +0.000 HD
ATOM     17  H   UNL     1      -9.426  57.383  49.135  0.00  0.00    +0.000 HD
BRANCH  12  18
ATOM     18  S   UNL     1     -13.478  56.374  49.279  0.00  0.00    +0.000 S 
ATOM     19  O   UNL     1     -13.644  54.980  49.610  0.00  0.00    +0.000 OA
ATOM     20  O   UNL     1     -14.064  56.916  48.066  0.00  0.00    +0.000 OA
BRANCH  18  21
ATOM     21  C   UNL     1     -14.076  57.366  50.634  0.00  0.00    +0.000 A 
ATOM     22  C   UNL     1     -13.885  56.942  51.954  0.00  0.00    +0.000 A 
ATOM     23  C   UNL     1     -14.636  58.622  50.373  0.00  0.00    +0.000 A 
ATOM     24  C   UNL     1     -14.289  57.759  53.009  0.00  0.00    +0.000 A 
ATOM     25  C   UNL     1     -15.040  59.434  51.433  0.00  0.00    +0.000 A 
ATOM     26  C   UNL     1     -14.868  59.005  52.749  0.00  0.00    +0.000 A 
ENDBRANCH  18  21
ENDBRANCH  12  18
ENDBRANCH   1  15
BRANCH   3  27
ATOM     27  C   UNL     1      -7.814  54.520  47.825  0.00  0.00    +0.000 C 
ATOM     28  O   UNL     1      -6.855  54.671  47.077  0.00  0.00    +0.000 OA
BRANCH  27  29
ATOM     29  O   UNL     1      -9.054  54.131  47.424  0.00  0.00    +0.000 OA
BRANCH  29  30
ATOM     30  C   UNL     1      -9.590  54.759  46.256  0.00  0.00    +0.000 C 
ATOM     31  C   UNL     1     -11.076  54.483  46.168  0.00  0.00    +0.000 C 
ENDBRANCH  29  30
ENDBRANCH  27  29
ENDBRANCH   3  27
TORSDOF 6
ENDMDL
MODEL 6
REMARK VINA RESULT:      -7.0      1.944      2.331
REMARK  Name = 
REMARK  9 active torsions:
REMARK  status: ('A' for Active; 'I' for Inactive)
REMARK    1  A    between atoms: S_1  and  N_4
REMARK    2  A    between atoms: S_1  and  C_5
REMARK    3  A    between atoms: N_10  and  C_13
REMARK    4  A    between atoms: C_16  and  C_19
REMARK    5  A    between atoms: C_19  and  O_23
REMARK    6  A    between atoms: O_23  and  C_26
REMARK    7  A    between atoms: C_24  and  C_27
REMARK    8  A    between atoms: C_24  and  C_28
REMARK    9  A    between atoms: C_26  and  C_29
REMARK                            x       y       z     vdW  Elec       q    Type
REMARK                         _______ _______ _______ _____ _____    ______ ____
ROOT
ATOM      1  C   UNL     1     -11.133  53.542  50.553  0.00  0.00    +0.000 A 
ATOM      2  S   UNL     1     -10.263  52.751  51.780  0.00  0.00    +0.000 S 
ATOM      3  C   UNL     1     -10.409  53.704  49.386  0.00  0.00    +0.000 A 
ATOM      4  C   UNL     1      -8.988  52.378  50.705  0.00  0.00    +0.000 A 
ATOM      5  C   UNL     1      -9.186  52.936  49.453  0.00  0.00    +0.000 A 
ATOM      6  C   UNL     1      -7.793  51.539  51.101  0.00  0.00    +0.000 C 
ATOM      7  C   UNL     1      -8.171  52.792  48.355  0.00  0.00    +0.000 C 
ATOM      8  C   UNL     1      -6.603  51.752  50.109  0.00  0.00    +0.000 C 
ATOM      9  C   UNL     1      -7.131  51.710  48.656  0.00  0.00    +0.000 C 
ATOM     10  C   UNL     1      -5.554  50.637  50.261  0.00  0.00    +0.000 C 
ATOM     11  C   UNL     1      -5.905  53.096  50.405  0.00  0.00    +0.000 C 
ENDROOT
BRANCH   1  15
ATOM     12  N   UNL     1     -14.019  55.417  51.633  0.00  0.00    +0.000 N 
ATOM     13  C   UNL     1     -12.674  55.123  51.423  0.00  0.00    +0.000 C 
ATOM     14  O   UNL     1     -11.795  55.949  51.632  0.00  0.00    +0.000 OA
ATOM     15  N   UNL     1     -12.446  53.877  50.864  0.00  0.00    +0.000 N 
ATOM     16  H   UNL     1     -14.684  54.718  51.435  0.00  0.00    +0.000 HD
ATOM     17  H   UNL     1     -13.186  53.251  50.694  0.00  0.00    +0.000 HD
BRANCH  12  18
ATOM     18  S   UNL     1     -14.567  56.893  52.205  0.00  0.00    +0.000 S 
ATOM     19  O   UNL     1     -13.710  57.386  53.255  0.00  0.00    +0.000 OA
ATOM     20  O   UNL     1     -15.985  56.693  52.447  0.00  0.00    +0.000 OA
BRANCH  18  21
ATOM     21  C   UNL     1     -14.427  57.969  50.791  0.00  0.00    +0.000 A 
ATOM     22  C   UNL     1     -14.338  59.355  50.968  0.00  0.00    +0.000 A 
ATOM     23  C   UNL     1     -14.296  57.414  49.514  0.00  0.00    +0.000 A 
ATOM     24  C   UNL     1     -14.154  60.183  49.861  0.00  0.00    +0.000 A 
ATOM     25  C   UNL     1     -14.114  58.249  48.410  0.00  0.00    +0.000 A 
ATOM     26  C   UNL     1     -14.043  59.631  48.583  0.00  0.00    +0.000 A 
ENDBRANCH  18  21
ENDBRANCH  12  18
ENDBRANCH   1  15
BRANCH   3  27
ATOM     27  C   UNL     1     -10.871  54.538  48.274  0.00  0.00    +0.000 C 
ATOM     28  O   UNL     1     -10.306  55.571  47.931  0.00  0.00    +0.000 OA
BRANCH  27  29
ATOM     29  O   UNL     1     -11.982  54.030  47.678  0.00  0.00    +0.000 OA
BRANCH  29  30
ATOM     30  C   UNL     1     -11.801  52.912  46.804  0.00  0.00    +0.000 C 
ATOM     31  C   UNL     1     -11.460  53.404  45.413  0.00  0.00    +0.000 C 
ENDBRANCH  29  30
ENDBRANCH  27  29
ENDBRANCH   3  27
TORSDOF 6
ENDMDL
MODEL 7
REMARK VINA RESULT:      -6.9      2.972      4.590
REMARK  Name = 
REMARK  9 active torsions:
REMARK  status: ('A' for Active; 'I' for Inactive)
REMARK    1  A    between atoms: S_1  and  N_4
REMARK    2  A    between atoms: S_1  and  C_5
REMARK    3  A    between atoms: N_10  and  C_13
REMARK    4  A    between atoms: C_16  and  C_19
REMARK    5  A    between atoms: C_19  and  O_23
REMARK    6  A    between atoms: O_23  and  C_26
REMARK    7  A    between atoms: C_24  and  C_27
REMARK    8  A    between atoms: C_24  and  C_28
REMARK    9  A    between atoms: C_26  and  C_29
REMARK                            x       y       z     vdW  Elec       q    Type
REMARK                         _______ _______ _______ _____ _____    ______ ____
ROOT
ATOM      1  C   UNL     1      -8.421  55.707  49.014  0.00  0.00    +0.000 A 
ATOM      2  S   UNL     1      -8.254  54.724  47.637  0.00  0.00    +0.000 S 
ATOM      3  C   UNL     1      -7.375  55.577  49.909  0.00  0.00    +0.000 A 
ATOM      4  C   UNL     1      -6.661  54.291  48.078  0.00  0.00    +0.000 A 
ATOM      5  C   UNL     1      -6.303  54.816  49.308  0.00  0.00    +0.000 A 
ATOM      6  C   UNL     1      -5.769  53.432  47.209  0.00  0.00    +0.000 C 
ATOM      7  C   UNL     1      -4.967  54.526  49.932  0.00  0.00    +0.000 C 
ATOM      8  C   UNL     1      -4.592  52.823  48.041  0.00  0.00    +0.000 C 
ATOM      9  C   UNL     1      -3.974  53.922  48.936  0.00  0.00    +0.000 C 
ATOM     10  C   UNL     1      -3.484  52.291  47.116  0.00  0.00    +0.000 C 
ATOM     11  C   UNL     1      -5.103  51.641  48.890  0.00  0.00    +0.000 C 
ENDROOT
BRANCH   1  15
ATOM     12  N   UNL     1     -11.849  56.803  49.255  0.00  0.00    +0.000 N 
ATOM     13  C   UNL     1     -10.781  55.915  49.158  0.00  0.00    +0.000 C 
ATOM     14  O   UNL     1     -10.937  54.706  49.269  0.00  0.00    +0.000 OA
ATOM     15  N   UNL     1      -9.544  56.526  49.038  0.00  0.00    +0.000 N 
ATOM     16  H   UNL     1     -11.662  57.766  49.170  0.00  0.00    +0.000 HD
ATOM     17  H   UNL     1      -9.463  57.505  48.972  0.00  0.00    +0.000 HD
BRANCH  12  18
ATOM     18  S   UNL     1     -13.434  56.322  49.505  0.00  0.00    +0.000 S 
ATOM     19  O   UNL     1     -13.487  54.966  49.996  0.00  0.00    +0.000 OA
ATOM     20  O   UNL     1     -14.130  56.689  48.284  0.00  0.00    +0.000 OA
BRANCH  18  21
ATOM     21  C   UNL     1     -14.010  57.423  50.784  0.00  0.00    +0.000 A 
ATOM     22  C   UNL     1     -14.584  58.654  50.446  0.00  0.00    +0.000 A 
ATOM     23  C   UNL     1     -13.987  57.001  52.117  0.00  0.00    +0.000 A 
ATOM     24  C   UNL     1     -15.098  59.476  51.448  0.00  0.00    +0.000 A 
ATOM     25  C   UNL     1     -14.502  57.828  53.115  0.00  0.00    +0.000 A 
ATOM     26  C   UNL     1     -15.057  59.063  52.783  0.00  0.00    +0.000 A 
ENDBRANCH  18  21
ENDBRANCH  12  18
ENDBRANCH   1  15
BRANCH   3  27
ATOM     27  C   UNL     1      -7.404  56.157  51.253  0.00  0.00    +0.000 C 
ATOM     28  O   UNL     1      -7.574  57.353  51.464  0.00  0.00    +0.000 OA
BRANCH  27  29
ATOM     29  O   UNL     1      -7.226  55.220  52.222  0.00  0.00    +0.000 OA
BRANCH  29  30
ATOM     30  C   UNL     1      -7.400  55.640  53.578  0.00  0.00    +0.000 C 
ATOM     31  C   UNL     1      -6.531  54.795  54.486  0.00  0.00    +0.000 C 
ENDBRANCH  29  30
ENDBRANCH  27  29
ENDBRANCH   3  27
TORSDOF 6
ENDMDL
MODEL 8
REMARK VINA RESULT:      -6.9      1.871      2.378
REMARK  Name = 
REMARK  9 active torsions:
REMARK  status: ('A' for Active; 'I' for Inactive)
REMARK    1  A    between atoms: S_1  and  N_4
REMARK    2  A    between atoms: S_1  and  C_5
REMARK    3  A    between atoms: N_10  and  C_13
REMARK    4  A    between atoms: C_16  and  C_19
REMARK    5  A    between atoms: C_19  and  O_23
REMARK    6  A    between atoms: O_23  and  C_26
REMARK    7  A    between atoms: C_24  and  C_27
REMARK    8  A    between atoms: C_24  and  C_28
REMARK    9  A    between atoms: C_26  and  C_29
REMARK                            x       y       z     vdW  Elec       q    Type
REMARK                         _______ _______ _______ _____ _____    ______ ____
ROOT
ATOM      1  C   UNL     1     -11.318  53.368  50.809  0.00  0.00    +0.000 A 
ATOM      2  S   UNL     1     -10.690  52.474  52.111  0.00  0.00    +0.000 S 
ATOM      3  C   UNL     1     -10.423  53.516  49.765  0.00  0.00    +0.000 A 
ATOM      4  C   UNL     1      -9.302  52.045  51.213  0.00  0.00    +0.000 A 
ATOM      5  C   UNL     1      -9.277  52.658  49.971  0.00  0.00    +0.000 A 
ATOM      6  C   UNL     1      -8.237  51.106  51.737  0.00  0.00    +0.000 C 
ATOM      7  C   UNL     1      -8.127  52.476  49.023  0.00  0.00    +0.000 C 
ATOM      8  C   UNL     1      -6.904  51.264  50.935  0.00  0.00    +0.000 C 
ATOM      9  C   UNL     1      -7.218  51.311  49.421  0.00  0.00    +0.000 C 
ATOM     10  C   UNL     1      -5.967  50.070  51.185  0.00  0.00    +0.000 C 
ATOM     11  C   UNL     1      -6.166  52.542  51.386  0.00  0.00    +0.000 C 
ENDROOT
BRANCH   1  15
ATOM     12  N   UNL     1     -14.196  55.409  51.560  0.00  0.00    +0.000 N 
ATOM     13  C   UNL     1     -12.858  55.023  51.531  0.00  0.00    +0.000 C 
ATOM     14  O   UNL     1     -11.964  55.770  51.910  0.00  0.00    +0.000 OA
ATOM     15  N   UNL     1     -12.636  53.788  50.945  0.00  0.00    +0.000 N 
ATOM     16  H   UNL     1     -14.870  54.772  51.231  0.00  0.00    +0.000 HD
ATOM     17  H   UNL     1     -13.384  53.229  50.635  0.00  0.00    +0.000 HD
BRANCH  12  18
ATOM     18  S   UNL     1     -14.719  56.896  52.127  0.00  0.00    +0.000 S 
ATOM     19  O   UNL     1     -13.868  57.367  53.193  0.00  0.00    +0.000 OA
ATOM     20  O   UNL     1     -16.145  56.729  52.343  0.00  0.00    +0.000 OA
BRANCH  18  21
ATOM     21  C   UNL     1     -14.528  57.972  50.718  0.00  0.00    +0.000 A 
ATOM     22  C   UNL     1     -14.551  59.362  50.886  0.00  0.00    +0.000 A 
ATOM     23  C   UNL     1     -14.246  57.420  49.463  0.00  0.00    +0.000 A 
ATOM     24  C   UNL     1     -14.328  60.195  49.790  0.00  0.00    +0.000 A 
ATOM     25  C   UNL     1     -14.025  58.260  48.371  0.00  0.00    +0.000 A 
ATOM     26  C   UNL     1     -14.065  59.644  48.533  0.00  0.00    +0.000 A 
ENDBRANCH  18  21
ENDBRANCH  12  18
ENDBRANCH   1  15
BRANCH   3  27
ATOM     27  C   UNL     1     -10.660  54.419  48.637  0.00  0.00    +0.000 C 
ATOM     28  O   UNL     1     -11.659  54.359  47.929  0.00  0.00    +0.000 OA
BRANCH  27  29
ATOM     29  O   UNL     1      -9.655  55.320  48.480  0.00  0.00    +0.000 OA
BRANCH  29  30
ATOM     30  C   UNL     1      -9.634  56.438  49.372  0.00  0.00    +0.000 C 
ATOM     31  C   UNL     1      -8.256  56.571  49.986  0.00  0.00    +0.000 C 
ENDBRANCH  29  30
ENDBRANCH  27  29
ENDBRANCH   3  27
TORSDOF 6
ENDMDL
MODEL 9
REMARK VINA RESULT:      -6.8      2.499      4.317
REMARK  Name = 
REMARK  9 active torsions:
REMARK  status: ('A' for Active; 'I' for Inactive)
REMARK    1  A    between atoms: S_1  and  N_4
REMARK    2  A    between atoms: S_1  and  C_5
REMARK    3  A    between atoms: N_10  and  C_13
REMARK    4  A    between atoms: C_16  and  C_19
REMARK    5  A    between atoms: C_19  and  O_23
REMARK    6  A    between atoms: O_23  and  C_26
REMARK    7  A    between atoms: C_24  and  C_27
REMARK    8  A    between atoms: C_24  and  C_28
REMARK    9  A    between atoms: C_26  and  C_29
REMARK                            x       y       z     vdW  Elec       q    Type
REMARK                         _______ _______ _______ _____ _____    ______ ____
ROOT
ATOM      1  C   UNL     1      -8.729  53.641  51.964  0.00  0.00    +0.000 A 
ATOM      2  S   UNL     1      -8.733  52.020  51.452  0.00  0.00    +0.000 S 
ATOM      3  C   UNL     1      -7.459  54.169  52.098  0.00  0.00    +0.000 A 
ATOM      4  C   UNL     1      -7.051  52.058  51.152  0.00  0.00    +0.000 A 
ATOM      5  C   UNL     1      -6.485  53.264  51.531  0.00  0.00    +0.000 A 
ATOM      6  C   UNL     1      -6.294  50.897  50.547  0.00  0.00    +0.000 C 
ATOM      7  C   UNL     1      -5.008  53.513  51.414  0.00  0.00    +0.000 C 
ATOM      8  C   UNL     1      -4.759  51.023  50.819  0.00  0.00    +0.000 C 
ATOM      9  C   UNL     1      -4.305  52.474  50.538  0.00  0.00    +0.000 C 
ATOM     10  C   UNL     1      -3.958  50.091  49.895  0.00  0.00    +0.000 C 
ATOM     11  C   UNL     1      -4.448  50.620  52.276  0.00  0.00    +0.000 C 
ENDROOT
BRANCH   1  15
ATOM     12  N   UNL     1     -11.796  55.416  51.290  0.00  0.00    +0.000 N 
ATOM     13  C   UNL     1     -10.509  54.931  51.070  0.00  0.00    +0.000 C 
ATOM     14  O   UNL     1      -9.953  55.051  49.986  0.00  0.00    +0.000 OA
ATOM     15  N   UNL     1      -9.980  54.222  52.135  0.00  0.00    +0.000 N 
ATOM     16  H   UNL     1     -12.199  55.279  52.178  0.00  0.00    +0.000 HD
ATOM     17  H   UNL     1     -10.472  54.134  52.984  0.00  0.00    +0.000 HD
BRANCH  12  18
ATOM     18  S   UNL     1     -12.695  56.220  50.127  0.00  0.00    +0.000 S 
ATOM     19  O   UNL     1     -13.519  55.296  49.387  0.00  0.00    +0.000 OA
ATOM     20  O   UNL     1     -11.736  57.065  49.438  0.00  0.00    +0.000 OA
BRANCH  18  21
ATOM     21  C   UNL     1     -13.747  57.298  51.081  0.00  0.00    +0.000 A 
ATOM     22  C   UNL     1     -13.988  57.029  52.433  0.00  0.00    +0.000 A 
ATOM     23  C   UNL     1     -14.238  58.472  50.499  0.00  0.00    +0.000 A 
ATOM     24  C   UNL     1     -14.752  57.917  53.189  0.00  0.00    +0.000 A 
ATOM     25  C   UNL     1     -15.003  59.355  51.261  0.00  0.00    +0.000 A 
ATOM     26  C   UNL     1     -15.260  59.080  52.603  0.00  0.00    +0.000 A 
ENDBRANCH  18  21
ENDBRANCH  12  18
ENDBRANCH   1  15
BRANCH   3  27
ATOM     27  C   UNL     1      -7.200  55.467  52.725  0.00  0.00    +0.000 C 
ATOM     28  O   UNL     1      -6.943  56.481  52.086  0.00  0.00    +0.000 OA
BRANCH  27  29
ATOM     29  O   UNL     1      -7.286  55.410  54.081  0.00  0.00    +0.000 OA
BRANCH  29  30
ATOM     30  C   UNL     1      -6.332  54.591  54.762  0.00  0.00    +0.000 C 
ATOM     31  C   UNL     1      -4.942  55.157  54.560  0.00  0.00    +0.000 C 
ENDBRANCH  29  30
ENDBRANCH  27  29
ENDBRANCH   3  27
TORSDOF 6
ENDMDL
