MODEL 1
REMARK VINA RESULT:      -7.9      0.000      0.000
REMARK  Name = 
REMARK  9 active torsions:
REMARK  status: ('A' for Active; 'I' for Inactive)
REMARK    1  A    between atoms: S_1  and  N_4
REMARK    2  A    between atoms: S_1  and  C_5
REMARK    3  A    between atoms: N_10  and  C_13
REMARK    4  A    between atoms: C_16  and  C_19
REMARK    5  A    between atoms: C_19  and  O_23
REMARK    6  A    between atoms: O_23  and  C_26
REMARK    7  A    between atoms: C_24  and  C_27
REMARK    8  A    between atoms: C_24  and  C_28
REMARK    9  A    between atoms: C_26  and  C_29
REMARK                            x       y       z     vdW  Elec       q    Type
REMARK                         _______ _______ _______ _____ _____    ______ ____
ROOT
ATOM      1  C   UNL     1     -10.963  54.398  51.630  0.00  0.00    +0.000 A 
ATOM      2  S   UNL     1     -10.515  53.766  53.142  0.00  0.00    +0.000 S 
ATOM      3  C   UNL     1      -9.895  54.882  50.897  0.00  0.00    +0.000 A 
ATOM      4  C   UNL     1      -8.858  53.875  52.746  0.00  0.00    +0.000 A 
ATOM      5  C   UNL     1      -8.653  54.486  51.519  0.00  0.00    +0.000 A 
ATOM      6  C   UNL     1      -7.767  53.355  53.650  0.00  0.00    +0.000 C 
ATOM      7  C   UNL     1      -7.272  54.740  50.986  0.00  0.00    +0.000 C 
ATOM      8  C   UNL     1      -6.389  53.988  53.285  0.00  0.00    +0.000 C 
ATOM      9  C   UNL     1      -6.199  53.961  51.747  0.00  0.00    +0.000 C 
ATOM     10  C   UNL     1      -5.236  53.183  53.913  0.00  0.00    +0.000 C 
ATOM     11  C   UNL     1      -6.309  55.431  53.823  0.00  0.00    +0.000 C 
ENDROOT
BRANCH   1  15
ATOM     12  N   UNL     1     -14.429  55.218  51.198  0.00  0.00    +0.000 N 
ATOM     13  C   UNL     1     -13.120  55.378  51.610  0.00  0.00    +0.000 C 
ATOM     14  O   UNL     1     -12.718  56.424  52.100  0.00  0.00    +0.000 OA
ATOM     15  N   UNL     1     -12.307  54.295  51.321  0.00  0.00    +0.000 N 
ATOM     16  H   UNL     1     -14.687  54.353  50.805  0.00  0.00    +0.000 HD
ATOM     17  H   UNL     1     -12.674  53.480  50.909  0.00  0.00    +0.000 HD
BRANCH  12  18
ATOM     18  S   UNL     1     -15.603  56.402  51.325  0.00  0.00    +0.000 S 
ATOM     19  O   UNL     1     -15.784  56.800  52.704  0.00  0.00    +0.000 OA
ATOM     20  O   UNL     1     -16.727  55.899  50.556  0.00  0.00    +0.000 OA
BRANCH  18  21
ATOM     21  C   UNL     1     -14.914  57.770  50.416  0.00  0.00    +0.000 A 
ATOM     22  C   UNL     1     -14.328  57.555  49.164  0.00  0.00    +0.000 A 
ATOM     23  C   UNL     1     -15.043  59.069  50.917  0.00  0.00    +0.000 A 
ATOM     24  C   UNL     1     -13.847  58.639  48.425  0.00  0.00    +0.000 A 
ATOM     25  C   UNL     1     -14.558  60.150  50.176  0.00  0.00    +0.000 A 
ATOM     26  C   UNL     1     -13.960  59.936  48.933  0.00  0.00    +0.000 A 
ENDBRANCH  18  21
ENDBRANCH  12  18
ENDBRANCH   1  15
BRANCH   3  27
ATOM     27  C   UNL     1     -10.064  55.663  49.668  0.00  0.00    +0.000 C 
ATOM     28  O   UNL     1      -9.663  56.815  49.547  0.00  0.00    +0.000 OA
BRANCH  27  29
ATOM     29  O   UNL     1     -10.704  54.962  48.695  0.00  0.00    +0.000 OA
BRANCH  29  30
ATOM     30  C   UNL     1     -10.518  55.396  47.345  0.00  0.00    +0.000 C 
ATOM     31  C   UNL     1     -11.862  55.725  46.729  0.00  0.00    +0.000 C 
ENDBRANCH  29  30
ENDBRANCH  27  29
ENDBRANCH   3  27
TORSDOF 6
ENDMDL
MODEL 2
REMARK VINA RESULT:      -7.4      2.628      7.708
REMARK  Name = 
REMARK  9 active torsions:
REMARK  status: ('A' for Active; 'I' for Inactive)
REMARK    1  A    between atoms: S_1  and  N_4
REMARK    2  A    between atoms: S_1  and  C_5
REMARK    3  A    between atoms: N_10  and  C_13
REMARK    4  A    between atoms: C_16  and  C_19
REMARK    5  A    between atoms: C_19  and  O_23
REMARK    6  A    between atoms: O_23  and  C_26
REMARK    7  A    between atoms: C_24  and  C_27
REMARK    8  A    between atoms: C_24  and  C_28
REMARK    9  A    between atoms: C_26  and  C_29
REMARK                            x       y       z     vdW  Elec       q    Type
REMARK                         _______ _______ _______ _____ _____    ______ ____
ROOT
ATOM      1  C   UNL     1     -11.145  54.764  49.987  0.00  0.00    +0.000 A 
ATOM      2  S   UNL     1     -11.792  54.768  51.558  0.00  0.00    +0.000 S 
ATOM      3  C   UNL     1     -11.763  55.659  49.134  0.00  0.00    +0.000 A 
ATOM      4  C   UNL     1     -12.731  56.152  51.215  0.00  0.00    +0.000 A 
ATOM      5  C   UNL     1     -12.630  56.536  49.887  0.00  0.00    +0.000 A 
ATOM      6  C   UNL     1     -13.564  56.853  52.260  0.00  0.00    +0.000 C 
ATOM      7  C   UNL     1     -13.411  57.696  49.340  0.00  0.00    +0.000 C 
ATOM      8  C   UNL     1     -14.649  57.756  51.597  0.00  0.00    +0.000 C 
ATOM      9  C   UNL     1     -14.010  58.570  50.443  0.00  0.00    +0.000 C 
ATOM     10  C   UNL     1     -15.219  58.760  52.617  0.00  0.00    +0.000 C 
ATOM     11  C   UNL     1     -15.816  56.891  51.079  0.00  0.00    +0.000 C 
ENDROOT
BRANCH   1  15
ATOM     12  N   UNL     1      -7.805  53.451  49.971  0.00  0.00    +0.000 N 
ATOM     13  C   UNL     1      -8.809  54.388  50.124  0.00  0.00    +0.000 C 
ATOM     14  O   UNL     1      -8.596  55.497  50.596  0.00  0.00    +0.000 OA
ATOM     15  N   UNL     1     -10.068  53.917  49.793  0.00  0.00    +0.000 N 
ATOM     16  H   UNL     1      -8.045  52.576  49.590  0.00  0.00    +0.000 HD
ATOM     17  H   UNL     1     -10.193  53.010  49.432  0.00  0.00    +0.000 HD
BRANCH  12  18
ATOM     18  S   UNL     1      -6.208  53.712  50.392  0.00  0.00    +0.000 S 
ATOM     19  O   UNL     1      -5.760  55.007  49.928  0.00  0.00    +0.000 OA
ATOM     20  O   UNL     1      -5.512  52.507  49.981  0.00  0.00    +0.000 OA
BRANCH  18  21
ATOM     21  C   UNL     1      -6.243  53.719  52.172  0.00  0.00    +0.000 A 
ATOM     22  C   UNL     1      -6.346  52.513  52.876  0.00  0.00    +0.000 A 
ATOM     23  C   UNL     1      -6.074  54.923  52.863  0.00  0.00    +0.000 A 
ATOM     24  C   UNL     1      -6.307  52.518  54.272  0.00  0.00    +0.000 A 
ATOM     25  C   UNL     1      -6.039  54.922  54.261  0.00  0.00    +0.000 A 
ATOM     26  C   UNL     1      -6.157  53.722  54.964  0.00  0.00    +0.000 A 
ENDBRANCH  18  21
ENDBRANCH  12  18
ENDBRANCH   1  15
BRANCH   3  27
ATOM     27  C   UNL     1     -11.522  55.675  47.689  0.00  0.00    +0.000 C 
ATOM     28  O   UNL     1     -12.424  55.673  46.859  0.00  0.00    +0.000 OA
BRANCH  27  29
ATOM     29  O   UNL     1     -10.195  55.698  47.388  0.00  0.00    +0.000 OA
BRANCH  29  30
ATOM     30  C   UNL     1      -9.739  54.799  46.373  0.00  0.00    +0.000 C 
ATOM     31  C   UNL     1      -8.234  54.911  46.237  0.00  0.00    +0.000 C 
ENDBRANCH  29  30
ENDBRANCH  27  29
ENDBRANCH   3  27
TORSDOF 6
ENDMDL
MODEL 3
REMARK VINA RESULT:      -7.3      3.691      5.964
REMARK  Name = 
REMARK  9 active torsions:
REMARK  status: ('A' for Active; 'I' for Inactive)
REMARK    1  A    between atoms: S_1  and  N_4
REMARK    2  A    between atoms: S_1  and  C_5
REMARK    3  A    between atoms: N_10  and  C_13
REMARK    4  A    between atoms: C_16  and  C_19
REMARK    5  A    between atoms: C_19  and  O_23
REMARK    6  A    between atoms: O_23  and  C_26
REMARK    7  A    between atoms: C_24  and  C_27
REMARK    8  A    between atoms: C_24  and  C_28
REMARK    9  A    between atoms: C_26  and  C_29
REMARK                            x       y       z     vdW  Elec       q    Type
REMARK                         _______ _______ _______ _____ _____    ______ ____
ROOT
ATOM      1  C   UNL     1     -11.117  53.239  47.569  0.00  0.00    +0.000 A 
ATOM      2  S   UNL     1     -12.078  52.415  46.436  0.00  0.00    +0.000 S 
ATOM      3  C   UNL     1      -9.759  53.114  47.336  0.00  0.00    +0.000 A 
ATOM      4  C   UNL     1     -10.721  52.095  45.452  0.00  0.00    +0.000 A 
ATOM      5  C   UNL     1      -9.538  52.519  46.037  0.00  0.00    +0.000 A 
ATOM      6  C   UNL     1     -10.830  51.427  44.103  0.00  0.00    +0.000 C 
ATOM      7  C   UNL     1      -8.207  52.295  45.379  0.00  0.00    +0.000 C 
ATOM      8  C   UNL     1      -9.453  50.847  43.652  0.00  0.00    +0.000 C 
ATOM      9  C   UNL     1      -8.342  51.896  43.909  0.00  0.00    +0.000 C 
ATOM     10  C   UNL     1      -9.462  50.533  42.145  0.00  0.00    +0.000 C 
ATOM     11  C   UNL     1      -9.157  49.536  44.409  0.00  0.00    +0.000 C 
ENDROOT
BRANCH   1  15
ATOM     12  N   UNL     1     -12.876  55.893  49.223  0.00  0.00    +0.000 N 
ATOM     13  C   UNL     1     -12.114  55.278  48.248  0.00  0.00    +0.000 C 
ATOM     14  O   UNL     1     -11.821  55.842  47.203  0.00  0.00    +0.000 OA
ATOM     15  N   UNL     1     -11.813  53.956  48.526  0.00  0.00    +0.000 N 
ATOM     16  H   UNL     1     -13.081  55.382  50.039  0.00  0.00    +0.000 HD
ATOM     17  H   UNL     1     -12.086  53.539  49.375  0.00  0.00    +0.000 HD
BRANCH  12  18
ATOM     18  S   UNL     1     -13.470  57.452  49.104  0.00  0.00    +0.000 S 
ATOM     19  O   UNL     1     -14.456  57.546  48.051  0.00  0.00    +0.000 OA
ATOM     20  O   UNL     1     -12.292  58.300  49.082  0.00  0.00    +0.000 OA
BRANCH  18  21
ATOM     21  C   UNL     1     -14.275  57.711  50.672  0.00  0.00    +0.000 A 
ATOM     22  C   UNL     1     -14.832  56.626  51.360  0.00  0.00    +0.000 A 
ATOM     23  C   UNL     1     -14.267  58.982  51.252  0.00  0.00    +0.000 A 
ATOM     24  C   UNL     1     -15.405  56.823  52.619  0.00  0.00    +0.000 A 
ATOM     25  C   UNL     1     -14.844  59.174  52.511  0.00  0.00    +0.000 A 
ATOM     26  C   UNL     1     -15.413  58.097  53.192  0.00  0.00    +0.000 A 
ENDBRANCH  18  21
ENDBRANCH  12  18
ENDBRANCH   1  15
BRANCH   3  27
ATOM     27  C   UNL     1      -8.744  53.553  48.296  0.00  0.00    +0.000 C 
ATOM     28  O   UNL     1      -8.133  52.780  49.025  0.00  0.00    +0.000 OA
BRANCH  27  29
ATOM     29  O   UNL     1      -8.563  54.901  48.275  0.00  0.00    +0.000 OA
BRANCH  29  30
ATOM     30  C   UNL     1      -8.246  55.538  49.516  0.00  0.00    +0.000 C 
ATOM     31  C   UNL     1      -9.052  56.814  49.650  0.00  0.00    +0.000 C 
ENDBRANCH  29  30
ENDBRANCH  27  29
ENDBRANCH   3  27
TORSDOF 6
ENDMDL
MODEL 4
REMARK VINA RESULT:      -7.2      3.824      7.484
REMARK  Name = 
REMARK  9 active torsions:
REMARK  status: ('A' for Active; 'I' for Inactive)
REMARK    1  A    between atoms: S_1  and  N_4
REMARK    2  A    between atoms: S_1  and  C_5
REMARK    3  A    between atoms: N_10  and  C_13
REMARK    4  A    between atoms: C_16  and  C_19
REMARK    5  A    between atoms: C_19  and  O_23
REMARK    6  A    between atoms: O_23  and  C_26
REMARK    7  A    between atoms: C_24  and  C_27
REMARK    8  A    between atoms: C_24  and  C_28
REMARK    9  A    between atoms: C_26  and  C_29
REMARK                            x       y       z     vdW  Elec       q    Type
REMARK                         _______ _______ _______ _____ _____    ______ ____
ROOT
ATOM      1  C   UNL     1     -11.312  54.689  49.876  0.00  0.00    +0.000 A 
ATOM      2  S   UNL     1     -11.981  54.634  51.436  0.00  0.00    +0.000 S 
ATOM      3  C   UNL     1     -11.851  55.682  49.079  0.00  0.00    +0.000 A 
ATOM      4  C   UNL     1     -12.814  56.102  51.179  0.00  0.00    +0.000 A 
ATOM      5  C   UNL     1     -12.665  56.567  49.882  0.00  0.00    +0.000 A 
ATOM      6  C   UNL     1     -13.610  56.790  52.261  0.00  0.00    +0.000 C 
ATOM      7  C   UNL     1     -13.352  57.815  49.407  0.00  0.00    +0.000 C 
ATOM      8  C   UNL     1     -14.617  57.812  51.650  0.00  0.00    +0.000 C 
ATOM      9  C   UNL     1     -13.903  58.653  50.561  0.00  0.00    +0.000 C 
ATOM     10  C   UNL     1     -15.129  58.783  52.729  0.00  0.00    +0.000 C 
ATOM     11  C   UNL     1     -15.835  57.071  51.061  0.00  0.00    +0.000 C 
ENDROOT
BRANCH   1  15
ATOM     12  N   UNL     1      -9.518  51.831  48.653  0.00  0.00    +0.000 N 
ATOM     13  C   UNL     1     -10.607  52.642  48.911  0.00  0.00    +0.000 C 
ATOM     14  O   UNL     1     -11.716  52.403  48.454  0.00  0.00    +0.000 OA
ATOM     15  N   UNL     1     -10.296  53.781  49.636  0.00  0.00    +0.000 N 
ATOM     16  H   UNL     1      -8.652  52.083  49.047  0.00  0.00    +0.000 HD
ATOM     17  H   UNL     1      -9.384  53.939  49.968  0.00  0.00    +0.000 HD
BRANCH  12  18
ATOM     18  S   UNL     1      -9.581  50.448  47.716  0.00  0.00    +0.000 S 
ATOM     19  O   UNL     1     -10.820  49.736  47.934  0.00  0.00    +0.000 OA
ATOM     20  O   UNL     1      -8.308  49.788  47.938  0.00  0.00    +0.000 OA
BRANCH  18  21
ATOM     21  C   UNL     1      -9.564  51.075  46.048  0.00  0.00    +0.000 A 
ATOM     22  C   UNL     1      -8.347  51.256  45.381  0.00  0.00    +0.000 A 
ATOM     23  C   UNL     1     -10.772  51.298  45.380  0.00  0.00    +0.000 A 
ATOM     24  C   UNL     1      -8.341  51.686  44.051  0.00  0.00    +0.000 A 
ATOM     25  C   UNL     1     -10.760  51.730  44.051  0.00  0.00    +0.000 A 
ATOM     26  C   UNL     1      -9.548  51.925  43.389  0.00  0.00    +0.000 A 
ENDBRANCH  18  21
ENDBRANCH  12  18
ENDBRANCH   1  15
BRANCH   3  27
ATOM     27  C   UNL     1     -11.586  55.778  47.641  0.00  0.00    +0.000 C 
ATOM     28  O   UNL     1     -12.474  55.882  46.802  0.00  0.00    +0.000 OA
BRANCH  27  29
ATOM     29  O   UNL     1     -10.256  55.745  47.358  0.00  0.00    +0.000 OA
BRANCH  29  30
ATOM     30  C   UNL     1      -9.841  54.922  46.265  0.00  0.00    +0.000 C 
ATOM     31  C   UNL     1      -8.329  54.821  46.254  0.00  0.00    +0.000 C 
ENDBRANCH  29  30
ENDBRANCH  27  29
ENDBRANCH   3  27
TORSDOF 6
ENDMDL
MODEL 5
REMARK VINA RESULT:      -7.1      2.345      2.834
REMARK  Name = 
REMARK  9 active torsions:
REMARK  status: ('A' for Active; 'I' for Inactive)
REMARK    1  A    between atoms: S_1  and  N_4
REMARK    2  A    between atoms: S_1  and  C_5
REMARK    3  A    between atoms: N_10  and  C_13
REMARK    4  A    between atoms: C_16  and  C_19
REMARK    5  A    between atoms: C_19  and  O_23
REMARK    6  A    between atoms: O_23  and  C_26
REMARK    7  A    between atoms: C_24  and  C_27
REMARK    8  A    between atoms: C_24  and  C_28
REMARK    9  A    between atoms: C_26  and  C_29
REMARK                            x       y       z     vdW  Elec       q    Type
REMARK                         _______ _______ _______ _____ _____    ______ ____
ROOT
ATOM      1  C   UNL     1     -11.469  53.335  50.194  0.00  0.00    +0.000 A 
ATOM      2  S   UNL     1     -10.629  52.336  51.280  0.00  0.00    +0.000 S 
ATOM      3  C   UNL     1     -10.798  53.542  49.002  0.00  0.00    +0.000 A 
ATOM      4  C   UNL     1      -9.475  51.935  50.088  0.00  0.00    +0.000 A 
ATOM      5  C   UNL     1      -9.672  52.641  48.911  0.00  0.00    +0.000 A 
ATOM      6  C   UNL     1      -8.380  50.923  50.319  0.00  0.00    +0.000 C 
ATOM      7  C   UNL     1      -8.747  52.493  47.738  0.00  0.00    +0.000 C 
ATOM      8  C   UNL     1      -7.229  51.097  49.281  0.00  0.00    +0.000 C 
ATOM      9  C   UNL     1      -7.834  51.272  47.865  0.00  0.00    +0.000 C 
ATOM     10  C   UNL     1      -6.328  49.848  49.253  0.00  0.00    +0.000 C 
ATOM     11  C   UNL     1      -6.351  52.308  49.658  0.00  0.00    +0.000 C 
ENDROOT
BRANCH   1  15
ATOM     12  N   UNL     1     -14.099  55.377  51.532  0.00  0.00    +0.000 N 
ATOM     13  C   UNL     1     -12.808  55.007  51.207  0.00  0.00    +0.000 C 
ATOM     14  O   UNL     1     -11.860  55.768  51.350  0.00  0.00    +0.000 OA
ATOM     15  N   UNL     1     -12.716  53.757  50.621  0.00  0.00    +0.000 N 
ATOM     16  H   UNL     1     -14.818  54.720  51.388  0.00  0.00    +0.000 HD
ATOM     17  H   UNL     1     -13.511  53.187  50.511  0.00  0.00    +0.000 HD
BRANCH  12  18
ATOM     18  S   UNL     1     -14.517  56.871  52.157  0.00  0.00    +0.000 S 
ATOM     19  O   UNL     1     -13.602  57.263  53.206  0.00  0.00    +0.000 OA
ATOM     20  O   UNL     1     -15.941  56.779  52.425  0.00  0.00    +0.000 OA
BRANCH  18  21
ATOM     21  C   UNL     1     -14.312  57.973  50.773  0.00  0.00    +0.000 A 
ATOM     22  C   UNL     1     -14.242  57.458  49.473  0.00  0.00    +0.000 A 
ATOM     23  C   UNL     1     -14.313  59.355  50.983  0.00  0.00    +0.000 A 
ATOM     24  C   UNL     1     -14.146  58.330  48.385  0.00  0.00    +0.000 A 
ATOM     25  C   UNL     1     -14.214  60.223  49.891  0.00  0.00    +0.000 A 
ATOM     26  C   UNL     1     -14.130  59.711  48.595  0.00  0.00    +0.000 A 
ENDBRANCH  18  21
ENDBRANCH  12  18
ENDBRANCH   1  15
BRANCH   3  27
ATOM     27  C   UNL     1     -11.225  54.533  48.011  0.00  0.00    +0.000 C 
ATOM     28  O   UNL     1     -10.969  55.728  48.107  0.00  0.00    +0.000 OA
BRANCH  27  29
ATOM     29  O   UNL     1     -11.924  53.972  46.988  0.00  0.00    +0.000 OA
BRANCH  29  30
ATOM     30  C   UNL     1     -11.541  54.335  45.659  0.00  0.00    +0.000 C 
ATOM     31  C   UNL     1     -11.418  53.086  44.809  0.00  0.00    +0.000 C 
ENDBRANCH  29  30
ENDBRANCH  27  29
ENDBRANCH   3  27
TORSDOF 6
ENDMDL
MODEL 6
REMARK VINA RESULT:      -7.0      4.038      7.572
REMARK  Name = 
REMARK  9 active torsions:
REMARK  status: ('A' for Active; 'I' for Inactive)
REMARK    1  A    between atoms: S_1  and  N_4
REMARK    2  A    between atoms: S_1  and  C_5
REMARK    3  A    between atoms: N_10  and  C_13
REMARK    4  A    between atoms: C_16  and  C_19
REMARK    5  A    between atoms: C_19  and  O_23
REMARK    6  A    between atoms: O_23  and  C_26
REMARK    7  A    between atoms: C_24  and  C_27
REMARK    8  A    between atoms: C_24  and  C_28
REMARK    9  A    between atoms: C_26  and  C_29
REMARK                            x       y       z     vdW  Elec       q    Type
REMARK                         _______ _______ _______ _____ _____    ______ ____
ROOT
ATOM      1  C   UNL     1      -8.753  54.996  47.177  0.00  0.00    +0.000 A 
ATOM      2  S   UNL     1      -7.509  54.252  46.291  0.00  0.00    +0.000 S 
ATOM      3  C   UNL     1     -10.019  54.687  46.716  0.00  0.00    +0.000 A 
ATOM      4  C   UNL     1      -8.631  53.288  45.440  0.00  0.00    +0.000 A 
ATOM      5  C   UNL     1      -9.942  53.610  45.755  0.00  0.00    +0.000 A 
ATOM      6  C   UNL     1      -8.212  52.215  44.465  0.00  0.00    +0.000 C 
ATOM      7  C   UNL     1     -11.104  52.930  45.089  0.00  0.00    +0.000 C 
ATOM      8  C   UNL     1      -9.388  51.834  43.512  0.00  0.00    +0.000 C 
ATOM      9  C   UNL     1     -10.688  51.664  44.339  0.00  0.00    +0.000 C 
ATOM     10  C   UNL     1      -9.104  50.496  42.806  0.00  0.00    +0.000 C 
ATOM     11  C   UNL     1      -9.564  52.917  42.428  0.00  0.00    +0.000 C 
ENDROOT
BRANCH   1  15
ATOM     12  N   UNL     1      -7.614  55.920  50.452  0.00  0.00    +0.000 N 
ATOM     13  C   UNL     1      -8.098  55.098  49.452  0.00  0.00    +0.000 C 
ATOM     14  O   UNL     1      -8.210  53.889  49.604  0.00  0.00    +0.000 OA
ATOM     15  N   UNL     1      -8.338  55.755  48.257  0.00  0.00    +0.000 N 
ATOM     16  H   UNL     1      -7.544  56.883  50.264  0.00  0.00    +0.000 HD
ATOM     17  H   UNL     1      -8.217  56.728  48.178  0.00  0.00    +0.000 HD
BRANCH  12  18
ATOM     18  S   UNL     1      -7.142  55.380  51.963  0.00  0.00    +0.000 S 
ATOM     19  O   UNL     1      -6.950  56.492  52.868  0.00  0.00    +0.000 OA
ATOM     20  O   UNL     1      -6.059  54.450  51.706  0.00  0.00    +0.000 OA
BRANCH  18  21
ATOM     21  C   UNL     1      -8.539  54.423  52.517  0.00  0.00    +0.000 A 
ATOM     22  C   UNL     1      -9.829  54.962  52.448  0.00  0.00    +0.000 A 
ATOM     23  C   UNL     1      -8.351  53.102  52.934  0.00  0.00    +0.000 A 
ATOM     24  C   UNL     1     -10.928  54.185  52.822  0.00  0.00    +0.000 A 
ATOM     25  C   UNL     1      -9.453  52.329  53.310  0.00  0.00    +0.000 A 
ATOM     26  C   UNL     1     -10.739  52.870  53.255  0.00  0.00    +0.000 A 
ENDBRANCH  18  21
ENDBRANCH  12  18
ENDBRANCH   1  15
BRANCH   3  27
ATOM     27  C   UNL     1     -11.225  55.377  47.183  0.00  0.00    +0.000 C 
ATOM     28  O   UNL     1     -11.936  56.053  46.448  0.00  0.00    +0.000 OA
BRANCH  27  29
ATOM     29  O   UNL     1     -11.456  55.172  48.507  0.00  0.00    +0.000 OA
BRANCH  29  30
ATOM     30  C   UNL     1     -12.391  54.147  48.857  0.00  0.00    +0.000 C 
ATOM     31  C   UNL     1     -11.645  52.952  49.416  0.00  0.00    +0.000 C 
ENDBRANCH  29  30
ENDBRANCH  27  29
ENDBRANCH   3  27
TORSDOF 6
ENDMDL
MODEL 7
REMARK VINA RESULT:      -7.0      2.310      3.818
REMARK  Name = 
REMARK  9 active torsions:
REMARK  status: ('A' for Active; 'I' for Inactive)
REMARK    1  A    between atoms: S_1  and  N_4
REMARK    2  A    between atoms: S_1  and  C_5
REMARK    3  A    between atoms: N_10  and  C_13
REMARK    4  A    between atoms: C_16  and  C_19
REMARK    5  A    between atoms: C_19  and  O_23
REMARK    6  A    between atoms: O_23  and  C_26
REMARK    7  A    between atoms: C_24  and  C_27
REMARK    8  A    between atoms: C_24  and  C_28
REMARK    9  A    between atoms: C_26  and  C_29
REMARK                            x       y       z     vdW  Elec       q    Type
REMARK                         _______ _______ _______ _____ _____    ______ ____
ROOT
ATOM      1  C   UNL     1     -11.238  53.534  50.474  0.00  0.00    +0.000 A 
ATOM      2  S   UNL     1     -10.932  53.572  48.803  0.00  0.00    +0.000 S 
ATOM      3  C   UNL     1     -10.124  53.220  51.231  0.00  0.00    +0.000 A 
ATOM      4  C   UNL     1      -9.250  53.437  49.063  0.00  0.00    +0.000 A 
ATOM      5  C   UNL     1      -8.941  53.257  50.402  0.00  0.00    +0.000 A 
ATOM      6  C   UNL     1      -8.242  53.511  47.942  0.00  0.00    +0.000 C 
ATOM      7  C   UNL     1      -7.526  53.059  50.865  0.00  0.00    +0.000 C 
ATOM      8  C   UNL     1      -6.874  52.902  48.379  0.00  0.00    +0.000 C 
ATOM      9  C   UNL     1      -6.503  53.426  49.789  0.00  0.00    +0.000 C 
ATOM     10  C   UNL     1      -5.755  53.329  47.412  0.00  0.00    +0.000 C 
ATOM     11  C   UNL     1      -6.950  51.362  48.367  0.00  0.00    +0.000 C 
ENDROOT
BRANCH   1  15
ATOM     12  N   UNL     1     -14.065  55.410  51.640  0.00  0.00    +0.000 N 
ATOM     13  C   UNL     1     -12.739  55.135  51.367  0.00  0.00    +0.000 C 
ATOM     14  O   UNL     1     -11.862  55.978  51.495  0.00  0.00    +0.000 OA
ATOM     15  N   UNL     1     -12.527  53.869  50.848  0.00  0.00    +0.000 N 
ATOM     16  H   UNL     1     -14.722  54.689  51.511  0.00  0.00    +0.000 HD
ATOM     17  H   UNL     1     -13.268  53.229  50.747  0.00  0.00    +0.000 HD
BRANCH  12  18
ATOM     18  S   UNL     1     -14.623  56.892  52.178  0.00  0.00    +0.000 S 
ATOM     19  O   UNL     1     -13.774  57.411  53.227  0.00  0.00    +0.000 OA
ATOM     20  O   UNL     1     -16.041  56.693  52.416  0.00  0.00    +0.000 OA
BRANCH  18  21
ATOM     21  C   UNL     1     -14.472  57.938  50.744  0.00  0.00    +0.000 A 
ATOM     22  C   UNL     1     -14.410  59.328  50.895  0.00  0.00    +0.000 A 
ATOM     23  C   UNL     1     -14.324  57.361  49.479  0.00  0.00    +0.000 A 
ATOM     24  C   UNL     1     -14.226  60.142  49.774  0.00  0.00    +0.000 A 
ATOM     25  C   UNL     1     -14.142  58.180  48.360  0.00  0.00    +0.000 A 
ATOM     26  C   UNL     1     -14.095  59.567  48.508  0.00  0.00    +0.000 A 
ENDBRANCH  18  21
ENDBRANCH  12  18
ENDBRANCH   1  15
BRANCH   3  27
ATOM     27  C   UNL     1     -10.196  52.918  52.663  0.00  0.00    +0.000 C 
ATOM     28  O   UNL     1     -11.088  52.240  53.161  0.00  0.00    +0.000 OA
BRANCH  27  29
ATOM     29  O   UNL     1      -9.166  53.470  53.359  0.00  0.00    +0.000 OA
BRANCH  29  30
ATOM     30  C   UNL     1      -9.247  54.869  53.648  0.00  0.00    +0.000 C 
ATOM     31  C   UNL     1      -7.873  55.389  54.019  0.00  0.00    +0.000 C 
ENDBRANCH  29  30
ENDBRANCH  27  29
ENDBRANCH   3  27
TORSDOF 6
ENDMDL
MODEL 8
REMARK VINA RESULT:      -6.8      1.867      2.691
REMARK  Name = 
REMARK  9 active torsions:
REMARK  status: ('A' for Active; 'I' for Inactive)
REMARK    1  A    between atoms: S_1  and  N_4
REMARK    2  A    between atoms: S_1  and  C_5
REMARK    3  A    between atoms: N_10  and  C_13
REMARK    4  A    between atoms: C_16  and  C_19
REMARK    5  A    between atoms: C_19  and  O_23
REMARK    6  A    between atoms: O_23  and  C_26
REMARK    7  A    between atoms: C_24  and  C_27
REMARK    8  A    between atoms: C_24  and  C_28
REMARK    9  A    between atoms: C_26  and  C_29
REMARK                            x       y       z     vdW  Elec       q    Type
REMARK                         _______ _______ _______ _____ _____    ______ ____
ROOT
ATOM      1  C   UNL     1     -10.685  54.028  50.578  0.00  0.00    +0.000 A 
ATOM      2  S   UNL     1      -9.752  54.920  51.682  0.00  0.00    +0.000 S 
ATOM      3  C   UNL     1      -9.931  53.378  49.618  0.00  0.00    +0.000 A 
ATOM      4  C   UNL     1      -8.307  54.246  51.073  0.00  0.00    +0.000 A 
ATOM      5  C   UNL     1      -8.531  53.435  49.972  0.00  0.00    +0.000 A 
ATOM      6  C   UNL     1      -6.955  54.521  51.686  0.00  0.00    +0.000 C 
ATOM      7  C   UNL     1      -7.402  52.776  49.234  0.00  0.00    +0.000 C 
ATOM      8  C   UNL     1      -5.807  54.183  50.686  0.00  0.00    +0.000 C 
ATOM      9  C   UNL     1      -6.090  52.812  50.019  0.00  0.00    +0.000 C 
ATOM     10  C   UNL     1      -4.458  54.075  51.421  0.00  0.00    +0.000 C 
ATOM     11  C   UNL     1      -5.682  55.295  49.625  0.00  0.00    +0.000 C 
ENDROOT
BRANCH   1  15
ATOM     12  N   UNL     1     -14.140  54.996  50.581  0.00  0.00    +0.000 N 
ATOM     13  C   UNL     1     -12.780  55.114  50.366  0.00  0.00    +0.000 C 
ATOM     14  O   UNL     1     -12.300  56.056  49.751  0.00  0.00    +0.000 OA
ATOM     15  N   UNL     1     -12.047  54.030  50.818  0.00  0.00    +0.000 N 
ATOM     16  H   UNL     1     -14.462  54.210  51.078  0.00  0.00    +0.000 HD
ATOM     17  H   UNL     1     -12.481  53.285  51.293  0.00  0.00    +0.000 HD
BRANCH  12  18
ATOM     18  S   UNL     1     -15.273  56.105  50.049  0.00  0.00    +0.000 S 
ATOM     19  O   UNL     1     -16.597  55.524  50.044  0.00  0.00    +0.000 OA
ATOM     20  O   UNL     1     -14.712  56.657  48.829  0.00  0.00    +0.000 OA
BRANCH  18  21
ATOM     21  C   UNL     1     -15.211  57.387  51.283  0.00  0.00    +0.000 A 
ATOM     22  C   UNL     1     -15.063  58.725  50.897  0.00  0.00    +0.000 A 
ATOM     23  C   UNL     1     -15.402  57.062  52.630  0.00  0.00    +0.000 A 
ATOM     24  C   UNL     1     -15.081  59.733  51.864  0.00  0.00    +0.000 A 
ATOM     25  C   UNL     1     -15.415  58.074  53.593  0.00  0.00    +0.000 A 
ATOM     26  C   UNL     1     -15.254  59.407  53.212  0.00  0.00    +0.000 A 
ENDBRANCH  18  21
ENDBRANCH  12  18
ENDBRANCH   1  15
BRANCH   3  27
ATOM     27  C   UNL     1     -10.526  52.732  48.444  0.00  0.00    +0.000 C 
ATOM     28  O   UNL     1     -10.527  51.517  48.278  0.00  0.00    +0.000 OA
BRANCH  27  29
ATOM     29  O   UNL     1     -11.071  53.630  47.582  0.00  0.00    +0.000 OA
BRANCH  29  30
ATOM     30  C   UNL     1     -10.295  53.991  46.436  0.00  0.00    +0.000 C 
ATOM     31  C   UNL     1      -9.552  55.282  46.715  0.00  0.00    +0.000 C 
ENDBRANCH  29  30
ENDBRANCH  27  29
ENDBRANCH   3  27
TORSDOF 6
ENDMDL
MODEL 9
REMARK VINA RESULT:      -6.8      3.883      8.206
REMARK  Name = 
REMARK  9 active torsions:
REMARK  status: ('A' for Active; 'I' for Inactive)
REMARK    1  A    between atoms: S_1  and  N_4
REMARK    2  A    between atoms: S_1  and  C_5
REMARK    3  A    between atoms: N_10  and  C_13
REMARK    4  A    between atoms: C_16  and  C_19
REMARK    5  A    between atoms: C_19  and  O_23
REMARK    6  A    between atoms: O_23  and  C_26
REMARK    7  A    between atoms: C_24  and  C_27
REMARK    8  A    between atoms: C_24  and  C_28
REMARK    9  A    between atoms: C_26  and  C_29
REMARK                            x       y       z     vdW  Elec       q    Type
REMARK                         _______ _______ _______ _____ _____    ______ ____
ROOT
ATOM      1  C   UNL     1      -8.734  54.952  47.216  0.00  0.00    +0.000 A 
ATOM      2  S   UNL     1      -7.510  54.133  46.369  0.00  0.00    +0.000 S 
ATOM      3  C   UNL     1     -10.002  54.716  46.717  0.00  0.00    +0.000 A 
ATOM      4  C   UNL     1      -8.661  53.233  45.487  0.00  0.00    +0.000 A 
ATOM      5  C   UNL     1      -9.960  53.633  45.762  0.00  0.00    +0.000 A 
ATOM      6  C   UNL     1      -8.277  52.134  44.526  0.00  0.00    +0.000 C 
ATOM      7  C   UNL     1     -11.139  53.020  45.063  0.00  0.00    +0.000 C 
ATOM      8  C   UNL     1      -9.444  51.820  43.540  0.00  0.00    +0.000 C 
ATOM      9  C   UNL     1     -10.776  51.729  44.327  0.00  0.00    +0.000 C 
ATOM     10  C   UNL     1      -9.219  50.465  42.844  0.00  0.00    +0.000 C 
ATOM     11  C   UNL     1      -9.524  52.907  42.448  0.00  0.00    +0.000 C 
ENDROOT
BRANCH   1  15
ATOM     12  N   UNL     1      -7.789  55.850  50.559  0.00  0.00    +0.000 N 
ATOM     13  C   UNL     1      -8.302  55.067  49.543  0.00  0.00    +0.000 C 
ATOM     14  O   UNL     1      -8.631  53.902  49.725  0.00  0.00    +0.000 OA
ATOM     15  N   UNL     1      -8.307  55.689  48.306  0.00  0.00    +0.000 N 
ATOM     16  H   UNL     1      -7.539  56.778  50.345  0.00  0.00    +0.000 HD
ATOM     17  H   UNL     1      -8.016  56.624  48.206  0.00  0.00    +0.000 HD
BRANCH  12  18
ATOM     18  S   UNL     1      -7.569  55.322  52.130  0.00  0.00    +0.000 S 
ATOM     19  O   UNL     1      -8.759  54.662  52.621  0.00  0.00    +0.000 OA
ATOM     20  O   UNL     1      -7.023  56.466  52.837  0.00  0.00    +0.000 OA
BRANCH  18  21
ATOM     21  C   UNL     1      -6.262  54.120  51.985  0.00  0.00    +0.000 A 
ATOM     22  C   UNL     1      -6.395  52.866  52.592  0.00  0.00    +0.000 A 
ATOM     23  C   UNL     1      -5.148  54.402  51.190  0.00  0.00    +0.000 A 
ATOM     24  C   UNL     1      -5.397  51.903  52.422  0.00  0.00    +0.000 A 
ATOM     25  C   UNL     1      -4.151  53.436  51.025  0.00  0.00    +0.000 A 
ATOM     26  C   UNL     1      -4.275  52.190  51.641  0.00  0.00    +0.000 A 
ENDBRANCH  18  21
ENDBRANCH  12  18
ENDBRANCH   1  15
BRANCH   3  27
ATOM     27  C   UNL     1     -11.178  55.477  47.147  0.00  0.00    +0.000 C 
ATOM     28  O   UNL     1     -11.892  56.100  46.370  0.00  0.00    +0.000 OA
BRANCH  27  29
ATOM     29  O   UNL     1     -11.379  55.401  48.490  0.00  0.00    +0.000 OA
BRANCH  29  30
ATOM     30  C   UNL     1     -12.516  54.658  48.940  0.00  0.00    +0.000 C 
ATOM     31  C   UNL     1     -12.109  53.223  49.203  0.00  0.00    +0.000 C 
ENDBRANCH  29  30
ENDBRANCH  27  29
ENDBRANCH   3  27
TORSDOF 6
ENDMDL
