MODEL 1
REMARK VINA RESULT:      -8.1      0.000      0.000
REMARK  Name = 
REMARK  10 active torsions:
REMARK  status: ('A' for Active; 'I' for Inactive)
REMARK    1  A    between atoms: S_1  and  N_4
REMARK    2  A    between atoms: S_1  and  C_5
REMARK    3  A    between atoms: N_8  and  C_13
REMARK    4  A    between atoms: N_10  and  C_14
REMARK    5  A    between atoms: C_16  and  C_19
REMARK    6  A    between atoms: C_19  and  O_23
REMARK    7  A    between atoms: O_23  and  C_26
REMARK    8  A    between atoms: C_24  and  C_27
REMARK    9  A    between atoms: C_24  and  C_28
REMARK   10  A    between atoms: C_26  and  C_29
REMARK                            x       y       z     vdW  Elec       q    Type
REMARK                         _______ _______ _______ _____ _____    ______ ____
ROOT
ATOM      1  C   UNL     1     -10.960  54.268  51.653  0.00  0.00    +0.000 A 
ATOM      2  S   UNL     1     -10.468  53.659  53.166  0.00  0.00    +0.000 S 
ATOM      3  C   UNL     1      -9.916  54.806  50.928  0.00  0.00    +0.000 A 
ATOM      4  C   UNL     1      -8.810  53.868  52.783  0.00  0.00    +0.000 A 
ATOM      5  C   UNL     1      -8.651  54.468  51.547  0.00  0.00    +0.000 A 
ATOM      6  C   UNL     1      -7.661  53.460  53.696  0.00  0.00    +0.000 C 
ATOM      7  C   UNL     1      -7.295  54.800  50.997  0.00  0.00    +0.000 C 
ATOM      8  C   UNL     1      -6.327  54.178  53.279  0.00  0.00    +0.000 C 
ATOM      9  C   UNL     1      -6.171  54.099  51.742  0.00  0.00    +0.000 C 
ATOM     10  C   UNL     1      -5.081  53.499  53.878  0.00  0.00    +0.000 C 
ATOM     11  C   UNL     1      -6.340  55.643  53.763  0.00  0.00    +0.000 C 
ENDROOT
BRANCH   1  15
ATOM     12  N   UNL     1     -14.425  55.205  51.172  0.00  0.00    +0.000 N 
ATOM     13  C   UNL     1     -13.087  55.340  51.526  0.00  0.00    +0.000 C 
ATOM     14  O   UNL     1     -12.644  56.419  51.922  0.00  0.00    +0.000 OA
ATOM     15  N   UNL     1     -12.315  54.207  51.345  0.00  0.00    +0.000 N 
ATOM     16  H   UNL     1     -14.766  54.340  50.845  0.00  0.00    +0.000 HD
ATOM     17  H   UNL     1     -12.716  53.375  51.005  0.00  0.00    +0.000 HD
BRANCH  12  18
ATOM     18  S   UNL     1     -15.466  56.535  51.305  0.00  0.00    +0.000 S 
ATOM     19  O   UNL     1     -15.591  56.831  52.707  0.00  0.00    +0.000 OA
ATOM     20  O   UNL     1     -16.657  56.203  50.547  0.00  0.00    +0.000 OA
BRANCH  18  21
ATOM     21  C   UNL     1     -14.813  57.997  50.502  0.00  0.00    +0.000 A 
ATOM     22  N   UNL     1     -14.789  59.187  51.104  0.00  0.00    +0.000 NA
ATOM     23  N   UNL     1     -14.245  58.105  49.249  0.00  0.00    +0.000 N 
ATOM     24  C   UNL     1     -14.218  60.057  50.219  0.00  0.00    +0.000 A 
ATOM     25  C   UNL     1     -13.880  59.416  49.060  0.00  0.00    +0.000 A 
ATOM     26  C   UNL     1     -14.016  57.108  48.227  0.00  0.00    +0.000 C 
ENDBRANCH  18  21
ENDBRANCH  12  18
ENDBRANCH   1  15
BRANCH   3  27
ATOM     27  C   UNL     1     -10.098  55.629  49.736  0.00  0.00    +0.000 C 
ATOM     28  O   UNL     1      -9.718  56.792  49.627  0.00  0.00    +0.000 OA
BRANCH  27  29
ATOM     29  O   UNL     1     -10.721  54.940  48.744  0.00  0.00    +0.000 OA
BRANCH  29  30
ATOM     30  C   UNL     1     -10.388  55.278  47.403  0.00  0.00    +0.000 C 
ATOM     31  C   UNL     1     -11.537  54.902  46.500  0.00  0.00    +0.000 C 
ENDBRANCH  29  30
ENDBRANCH  27  29
ENDBRANCH   3  27
TORSDOF 6
ENDMDL
MODEL 2
REMARK VINA RESULT:      -7.4      3.117      7.638
REMARK  Name = 
REMARK  10 active torsions:
REMARK  status: ('A' for Active; 'I' for Inactive)
REMARK    1  A    between atoms: S_1  and  N_4
REMARK    2  A    between atoms: S_1  and  C_5
REMARK    3  A    between atoms: N_8  and  C_13
REMARK    4  A    between atoms: N_10  and  C_14
REMARK    5  A    between atoms: C_16  and  C_19
REMARK    6  A    between atoms: C_19  and  O_23
REMARK    7  A    between atoms: O_23  and  C_26
REMARK    8  A    between atoms: C_24  and  C_27
REMARK    9  A    between atoms: C_24  and  C_28
REMARK   10  A    between atoms: C_26  and  C_29
REMARK                            x       y       z     vdW  Elec       q    Type
REMARK                         _______ _______ _______ _____ _____    ______ ____
ROOT
ATOM      1  C   UNL     1     -10.954  54.775  50.357  0.00  0.00    +0.000 A 
ATOM      2  S   UNL     1     -11.661  54.836  51.906  0.00  0.00    +0.000 S 
ATOM      3  C   UNL     1     -11.560  55.629  49.458  0.00  0.00    +0.000 A 
ATOM      4  C   UNL     1     -12.627  56.187  51.481  0.00  0.00    +0.000 A 
ATOM      5  C   UNL     1     -12.460  56.528  50.151  0.00  0.00    +0.000 A 
ATOM      6  C   UNL     1     -13.562  56.909  52.443  0.00  0.00    +0.000 C 
ATOM      7  C   UNL     1     -13.227  57.653  49.519  0.00  0.00    +0.000 C 
ATOM      8  C   UNL     1     -14.612  57.780  51.663  0.00  0.00    +0.000 C 
ATOM      9  C   UNL     1     -13.886  58.562  50.543  0.00  0.00    +0.000 C 
ATOM     10  C   UNL     1     -15.287  58.833  52.562  0.00  0.00    +0.000 C 
ATOM     11  C   UNL     1     -15.723  56.878  51.084  0.00  0.00    +0.000 C 
ENDROOT
BRANCH   1  15
ATOM     12  N   UNL     1      -7.672  53.245  50.378  0.00  0.00    +0.000 N 
ATOM     13  C   UNL     1      -8.648  54.213  50.589  0.00  0.00    +0.000 C 
ATOM     14  O   UNL     1      -8.377  55.267  51.166  0.00  0.00    +0.000 OA
ATOM     15  N   UNL     1      -9.916  53.870  50.159  0.00  0.00    +0.000 N 
ATOM     16  H   UNL     1      -7.901  52.401  49.926  0.00  0.00    +0.000 HD
ATOM     17  H   UNL     1     -10.081  53.004  49.722  0.00  0.00    +0.000 HD
BRANCH  12  18
ATOM     18  S   UNL     1      -6.085  53.527  50.901  0.00  0.00    +0.000 S 
ATOM     19  O   UNL     1      -5.628  54.717  50.235  0.00  0.00    +0.000 OA
ATOM     20  O   UNL     1      -5.359  52.287  50.702  0.00  0.00    +0.000 OA
BRANCH  18  21
ATOM     21  C   UNL     1      -5.989  53.828  52.665  0.00  0.00    +0.000 A 
ATOM     22  N   UNL     1      -5.312  54.857  53.174  0.00  0.00    +0.000 NA
ATOM     23  N   UNL     1      -6.585  53.118  53.688  0.00  0.00    +0.000 N 
ATOM     24  C   UNL     1      -5.466  54.789  54.529  0.00  0.00    +0.000 A 
ATOM     25  C   UNL     1      -6.240  53.717  54.875  0.00  0.00    +0.000 A 
ATOM     26  C   UNL     1      -7.433  51.947  53.657  0.00  0.00    +0.000 C 
ENDBRANCH  18  21
ENDBRANCH  12  18
ENDBRANCH   1  15
BRANCH   3  27
ATOM     27  C   UNL     1     -11.335  55.579  48.017  0.00  0.00    +0.000 C 
ATOM     28  O   UNL     1     -12.217  55.407  47.180  0.00  0.00    +0.000 OA
BRANCH  27  29
ATOM     29  O   UNL     1     -10.026  55.773  47.708  0.00  0.00    +0.000 OA
BRANCH  29  30
ATOM     30  C   UNL     1      -9.460  54.940  46.704  0.00  0.00    +0.000 C 
ATOM     31  C   UNL     1      -7.970  54.844  46.925  0.00  0.00    +0.000 C 
ENDBRANCH  29  30
ENDBRANCH  27  29
ENDBRANCH   3  27
TORSDOF 6
ENDMDL
MODEL 3
REMARK VINA RESULT:      -7.0      2.300      4.762
REMARK  Name = 
REMARK  10 active torsions:
REMARK  status: ('A' for Active; 'I' for Inactive)
REMARK    1  A    between atoms: S_1  and  N_4
REMARK    2  A    between atoms: S_1  and  C_5
REMARK    3  A    between atoms: N_8  and  C_13
REMARK    4  A    between atoms: N_10  and  C_14
REMARK    5  A    between atoms: C_16  and  C_19
REMARK    6  A    between atoms: C_19  and  O_23
REMARK    7  A    between atoms: O_23  and  C_26
REMARK    8  A    between atoms: C_24  and  C_27
REMARK    9  A    between atoms: C_24  and  C_28
REMARK   10  A    between atoms: C_26  and  C_29
REMARK                            x       y       z     vdW  Elec       q    Type
REMARK                         _______ _______ _______ _____ _____    ______ ____
ROOT
ATOM      1  C   UNL     1     -11.487  53.936  48.952  0.00  0.00    +0.000 A 
ATOM      2  S   UNL     1     -11.963  52.877  47.706  0.00  0.00    +0.000 S 
ATOM      3  C   UNL     1     -10.234  54.477  48.745  0.00  0.00    +0.000 A 
ATOM      4  C   UNL     1     -10.618  53.311  46.736  0.00  0.00    +0.000 A 
ATOM      5  C   UNL     1      -9.784  54.193  47.398  0.00  0.00    +0.000 A 
ATOM      6  C   UNL     1     -10.366  52.778  45.331  0.00  0.00    +0.000 C 
ATOM      7  C   UNL     1      -8.511  54.695  46.780  0.00  0.00    +0.000 C 
ATOM      8  C   UNL     1      -8.870  52.997  44.904  0.00  0.00    +0.000 C 
ATOM      9  C   UNL     1      -8.441  54.434  45.285  0.00  0.00    +0.000 C 
ATOM     10  C   UNL     1      -8.667  52.872  43.383  0.00  0.00    +0.000 C 
ATOM     11  C   UNL     1      -7.966  51.947  45.585  0.00  0.00    +0.000 C 
ENDROOT
BRANCH   1  15
ATOM     12  N   UNL     1     -14.119  55.209  51.089  0.00  0.00    +0.000 N 
ATOM     13  C   UNL     1     -13.271  55.132  49.989  0.00  0.00    +0.000 C 
ATOM     14  O   UNL     1     -13.388  55.914  49.045  0.00  0.00    +0.000 OA
ATOM     15  N   UNL     1     -12.356  54.096  50.027  0.00  0.00    +0.000 N 
ATOM     16  H   UNL     1     -14.025  54.571  51.833  0.00  0.00    +0.000 HD
ATOM     17  H   UNL     1     -12.319  53.486  50.798  0.00  0.00    +0.000 HD
BRANCH  12  18
ATOM     18  S   UNL     1     -15.316  56.407  51.141  0.00  0.00    +0.000 S 
ATOM     19  O   UNL     1     -15.705  56.551  52.519  0.00  0.00    +0.000 OA
ATOM     20  O   UNL     1     -16.319  56.031  50.164  0.00  0.00    +0.000 OA
BRANCH  18  21
ATOM     21  C   UNL     1     -14.716  57.999  50.582  0.00  0.00    +0.000 A 
ATOM     22  N   UNL     1     -14.669  58.326  49.290  0.00  0.00    +0.000 NA
ATOM     23  N   UNL     1     -14.277  59.065  51.342  0.00  0.00    +0.000 N 
ATOM     24  C   UNL     1     -14.181  59.601  49.231  0.00  0.00    +0.000 A 
ATOM     25  C   UNL     1     -13.922  60.078  50.485  0.00  0.00    +0.000 A 
ATOM     26  C   UNL     1     -14.161  59.218  52.775  0.00  0.00    +0.000 C 
ENDBRANCH  18  21
ENDBRANCH  12  18
ENDBRANCH   1  15
BRANCH   3  27
ATOM     27  C   UNL     1      -9.481  55.190  49.772  0.00  0.00    +0.000 C 
ATOM     28  O   UNL     1      -9.132  56.364  49.691  0.00  0.00    +0.000 OA
BRANCH  27  29
ATOM     29  O   UNL     1      -9.231  54.398  50.848  0.00  0.00    +0.000 OA
BRANCH  29  30
ATOM     30  C   UNL     1      -9.111  55.034  52.115  0.00  0.00    +0.000 C 
ATOM     31  C   UNL     1     -10.443  54.979  52.822  0.00  0.00    +0.000 C 
ENDBRANCH  29  30
ENDBRANCH  27  29
ENDBRANCH   3  27
TORSDOF 6
ENDMDL
MODEL 4
REMARK VINA RESULT:      -7.0      3.990      7.527
REMARK  Name = 
REMARK  10 active torsions:
REMARK  status: ('A' for Active; 'I' for Inactive)
REMARK    1  A    between atoms: S_1  and  N_4
REMARK    2  A    between atoms: S_1  and  C_5
REMARK    3  A    between atoms: N_8  and  C_13
REMARK    4  A    between atoms: N_10  and  C_14
REMARK    5  A    between atoms: C_16  and  C_19
REMARK    6  A    between atoms: C_19  and  O_23
REMARK    7  A    between atoms: O_23  and  C_26
REMARK    8  A    between atoms: C_24  and  C_27
REMARK    9  A    between atoms: C_24  and  C_28
REMARK   10  A    between atoms: C_26  and  C_29
REMARK                            x       y       z     vdW  Elec       q    Type
REMARK                         _______ _______ _______ _____ _____    ______ ____
ROOT
ATOM      1  C   UNL     1      -8.676  54.786  47.293  0.00  0.00    +0.000 A 
ATOM      2  S   UNL     1      -7.460  54.012  46.384  0.00  0.00    +0.000 S 
ATOM      3  C   UNL     1      -9.945  54.530  46.815  0.00  0.00    +0.000 A 
ATOM      4  C   UNL     1      -8.613  53.114  45.487  0.00  0.00    +0.000 A 
ATOM      5  C   UNL     1      -9.905  53.467  45.833  0.00  0.00    +0.000 A 
ATOM      6  C   UNL     1      -8.258  52.073  44.433  0.00  0.00    +0.000 C 
ATOM      7  C   UNL     1     -11.100  52.855  45.161  0.00  0.00    +0.000 C 
ATOM      8  C   UNL     1      -9.486  51.773  43.500  0.00  0.00    +0.000 C 
ATOM      9  C   UNL     1     -10.753  51.603  44.372  0.00  0.00    +0.000 C 
ATOM     10  C   UNL     1      -9.321  50.459  42.713  0.00  0.00    +0.000 C 
ATOM     11  C   UNL     1      -9.664  52.913  42.475  0.00  0.00    +0.000 C 
ENDROOT
BRANCH   1  15
ATOM     12  N   UNL     1      -7.603  55.896  50.568  0.00  0.00    +0.000 N 
ATOM     13  C   UNL     1      -8.028  55.019  49.576  0.00  0.00    +0.000 C 
ATOM     14  O   UNL     1      -8.119  53.811  49.798  0.00  0.00    +0.000 OA
ATOM     15  N   UNL     1      -8.272  55.600  48.345  0.00  0.00    +0.000 N 
ATOM     16  H   UNL     1      -7.522  56.859  50.377  0.00  0.00    +0.000 HD
ATOM     17  H   UNL     1      -8.162  56.570  48.217  0.00  0.00    +0.000 HD
BRANCH  12  18
ATOM     18  S   UNL     1      -7.227  55.300  52.109  0.00  0.00    +0.000 S 
ATOM     19  O   UNL     1      -7.217  56.427  53.003  0.00  0.00    +0.000 OA
ATOM     20  O   UNL     1      -6.021  54.509  51.962  0.00  0.00    +0.000 OA
BRANCH  18  21
ATOM     21  C   UNL     1      -8.455  54.144  52.714  0.00  0.00    +0.000 A 
ATOM     22  N   UNL     1      -8.119  52.999  53.309  0.00  0.00    +0.000 NA
ATOM     23  N   UNL     1      -9.830  54.265  52.693  0.00  0.00    +0.000 N 
ATOM     24  C   UNL     1      -9.290  52.384  53.651  0.00  0.00    +0.000 A 
ATOM     25  C   UNL     1     -10.363  53.141  53.273  0.00  0.00    +0.000 A 
ATOM     26  C   UNL     1     -10.677  55.322  52.185  0.00  0.00    +0.000 C 
ENDBRANCH  18  21
ENDBRANCH  12  18
ENDBRANCH   1  15
BRANCH   3  27
ATOM     27  C   UNL     1     -11.131  55.273  47.231  0.00  0.00    +0.000 C 
ATOM     28  O   UNL     1     -11.811  55.974  46.487  0.00  0.00    +0.000 OA
BRANCH  27  29
ATOM     29  O   UNL     1     -11.410  55.073  48.547  0.00  0.00    +0.000 OA
BRANCH  29  30
ATOM     30  C   UNL     1     -12.365  54.069  48.868  0.00  0.00    +0.000 C 
ATOM     31  C   UNL     1     -11.659  52.910  49.529  0.00  0.00    +0.000 C 
ENDBRANCH  29  30
ENDBRANCH  27  29
ENDBRANCH   3  27
TORSDOF 6
ENDMDL
MODEL 5
REMARK VINA RESULT:      -6.8      1.943      2.391
REMARK  Name = 
REMARK  10 active torsions:
REMARK  status: ('A' for Active; 'I' for Inactive)
REMARK    1  A    between atoms: S_1  and  N_4
REMARK    2  A    between atoms: S_1  and  C_5
REMARK    3  A    between atoms: N_8  and  C_13
REMARK    4  A    between atoms: N_10  and  C_14
REMARK    5  A    between atoms: C_16  and  C_19
REMARK    6  A    between atoms: C_19  and  O_23
REMARK    7  A    between atoms: O_23  and  C_26
REMARK    8  A    between atoms: C_24  and  C_27
REMARK    9  A    between atoms: C_24  and  C_28
REMARK   10  A    between atoms: C_26  and  C_29
REMARK                            x       y       z     vdW  Elec       q    Type
REMARK                         _______ _______ _______ _____ _____    ______ ____
ROOT
ATOM      1  C   UNL     1     -11.119  53.555  50.440  0.00  0.00    +0.000 A 
ATOM      2  S   UNL     1     -10.092  53.028  51.694  0.00  0.00    +0.000 S 
ATOM      3  C   UNL     1     -10.468  53.671  49.229  0.00  0.00    +0.000 A 
ATOM      4  C   UNL     1      -8.816  52.700  50.597  0.00  0.00    +0.000 A 
ATOM      5  C   UNL     1      -9.155  53.064  49.307  0.00  0.00    +0.000 A 
ATOM      6  C   UNL     1      -7.475  52.098  50.997  0.00  0.00    +0.000 C 
ATOM      7  C   UNL     1      -8.193  52.917  48.164  0.00  0.00    +0.000 C 
ATOM      8  C   UNL     1      -6.393  52.340  49.883  0.00  0.00    +0.000 C 
ATOM      9  C   UNL     1      -7.012  52.023  48.501  0.00  0.00    +0.000 C 
ATOM     10  C   UNL     1      -5.173  51.413  50.037  0.00  0.00    +0.000 C 
ATOM     11  C   UNL     1      -5.885  53.796  49.947  0.00  0.00    +0.000 C 
ENDROOT
BRANCH   1  15
ATOM     12  N   UNL     1     -14.083  55.341  51.505  0.00  0.00    +0.000 N 
ATOM     13  C   UNL     1     -12.740  55.120  51.221  0.00  0.00    +0.000 C 
ATOM     14  O   UNL     1     -11.914  56.028  51.325  0.00  0.00    +0.000 OA
ATOM     15  N   UNL     1     -12.438  53.849  50.770  0.00  0.00    +0.000 N 
ATOM     16  H   UNL     1     -14.737  54.611  51.407  0.00  0.00    +0.000 HD
ATOM     17  H   UNL     1     -13.141  53.165  50.685  0.00  0.00    +0.000 HD
BRANCH  12  18
ATOM     18  S   UNL     1     -14.589  56.873  52.022  0.00  0.00    +0.000 S 
ATOM     19  O   UNL     1     -13.806  57.204  53.183  0.00  0.00    +0.000 OA
ATOM     20  O   UNL     1     -16.033  56.811  52.143  0.00  0.00    +0.000 OA
BRANCH  18  21
ATOM     21  C   UNL     1     -14.293  58.143  50.794  0.00  0.00    +0.000 A 
ATOM     22  N   UNL     1     -14.048  59.410  51.127  0.00  0.00    +0.000 NA
ATOM     23  N   UNL     1     -14.241  58.010  49.421  0.00  0.00    +0.000 N 
ATOM     24  C   UNL     1     -13.856  60.088  49.957  0.00  0.00    +0.000 A 
ATOM     25  C   UNL     1     -13.979  59.248  48.885  0.00  0.00    +0.000 A 
ATOM     26  C   UNL     1     -14.411  56.848  48.577  0.00  0.00    +0.000 C 
ENDBRANCH  18  21
ENDBRANCH  12  18
ENDBRANCH   1  15
BRANCH   3  27
ATOM     27  C   UNL     1     -11.034  54.352  48.068  0.00  0.00    +0.000 C 
ATOM     28  O   UNL     1     -11.279  55.554  48.016  0.00  0.00    +0.000 OA
BRANCH  27  29
ATOM     29  O   UNL     1     -11.234  53.493  47.034  0.00  0.00    +0.000 OA
BRANCH  29  30
ATOM     30  C   UNL     1     -12.217  52.479  47.207  0.00  0.00    +0.000 C 
ATOM     31  C   UNL     1     -11.734  51.207  46.555  0.00  0.00    +0.000 C 
ENDBRANCH  29  30
ENDBRANCH  27  29
ENDBRANCH   3  27
TORSDOF 6
ENDMDL
MODEL 6
REMARK VINA RESULT:      -6.7      4.079      7.372
REMARK  Name = 
REMARK  10 active torsions:
REMARK  status: ('A' for Active; 'I' for Inactive)
REMARK    1  A    between atoms: S_1  and  N_4
REMARK    2  A    between atoms: S_1  and  C_5
REMARK    3  A    between atoms: N_8  and  C_13
REMARK    4  A    between atoms: N_10  and  C_14
REMARK    5  A    between atoms: C_16  and  C_19
REMARK    6  A    between atoms: C_19  and  O_23
REMARK    7  A    between atoms: O_23  and  C_26
REMARK    8  A    between atoms: C_24  and  C_27
REMARK    9  A    between atoms: C_24  and  C_28
REMARK   10  A    between atoms: C_26  and  C_29
REMARK                            x       y       z     vdW  Elec       q    Type
REMARK                         _______ _______ _______ _____ _____    ______ ____
ROOT
ATOM      1  C   UNL     1     -11.073  54.737  50.041  0.00  0.00    +0.000 A 
ATOM      2  S   UNL     1     -11.708  54.741  51.622  0.00  0.00    +0.000 S 
ATOM      3  C   UNL     1     -11.689  55.655  49.215  0.00  0.00    +0.000 A 
ATOM      4  C   UNL     1     -12.646  56.142  51.310  0.00  0.00    +0.000 A 
ATOM      5  C   UNL     1     -12.526  56.544  49.993  0.00  0.00    +0.000 A 
ATOM      6  C   UNL     1     -13.512  56.842  52.349  0.00  0.00    +0.000 C 
ATOM      7  C   UNL     1     -13.282  57.724  49.454  0.00  0.00    +0.000 C 
ATOM      8  C   UNL     1     -14.565  57.785  51.663  0.00  0.00    +0.000 C 
ATOM      9  C   UNL     1     -13.864  58.600  50.551  0.00  0.00    +0.000 C 
ATOM     10  C   UNL     1     -15.163  58.812  52.643  0.00  0.00    +0.000 C 
ATOM     11  C   UNL     1     -15.731  56.949  51.092  0.00  0.00    +0.000 C 
ENDROOT
BRANCH   1  15
ATOM     12  N   UNL     1      -9.394  51.700  49.007  0.00  0.00    +0.000 N 
ATOM     13  C   UNL     1     -10.448  52.558  49.299  0.00  0.00    +0.000 C 
ATOM     14  O   UNL     1     -11.615  52.213  49.109  0.00  0.00    +0.000 OA
ATOM     15  N   UNL     1     -10.076  53.811  49.751  0.00  0.00    +0.000 N 
ATOM     16  H   UNL     1      -8.464  51.990  49.151  0.00  0.00    +0.000 HD
ATOM     17  H   UNL     1      -9.126  54.043  49.865  0.00  0.00    +0.000 HD
BRANCH  12  18
ATOM     18  S   UNL     1      -9.717  50.151  48.402  0.00  0.00    +0.000 S 
ATOM     19  O   UNL     1     -10.651  49.534  49.306  0.00  0.00    +0.000 OA
ATOM     20  O   UNL     1      -8.431  49.518  48.180  0.00  0.00    +0.000 OA
BRANCH  18  21
ATOM     21  C   UNL     1     -10.483  50.194  46.784  0.00  0.00    +0.000 A 
ATOM     22  N   UNL     1     -11.711  49.723  46.566  0.00  0.00    +0.000 NA
ATOM     23  N   UNL     1      -9.976  50.714  45.610  0.00  0.00    +0.000 N 
ATOM     24  C   UNL     1     -11.977  49.930  45.243  0.00  0.00    +0.000 A 
ATOM     25  C   UNL     1     -10.917  50.533  44.625  0.00  0.00    +0.000 A 
ATOM     26  C   UNL     1      -8.711  51.355  45.329  0.00  0.00    +0.000 C 
ENDBRANCH  18  21
ENDBRANCH  12  18
ENDBRANCH   1  15
BRANCH   3  27
ATOM     27  C   UNL     1     -11.531  55.672  47.763  0.00  0.00    +0.000 C 
ATOM     28  O   UNL     1     -12.461  55.694  46.962  0.00  0.00    +0.000 OA
BRANCH  27  29
ATOM     29  O   UNL     1     -10.220  55.685  47.404  0.00  0.00    +0.000 OA
BRANCH  29  30
ATOM     30  C   UNL     1      -9.821  54.813  46.354  0.00  0.00    +0.000 C 
ATOM     31  C   UNL     1      -8.338  54.969  46.121  0.00  0.00    +0.000 C 
ENDBRANCH  29  30
ENDBRANCH  27  29
ENDBRANCH   3  27
TORSDOF 6
ENDMDL
MODEL 7
REMARK VINA RESULT:      -6.6      1.783      2.508
REMARK  Name = 
REMARK  10 active torsions:
REMARK  status: ('A' for Active; 'I' for Inactive)
REMARK    1  A    between atoms: S_1  and  N_4
REMARK    2  A    between atoms: S_1  and  C_5
REMARK    3  A    between atoms: N_8  and  C_13
REMARK    4  A    between atoms: N_10  and  C_14
REMARK    5  A    between atoms: C_16  and  C_19
REMARK    6  A    between atoms: C_19  and  O_23
REMARK    7  A    between atoms: O_23  and  C_26
REMARK    8  A    between atoms: C_24  and  C_27
REMARK    9  A    between atoms: C_24  and  C_28
REMARK   10  A    between atoms: C_26  and  C_29
REMARK                            x       y       z     vdW  Elec       q    Type
REMARK                         _______ _______ _______ _____ _____    ______ ____
ROOT
ATOM      1  C   UNL     1     -10.836  53.904  50.606  0.00  0.00    +0.000 A 
ATOM      2  S   UNL     1      -9.896  54.589  51.851  0.00  0.00    +0.000 S 
ATOM      3  C   UNL     1     -10.075  53.471  49.539  0.00  0.00    +0.000 A 
ATOM      4  C   UNL     1      -8.433  54.096  51.107  0.00  0.00    +0.000 A 
ATOM      5  C   UNL     1      -8.669  53.486  49.888  0.00  0.00    +0.000 A 
ATOM      6  C   UNL     1      -7.050  54.316  51.705  0.00  0.00    +0.000 C 
ATOM      7  C   UNL     1      -7.549  53.000  49.015  0.00  0.00    +0.000 C 
ATOM      8  C   UNL     1      -5.932  54.171  50.610  0.00  0.00    +0.000 C 
ATOM      9  C   UNL     1      -6.223  52.916  49.754  0.00  0.00    +0.000 C 
ATOM     10  C   UNL     1      -4.533  53.965  51.221  0.00  0.00    +0.000 C 
ATOM     11  C   UNL     1      -5.879  55.443  49.736  0.00  0.00    +0.000 C 
ENDROOT
BRANCH   1  15
ATOM     12  N   UNL     1     -14.297  54.966  50.662  0.00  0.00    +0.000 N 
ATOM     13  C   UNL     1     -12.919  55.059  50.498  0.00  0.00    +0.000 C 
ATOM     14  O   UNL     1     -12.400  56.098  50.089  0.00  0.00    +0.000 OA
ATOM     15  N   UNL     1     -12.217  53.900  50.771  0.00  0.00    +0.000 N 
ATOM     16  H   UNL     1     -14.702  54.126  50.978  0.00  0.00    +0.000 HD
ATOM     17  H   UNL     1     -12.684  53.089  51.075  0.00  0.00    +0.000 HD
BRANCH  12  18
ATOM     18  S   UNL     1     -15.274  56.305  50.315  0.00  0.00    +0.000 S 
ATOM     19  O   UNL     1     -16.625  55.823  50.210  0.00  0.00    +0.000 OA
ATOM     20  O   UNL     1     -14.674  56.969  49.174  0.00  0.00    +0.000 OA
BRANCH  18  21
ATOM     21  C   UNL     1     -15.241  57.533  51.620  0.00  0.00    +0.000 A 
ATOM     22  N   UNL     1     -15.421  57.212  52.901  0.00  0.00    +0.000 NA
ATOM     23  N   UNL     1     -15.007  58.889  51.514  0.00  0.00    +0.000 N 
ATOM     24  C   UNL     1     -15.317  58.376  53.609  0.00  0.00    +0.000 A 
ATOM     25  C   UNL     1     -15.071  59.430  52.775  0.00  0.00    +0.000 A 
ATOM     26  C   UNL     1     -14.734  59.713  50.357  0.00  0.00    +0.000 C 
ENDBRANCH  18  21
ENDBRANCH  12  18
ENDBRANCH   1  15
BRANCH   3  27
ATOM     27  C   UNL     1     -10.636  53.101  48.243  0.00  0.00    +0.000 C 
ATOM     28  O   UNL     1     -11.447  52.195  48.068  0.00  0.00    +0.000 OA
BRANCH  27  29
ATOM     29  O   UNL     1     -10.167  53.901  47.249  0.00  0.00    +0.000 OA
BRANCH  29  30
ATOM     30  C   UNL     1     -10.600  55.256  47.241  0.00  0.00    +0.000 C 
ATOM     31  C   UNL     1     -11.811  55.380  46.348  0.00  0.00    +0.000 C 
ENDBRANCH  29  30
ENDBRANCH  27  29
ENDBRANCH   3  27
TORSDOF 6
ENDMDL
MODEL 8
REMARK VINA RESULT:      -6.5      2.822      4.105
REMARK  Name = 
REMARK  10 active torsions:
REMARK  status: ('A' for Active; 'I' for Inactive)
REMARK    1  A    between atoms: S_1  and  N_4
REMARK    2  A    between atoms: S_1  and  C_5
REMARK    3  A    between atoms: N_8  and  C_13
REMARK    4  A    between atoms: N_10  and  C_14
REMARK    5  A    between atoms: C_16  and  C_19
REMARK    6  A    between atoms: C_19  and  O_23
REMARK    7  A    between atoms: O_23  and  C_26
REMARK    8  A    between atoms: C_24  and  C_27
REMARK    9  A    between atoms: C_24  and  C_28
REMARK   10  A    between atoms: C_26  and  C_29
REMARK                            x       y       z     vdW  Elec       q    Type
REMARK                         _______ _______ _______ _____ _____    ______ ____
ROOT
ATOM      1  C   UNL     1     -11.280  52.702  50.660  0.00  0.00    +0.000 A 
ATOM      2  S   UNL     1     -11.205  52.139  49.054  0.00  0.00    +0.000 S 
ATOM      3  C   UNL     1     -10.087  52.549  51.337  0.00  0.00    +0.000 A 
ATOM      4  C   UNL     1      -9.508  51.911  49.146  0.00  0.00    +0.000 A 
ATOM      5  C   UNL     1      -9.031  52.190  50.413  0.00  0.00    +0.000 A 
ATOM      6  C   UNL     1      -8.642  51.444  47.983  0.00  0.00    +0.000 C 
ATOM      7  C   UNL     1      -7.581  52.027  50.767  0.00  0.00    +0.000 C 
ATOM      8  C   UNL     1      -7.255  50.909  48.492  0.00  0.00    +0.000 C 
ATOM      9  C   UNL     1      -6.690  51.893  49.544  0.00  0.00    +0.000 C 
ATOM     10  C   UNL     1      -6.207  50.827  47.367  0.00  0.00    +0.000 C 
ATOM     11  C   UNL     1      -7.418  49.493  49.085  0.00  0.00    +0.000 C 
ENDROOT
BRANCH   1  15
ATOM     12  N   UNL     1     -13.973  54.960  51.534  0.00  0.00    +0.000 N 
ATOM     13  C   UNL     1     -12.720  54.555  51.088  0.00  0.00    +0.000 C 
ATOM     14  O   UNL     1     -11.907  55.375  50.660  0.00  0.00    +0.000 OA
ATOM     15  N   UNL     1     -12.501  53.190  51.114  0.00  0.00    +0.000 N 
ATOM     16  H   UNL     1     -14.620  54.294  51.864  0.00  0.00    +0.000 HD
ATOM     17  H   UNL     1     -13.195  52.576  51.448  0.00  0.00    +0.000 HD
BRANCH  12  18
ATOM     18  S   UNL     1     -14.381  56.604  51.509  0.00  0.00    +0.000 S 
ATOM     19  O   UNL     1     -13.435  57.284  52.352  0.00  0.00    +0.000 OA
ATOM     20  O   UNL     1     -15.793  56.683  51.830  0.00  0.00    +0.000 OA
BRANCH  18  21
ATOM     21  C   UNL     1     -14.251  57.316  49.871  0.00  0.00    +0.000 A 
ATOM     22  N   UNL     1     -14.295  56.570  48.766  0.00  0.00    +0.000 NA
ATOM     23  N   UNL     1     -14.130  58.646  49.522  0.00  0.00    +0.000 N 
ATOM     24  C   UNL     1     -14.184  57.432  47.712  0.00  0.00    +0.000 A 
ATOM     25  C   UNL     1     -14.072  58.721  48.152  0.00  0.00    +0.000 A 
ATOM     26  C   UNL     1     -14.066  59.835  50.342  0.00  0.00    +0.000 C 
ENDBRANCH  18  21
ENDBRANCH  12  18
ENDBRANCH   1  15
BRANCH   3  27
ATOM     27  C   UNL     1      -9.953  52.693  52.784  0.00  0.00    +0.000 C 
ATOM     28  O   UNL     1      -9.654  51.781  53.550  0.00  0.00    +0.000 OA
BRANCH  27  29
ATOM     29  O   UNL     1     -10.177  53.974  53.180  0.00  0.00    +0.000 OA
BRANCH  29  30
ATOM     30  C   UNL     1      -9.170  54.935  52.888  0.00  0.00    +0.000 C 
ATOM     31  C   UNL     1      -8.274  55.092  54.092  0.00  0.00    +0.000 C 
ENDBRANCH  29  30
ENDBRANCH  27  29
ENDBRANCH   3  27
TORSDOF 6
ENDMDL
MODEL 9
REMARK VINA RESULT:      -6.5      2.453      3.496
REMARK  Name = 
REMARK  10 active torsions:
REMARK  status: ('A' for Active; 'I' for Inactive)
REMARK    1  A    between atoms: S_1  and  N_4
REMARK    2  A    between atoms: S_1  and  C_5
REMARK    3  A    between atoms: N_8  and  C_13
REMARK    4  A    between atoms: N_10  and  C_14
REMARK    5  A    between atoms: C_16  and  C_19
REMARK    6  A    between atoms: C_19  and  O_23
REMARK    7  A    between atoms: O_23  and  C_26
REMARK    8  A    between atoms: C_24  and  C_27
REMARK    9  A    between atoms: C_24  and  C_28
REMARK   10  A    between atoms: C_26  and  C_29
REMARK                            x       y       z     vdW  Elec       q    Type
REMARK                         _______ _______ _______ _____ _____    ______ ____
ROOT
ATOM      1  C   UNL     1      -8.641  53.857  52.911  0.00  0.00    +0.000 A 
ATOM      2  S   UNL     1      -8.714  52.155  52.885  0.00  0.00    +0.000 S 
ATOM      3  C   UNL     1      -7.362  54.341  52.728  0.00  0.00    +0.000 A 
ATOM      4  C   UNL     1      -7.081  52.029  52.377  0.00  0.00    +0.000 A 
ATOM      5  C   UNL     1      -6.479  53.272  52.308  0.00  0.00    +0.000 A 
ATOM      6  C   UNL     1      -6.382  50.714  52.059  0.00  0.00    +0.000 C 
ATOM      7  C   UNL     1      -5.036  53.432  51.927  0.00  0.00    +0.000 C 
ATOM      8  C   UNL     1      -4.820  50.890  52.069  0.00  0.00    +0.000 C 
ATOM      9  C   UNL     1      -4.452  52.178  51.297  0.00  0.00    +0.000 C 
ATOM     10  C   UNL     1      -4.093  49.733  51.357  0.00  0.00    +0.000 C 
ATOM     11  C   UNL     1      -4.303  50.943  53.523  0.00  0.00    +0.000 C 
ENDROOT
BRANCH   1  15
ATOM     12  N   UNL     1     -11.790  55.573  52.406  0.00  0.00    +0.000 N 
ATOM     13  C   UNL     1     -10.613  54.908  52.078  0.00  0.00    +0.000 C 
ATOM     14  O   UNL     1     -10.350  54.632  50.907  0.00  0.00    +0.000 OA
ATOM     15  N   UNL     1      -9.824  54.548  53.154  0.00  0.00    +0.000 N 
ATOM     16  H   UNL     1     -11.997  55.779  53.347  0.00  0.00    +0.000 HD
ATOM     17  H   UNL     1     -10.093  54.776  54.073  0.00  0.00    +0.000 HD
BRANCH  12  18
ATOM     18  S   UNL     1     -12.866  56.028  51.179  0.00  0.00    +0.000 S 
ATOM     19  O   UNL     1     -13.736  54.906  50.947  0.00  0.00    +0.000 OA
ATOM     20  O   UNL     1     -12.056  56.527  50.084  0.00  0.00    +0.000 OA
BRANCH  18  21
ATOM     21  C   UNL     1     -13.894  57.417  51.650  0.00  0.00    +0.000 A 
ATOM     22  N   UNL     1     -14.382  57.554  52.883  0.00  0.00    +0.000 NA
ATOM     23  N   UNL     1     -14.280  58.496  50.880  0.00  0.00    +0.000 N 
ATOM     24  C   UNL     1     -15.096  58.718  52.890  0.00  0.00    +0.000 A 
ATOM     25  C   UNL     1     -15.058  59.316  51.661  0.00  0.00    +0.000 A 
ATOM     26  C   UNL     1     -13.994  58.824  49.502  0.00  0.00    +0.000 C 
ENDBRANCH  18  21
ENDBRANCH  12  18
ENDBRANCH   1  15
BRANCH   3  27
ATOM     27  C   UNL     1      -6.977  55.727  52.975  0.00  0.00    +0.000 C 
ATOM     28  O   UNL     1      -6.194  56.089  53.849  0.00  0.00    +0.000 OA
BRANCH  27  29
ATOM     29  O   UNL     1      -7.576  56.575  52.097  0.00  0.00    +0.000 OA
BRANCH  29  30
ATOM     30  C   UNL     1      -7.262  56.418  50.718  0.00  0.00    +0.000 C 
ATOM     31  C   UNL     1      -8.355  57.047  49.889  0.00  0.00    +0.000 C 
ENDBRANCH  29  30
ENDBRANCH  27  29
ENDBRANCH   3  27
TORSDOF 6
ENDMDL
