MODEL 1
REMARK VINA RESULT:      -7.9      0.000      0.000
REMARK  Name = 
REMARK  9 active torsions:
REMARK  status: ('A' for Active; 'I' for Inactive)
REMARK    1  A    between atoms: S_1  and  N_4
REMARK    2  A    between atoms: S_1  and  C_5
REMARK    3  A    between atoms: N_10  and  C_13
REMARK    4  A    between atoms: C_16  and  C_19
REMARK    5  A    between atoms: C_19  and  O_23
REMARK    6  A    between atoms: O_23  and  C_26
REMARK    7  A    between atoms: C_24  and  C_27
REMARK    8  A    between atoms: C_24  and  C_28
REMARK    9  A    between atoms: C_26  and  C_29
REMARK                            x       y       z     vdW  Elec       q    Type
REMARK                         _______ _______ _______ _____ _____    ______ ____
ROOT
ATOM      1  C   UNL     1     -11.026  54.324  51.570  0.00  0.00    +0.000 A 
ATOM      2  S   UNL     1     -10.570  53.766  53.111  0.00  0.00    +0.000 S 
ATOM      3  C   UNL     1      -9.961  54.802  50.830  0.00  0.00    +0.000 A 
ATOM      4  C   UNL     1      -8.907  53.920  52.736  0.00  0.00    +0.000 A 
ATOM      5  C   UNL     1      -8.711  54.472  51.480  0.00  0.00    +0.000 A 
ATOM      6  C   UNL     1      -7.793  53.515  53.681  0.00  0.00    +0.000 C 
ATOM      7  C   UNL     1      -7.344  54.778  50.947  0.00  0.00    +0.000 C 
ATOM      8  C   UNL     1      -6.437  54.192  53.284  0.00  0.00    +0.000 C 
ATOM      9  C   UNL     1      -6.243  54.082  51.749  0.00  0.00    +0.000 C 
ATOM     10  C   UNL     1      -5.236  53.490  53.950  0.00  0.00    +0.000 C 
ATOM     11  C   UNL     1      -6.425  55.665  53.743  0.00  0.00    +0.000 C 
ENDROOT
BRANCH   1  15
ATOM     12  N   UNL     1     -14.515  55.189  51.216  0.00  0.00    +0.000 N 
ATOM     13  C   UNL     1     -13.178  55.314  51.568  0.00  0.00    +0.000 C 
ATOM     14  O   UNL     1     -12.759  56.344  52.090  0.00  0.00    +0.000 OA
ATOM     15  N   UNL     1     -12.373  54.235  51.242  0.00  0.00    +0.000 N 
ATOM     16  H   UNL     1     -14.837  54.327  50.868  0.00  0.00    +0.000 HD
ATOM     17  H   UNL     1     -12.740  53.438  50.795  0.00  0.00    +0.000 HD
BRANCH  12  18
ATOM     18  S   UNL     1     -15.603  56.462  51.362  0.00  0.00    +0.000 S 
ATOM     19  O   UNL     1     -15.706  56.801  52.769  0.00  0.00    +0.000 OA
ATOM     20  O   UNL     1     -16.793  56.053  50.640  0.00  0.00    +0.000 OA
BRANCH  18  21
ATOM     21  C   UNL     1     -14.873  57.849  50.479  0.00  0.00    +0.000 A 
ATOM     22  N   UNL     1     -14.354  57.538  49.258  0.00  0.00    +0.000 NA
ATOM     23  C   UNL     1     -14.888  59.125  51.030  0.00  0.00    +0.000 A 
ATOM     24  C   UNL     1     -13.842  58.578  48.560  0.00  0.00    +0.000 A 
ATOM     25  C   UNL     1     -14.336  60.162  50.281  0.00  0.00    +0.000 A 
ATOM     26  C   UNL     1     -13.806  59.888  49.024  0.00  0.00    +0.000 A 
ENDBRANCH  18  21
ENDBRANCH  12  18
ENDBRANCH   1  15
BRANCH   3  27
ATOM     27  C   UNL     1     -10.091  55.606  49.621  0.00  0.00    +0.000 C 
ATOM     28  O   UNL     1      -9.878  56.818  49.576  0.00  0.00    +0.000 OA
BRANCH  27  29
ATOM     29  O   UNL     1     -10.683  54.896  48.616  0.00  0.00    +0.000 OA
BRANCH  29  30
ATOM     30  C   UNL     1     -11.692  55.560  47.849  0.00  0.00    +0.000 C 
ATOM     31  C   UNL     1     -11.564  55.169  46.394  0.00  0.00    +0.000 C 
ENDBRANCH  29  30
ENDBRANCH  27  29
ENDBRANCH   3  27
TORSDOF 6
ENDMDL
MODEL 2
REMARK VINA RESULT:      -7.4      2.820      7.665
REMARK  Name = 
REMARK  9 active torsions:
REMARK  status: ('A' for Active; 'I' for Inactive)
REMARK    1  A    between atoms: S_1  and  N_4
REMARK    2  A    between atoms: S_1  and  C_5
REMARK    3  A    between atoms: N_10  and  C_13
REMARK    4  A    between atoms: C_16  and  C_19
REMARK    5  A    between atoms: C_19  and  O_23
REMARK    6  A    between atoms: O_23  and  C_26
REMARK    7  A    between atoms: C_24  and  C_27
REMARK    8  A    between atoms: C_24  and  C_28
REMARK    9  A    between atoms: C_26  and  C_29
REMARK                            x       y       z     vdW  Elec       q    Type
REMARK                         _______ _______ _______ _____ _____    ______ ____
ROOT
ATOM      1  C   UNL     1     -11.021  54.813  50.144  0.00  0.00    +0.000 A 
ATOM      2  S   UNL     1     -11.666  54.816  51.718  0.00  0.00    +0.000 S 
ATOM      3  C   UNL     1     -11.649  55.710  49.299  0.00  0.00    +0.000 A 
ATOM      4  C   UNL     1     -12.633  56.187  51.379  0.00  0.00    +0.000 A 
ATOM      5  C   UNL     1     -12.526  56.579  50.054  0.00  0.00    +0.000 A 
ATOM      6  C   UNL     1     -13.513  56.868  52.410  0.00  0.00    +0.000 C 
ATOM      7  C   UNL     1     -13.330  57.710  49.488  0.00  0.00    +0.000 C 
ATOM      8  C   UNL     1     -14.606  57.756  51.724  0.00  0.00    +0.000 C 
ATOM      9  C   UNL     1     -13.953  58.579  50.583  0.00  0.00    +0.000 C 
ATOM     10  C   UNL     1     -15.225  58.761  52.718  0.00  0.00    +0.000 C 
ATOM     11  C   UNL     1     -15.750  56.870  51.188  0.00  0.00    +0.000 C 
ENDROOT
BRANCH   1  15
ATOM     12  N   UNL     1      -7.672  53.472  49.959  0.00  0.00    +0.000 N 
ATOM     13  C   UNL     1      -8.694  54.377  50.215  0.00  0.00    +0.000 C 
ATOM     14  O   UNL     1      -8.456  55.464  50.734  0.00  0.00    +0.000 OA
ATOM     15  N   UNL     1      -9.969  53.941  49.896  0.00  0.00    +0.000 N 
ATOM     16  H   UNL     1      -7.882  52.641  49.477  0.00  0.00    +0.000 HD
ATOM     17  H   UNL     1     -10.124  53.048  49.509  0.00  0.00    +0.000 HD
BRANCH  12  18
ATOM     18  S   UNL     1      -6.088  53.748  50.448  0.00  0.00    +0.000 S 
ATOM     19  O   UNL     1      -5.695  55.059  49.967  0.00  0.00    +0.000 OA
ATOM     20  O   UNL     1      -5.334  52.581  50.030  0.00  0.00    +0.000 OA
BRANCH  18  21
ATOM     21  C   UNL     1      -6.116  53.769  52.247  0.00  0.00    +0.000 A 
ATOM     22  N   UNL     1      -5.698  54.937  52.811  0.00  0.00    +0.000 NA
ATOM     23  C   UNL     1      -6.565  52.662  52.959  0.00  0.00    +0.000 A 
ATOM     24  C   UNL     1      -5.757  54.985  54.162  0.00  0.00    +0.000 A 
ATOM     25  C   UNL     1      -6.593  52.754  54.350  0.00  0.00    +0.000 A 
ATOM     26  C   UNL     1      -6.186  53.935  54.964  0.00  0.00    +0.000 A 
ENDBRANCH  18  21
ENDBRANCH  12  18
ENDBRANCH   1  15
BRANCH   3  27
ATOM     27  C   UNL     1     -11.517  55.708  47.848  0.00  0.00    +0.000 C 
ATOM     28  O   UNL     1     -12.458  55.535  47.072  0.00  0.00    +0.000 OA
BRANCH  27  29
ATOM     29  O   UNL     1     -10.204  55.701  47.471  0.00  0.00    +0.000 OA
BRANCH  29  30
ATOM     30  C   UNL     1      -9.822  54.787  46.439  0.00  0.00    +0.000 C 
ATOM     31  C   UNL     1      -8.351  54.954  46.131  0.00  0.00    +0.000 C 
ENDBRANCH  29  30
ENDBRANCH  27  29
ENDBRANCH   3  27
TORSDOF 6
ENDMDL
MODEL 3
REMARK VINA RESULT:      -7.1      1.821      2.207
REMARK  Name = 
REMARK  9 active torsions:
REMARK  status: ('A' for Active; 'I' for Inactive)
REMARK    1  A    between atoms: S_1  and  N_4
REMARK    2  A    between atoms: S_1  and  C_5
REMARK    3  A    between atoms: N_10  and  C_13
REMARK    4  A    between atoms: C_16  and  C_19
REMARK    5  A    between atoms: C_19  and  O_23
REMARK    6  A    between atoms: O_23  and  C_26
REMARK    7  A    between atoms: C_24  and  C_27
REMARK    8  A    between atoms: C_24  and  C_28
REMARK    9  A    between atoms: C_26  and  C_29
REMARK                            x       y       z     vdW  Elec       q    Type
REMARK                         _______ _______ _______ _____ _____    ______ ____
ROOT
ATOM      1  C   UNL     1     -11.199  53.488  50.537  0.00  0.00    +0.000 A 
ATOM      2  S   UNL     1     -10.344  52.688  51.771  0.00  0.00    +0.000 S 
ATOM      3  C   UNL     1     -10.439  53.704  49.403  0.00  0.00    +0.000 A 
ATOM      4  C   UNL     1      -9.016  52.390  50.733  0.00  0.00    +0.000 A 
ATOM      5  C   UNL     1      -9.193  52.972  49.488  0.00  0.00    +0.000 A 
ATOM      6  C   UNL     1      -7.790  51.599  51.147  0.00  0.00    +0.000 C 
ATOM      7  C   UNL     1      -8.139  52.918  48.424  0.00  0.00    +0.000 C 
ATOM      8  C   UNL     1      -6.580  51.890  50.196  0.00  0.00    +0.000 C 
ATOM      9  C   UNL     1      -7.070  51.866  48.725  0.00  0.00    +0.000 C 
ATOM     10  C   UNL     1      -5.481  50.816  50.331  0.00  0.00    +0.000 C 
ATOM     11  C   UNL     1      -5.943  53.251  50.549  0.00  0.00    +0.000 C 
ENDROOT
BRANCH   1  15
ATOM     12  N   UNL     1     -14.098  55.356  51.613  0.00  0.00    +0.000 N 
ATOM     13  C   UNL     1     -12.764  55.059  51.373  0.00  0.00    +0.000 C 
ATOM     14  O   UNL     1     -11.883  55.880  51.618  0.00  0.00    +0.000 OA
ATOM     15  N   UNL     1     -12.522  53.821  50.801  0.00  0.00    +0.000 N 
ATOM     16  H   UNL     1     -14.774  54.653  51.476  0.00  0.00    +0.000 HD
ATOM     17  H   UNL     1     -13.257  53.201  50.590  0.00  0.00    +0.000 HD
BRANCH  12  18
ATOM     18  S   UNL     1     -14.600  56.875  52.128  0.00  0.00    +0.000 S 
ATOM     19  O   UNL     1     -13.715  57.298  53.196  0.00  0.00    +0.000 OA
ATOM     20  O   UNL     1     -16.023  56.757  52.387  0.00  0.00    +0.000 OA
BRANCH  18  21
ATOM     21  C   UNL     1     -14.387  57.976  50.721  0.00  0.00    +0.000 A 
ATOM     22  N   UNL     1     -14.223  57.346  49.523  0.00  0.00    +0.000 NA
ATOM     23  C   UNL     1     -14.424  59.355  50.892  0.00  0.00    +0.000 A 
ATOM     24  C   UNL     1     -14.108  58.160  48.449  0.00  0.00    +0.000 A 
ATOM     25  C   UNL     1     -14.286  60.153  49.757  0.00  0.00    +0.000 A 
ATOM     26  C   UNL     1     -14.128  59.548  48.514  0.00  0.00    +0.000 A 
ENDBRANCH  18  21
ENDBRANCH  12  18
ENDBRANCH   1  15
BRANCH   3  27
ATOM     27  C   UNL     1     -10.804  54.615  48.325  0.00  0.00    +0.000 C 
ATOM     28  O   UNL     1     -10.300  55.728  48.167  0.00  0.00    +0.000 OA
BRANCH  27  29
ATOM     29  O   UNL     1     -11.912  54.175  47.660  0.00  0.00    +0.000 OA
BRANCH  29  30
ATOM     30  C   UNL     1     -11.712  53.225  46.609  0.00  0.00    +0.000 C 
ATOM     31  C   UNL     1     -11.416  53.950  45.316  0.00  0.00    +0.000 C 
ENDBRANCH  29  30
ENDBRANCH  27  29
ENDBRANCH   3  27
TORSDOF 6
ENDMDL
MODEL 4
REMARK VINA RESULT:      -7.0      4.202      7.603
REMARK  Name = 
REMARK  9 active torsions:
REMARK  status: ('A' for Active; 'I' for Inactive)
REMARK    1  A    between atoms: S_1  and  N_4
REMARK    2  A    between atoms: S_1  and  C_5
REMARK    3  A    between atoms: N_10  and  C_13
REMARK    4  A    between atoms: C_16  and  C_19
REMARK    5  A    between atoms: C_19  and  O_23
REMARK    6  A    between atoms: O_23  and  C_26
REMARK    7  A    between atoms: C_24  and  C_27
REMARK    8  A    between atoms: C_24  and  C_28
REMARK    9  A    between atoms: C_26  and  C_29
REMARK                            x       y       z     vdW  Elec       q    Type
REMARK                         _______ _______ _______ _____ _____    ______ ____
ROOT
ATOM      1  C   UNL     1      -8.737  54.907  47.219  0.00  0.00    +0.000 A 
ATOM      2  S   UNL     1      -7.498  54.176  46.311  0.00  0.00    +0.000 S 
ATOM      3  C   UNL     1     -10.003  54.564  46.782  0.00  0.00    +0.000 A 
ATOM      4  C   UNL     1      -8.618  53.193  45.470  0.00  0.00    +0.000 A 
ATOM      5  C   UNL     1      -9.926  53.485  45.821  0.00  0.00    +0.000 A 
ATOM      6  C   UNL     1      -8.213  52.144  44.452  0.00  0.00    +0.000 C 
ATOM      7  C   UNL     1     -11.097  52.812  45.171  0.00  0.00    +0.000 C 
ATOM      8  C   UNL     1      -9.418  51.757  43.529  0.00  0.00    +0.000 C 
ATOM      9  C   UNL     1     -10.685  51.556  44.400  0.00  0.00    +0.000 C 
ATOM     10  C   UNL     1      -9.158  50.430  42.785  0.00  0.00    +0.000 C 
ATOM     11  C   UNL     1      -9.643  52.849  42.462  0.00  0.00    +0.000 C 
ENDROOT
BRANCH   1  15
ATOM     12  N   UNL     1      -7.680  55.995  50.498  0.00  0.00    +0.000 N 
ATOM     13  C   UNL     1      -8.074  55.134  49.483  0.00  0.00    +0.000 C 
ATOM     14  O   UNL     1      -8.120  53.921  49.669  0.00  0.00    +0.000 OA
ATOM     15  N   UNL     1      -8.348  55.735  48.265  0.00  0.00    +0.000 N 
ATOM     16  H   UNL     1      -7.723  56.965  50.342  0.00  0.00    +0.000 HD
ATOM     17  H   UNL     1      -8.270  56.709  48.144  0.00  0.00    +0.000 HD
BRANCH  12  18
ATOM     18  S   UNL     1      -7.132  55.435  51.984  0.00  0.00    +0.000 S 
ATOM     19  O   UNL     1      -7.011  56.576  52.873  0.00  0.00    +0.000 OA
ATOM     20  O   UNL     1      -5.960  54.629  51.698  0.00  0.00    +0.000 OA
BRANCH  18  21
ATOM     21  C   UNL     1      -8.413  54.339  52.611  0.00  0.00    +0.000 A 
ATOM     22  N   UNL     1      -7.977  53.101  52.976  0.00  0.00    +0.000 NA
ATOM     23  C   UNL     1      -9.727  54.779  52.721  0.00  0.00    +0.000 A 
ATOM     24  C   UNL     1      -8.920  52.279  53.492  0.00  0.00    +0.000 A 
ATOM     25  C   UNL     1     -10.667  53.893  53.245  0.00  0.00    +0.000 A 
ATOM     26  C   UNL     1     -10.258  52.622  53.641  0.00  0.00    +0.000 A 
ENDBRANCH  18  21
ENDBRANCH  12  18
ENDBRANCH   1  15
BRANCH   3  27
ATOM     27  C   UNL     1     -11.225  55.261  47.165  0.00  0.00    +0.000 C 
ATOM     28  O   UNL     1     -11.817  56.060  46.438  0.00  0.00    +0.000 OA
BRANCH  27  29
ATOM     29  O   UNL     1     -11.500  55.085  48.490  0.00  0.00    +0.000 OA
BRANCH  29  30
ATOM     30  C   UNL     1     -12.318  53.967  48.848  0.00  0.00    +0.000 C 
ATOM     31  C   UNL     1     -11.541  53.036  49.752  0.00  0.00    +0.000 C 
ENDBRANCH  29  30
ENDBRANCH  27  29
ENDBRANCH   3  27
TORSDOF 6
ENDMDL
MODEL 5
REMARK VINA RESULT:      -6.8      2.550      3.732
REMARK  Name = 
REMARK  9 active torsions:
REMARK  status: ('A' for Active; 'I' for Inactive)
REMARK    1  A    between atoms: S_1  and  N_4
REMARK    2  A    between atoms: S_1  and  C_5
REMARK    3  A    between atoms: N_10  and  C_13
REMARK    4  A    between atoms: C_16  and  C_19
REMARK    5  A    between atoms: C_19  and  O_23
REMARK    6  A    between atoms: O_23  and  C_26
REMARK    7  A    between atoms: C_24  and  C_27
REMARK    8  A    between atoms: C_24  and  C_28
REMARK    9  A    between atoms: C_26  and  C_29
REMARK                            x       y       z     vdW  Elec       q    Type
REMARK                         _______ _______ _______ _____ _____    ______ ____
ROOT
ATOM      1  C   UNL     1      -8.562  53.830  52.821  0.00  0.00    +0.000 A 
ATOM      2  S   UNL     1      -8.650  52.131  52.794  0.00  0.00    +0.000 S 
ATOM      3  C   UNL     1      -7.278  54.309  52.636  0.00  0.00    +0.000 A 
ATOM      4  C   UNL     1      -7.019  51.999  52.291  0.00  0.00    +0.000 A 
ATOM      5  C   UNL     1      -6.397  53.236  52.230  0.00  0.00    +0.000 A 
ATOM      6  C   UNL     1      -6.344  50.679  51.973  0.00  0.00    +0.000 C 
ATOM      7  C   UNL     1      -4.946  53.383  51.886  0.00  0.00    +0.000 C 
ATOM      8  C   UNL     1      -4.784  50.817  52.009  0.00  0.00    +0.000 C 
ATOM      9  C   UNL     1      -4.369  52.111  51.262  0.00  0.00    +0.000 C 
ATOM     10  C   UNL     1      -4.094  49.635  51.298  0.00  0.00    +0.000 C 
ATOM     11  C   UNL     1      -4.287  50.832  53.470  0.00  0.00    +0.000 C 
ENDROOT
BRANCH   1  15
ATOM     12  N   UNL     1     -11.649  55.572  52.123  0.00  0.00    +0.000 N 
ATOM     13  C   UNL     1     -10.462  54.893  51.885  0.00  0.00    +0.000 C 
ATOM     14  O   UNL     1     -10.115  54.615  50.740  0.00  0.00    +0.000 OA
ATOM     15  N   UNL     1      -9.752  54.519  53.015  0.00  0.00    +0.000 N 
ATOM     16  H   UNL     1     -11.865  55.845  53.043  0.00  0.00    +0.000 HD
ATOM     17  H   UNL     1     -10.079  54.733  53.919  0.00  0.00    +0.000 HD
BRANCH  12  18
ATOM     18  S   UNL     1     -12.731  55.942  50.892  0.00  0.00    +0.000 S 
ATOM     19  O   UNL     1     -13.556  54.772  50.657  0.00  0.00    +0.000 OA
ATOM     20  O   UNL     1     -11.931  56.478  49.807  0.00  0.00    +0.000 OA
BRANCH  18  21
ATOM     21  C   UNL     1     -13.768  57.272  51.520  0.00  0.00    +0.000 A 
ATOM     22  N   UNL     1     -13.968  58.299  50.648  0.00  0.00    +0.000 NA
ATOM     23  C   UNL     1     -14.322  57.194  52.793  0.00  0.00    +0.000 A 
ATOM     24  C   UNL     1     -14.783  59.286  51.087  0.00  0.00    +0.000 A 
ATOM     25  C   UNL     1     -15.143  58.241  53.208  0.00  0.00    +0.000 A 
ATOM     26  C   UNL     1     -15.382  59.304  52.342  0.00  0.00    +0.000 A 
ENDBRANCH  18  21
ENDBRANCH  12  18
ENDBRANCH   1  15
BRANCH   3  27
ATOM     27  C   UNL     1      -6.862  55.679  52.910  0.00  0.00    +0.000 C 
ATOM     28  O   UNL     1      -6.162  56.006  53.869  0.00  0.00    +0.000 OA
BRANCH  27  29
ATOM     29  O   UNL     1      -7.518  56.565  52.105  0.00  0.00    +0.000 OA
BRANCH  29  30
ATOM     30  C   UNL     1      -7.238  56.510  50.703  0.00  0.00    +0.000 C 
ATOM     31  C   UNL     1      -8.304  57.266  49.942  0.00  0.00    +0.000 C 
ENDBRANCH  29  30
ENDBRANCH  27  29
ENDBRANCH   3  27
TORSDOF 6
ENDMDL
MODEL 6
REMARK VINA RESULT:      -6.7      2.186      3.010
REMARK  Name = 
REMARK  9 active torsions:
REMARK  status: ('A' for Active; 'I' for Inactive)
REMARK    1  A    between atoms: S_1  and  N_4
REMARK    2  A    between atoms: S_1  and  C_5
REMARK    3  A    between atoms: N_10  and  C_13
REMARK    4  A    between atoms: C_16  and  C_19
REMARK    5  A    between atoms: C_19  and  O_23
REMARK    6  A    between atoms: O_23  and  C_26
REMARK    7  A    between atoms: C_24  and  C_27
REMARK    8  A    between atoms: C_24  and  C_28
REMARK    9  A    between atoms: C_26  and  C_29
REMARK                            x       y       z     vdW  Elec       q    Type
REMARK                         _______ _______ _______ _____ _____    ______ ____
ROOT
ATOM      1  C   UNL     1     -10.402  53.434  51.026  0.00  0.00    +0.000 A 
ATOM      2  S   UNL     1     -10.690  53.134  52.676  0.00  0.00    +0.000 S 
ATOM      3  C   UNL     1      -9.068  53.325  50.680  0.00  0.00    +0.000 A 
ATOM      4  C   UNL     1      -9.078  52.611  52.918  0.00  0.00    +0.000 A 
ATOM      5  C   UNL     1      -8.314  52.747  51.771  0.00  0.00    +0.000 A 
ATOM      6  C   UNL     1      -8.559  52.081  54.241  0.00  0.00    +0.000 C 
ATOM      7  C   UNL     1      -6.850  52.426  51.744  0.00  0.00    +0.000 C 
ATOM      8  C   UNL     1      -6.994  52.134  54.298  0.00  0.00    +0.000 C 
ATOM      9  C   UNL     1      -6.417  51.604  52.959  0.00  0.00    +0.000 C 
ATOM     10  C   UNL     1      -6.437  51.239  55.424  0.00  0.00    +0.000 C 
ATOM     11  C   UNL     1      -6.521  53.576  54.576  0.00  0.00    +0.000 C 
ENDROOT
BRANCH   1  15
ATOM     12  N   UNL     1     -13.035  55.325  49.432  0.00  0.00    +0.000 N 
ATOM     13  C   UNL     1     -11.935  55.058  50.236  0.00  0.00    +0.000 C 
ATOM     14  O   UNL     1     -11.373  55.960  50.851  0.00  0.00    +0.000 OA
ATOM     15  N   UNL     1     -11.506  53.741  50.240  0.00  0.00    +0.000 N 
ATOM     16  H   UNL     1     -13.509  54.573  49.009  0.00  0.00    +0.000 HD
ATOM     17  H   UNL     1     -11.964  53.050  49.709  0.00  0.00    +0.000 HD
BRANCH  12  18
ATOM     18  S   UNL     1     -13.584  56.889  49.154  0.00  0.00    +0.000 S 
ATOM     19  O   UNL     1     -14.637  56.821  48.159  0.00  0.00    +0.000 OA
ATOM     20  O   UNL     1     -12.401  57.684  48.886  0.00  0.00    +0.000 OA
BRANCH  18  21
ATOM     21  C   UNL     1     -14.286  57.457  50.711  0.00  0.00    +0.000 A 
ATOM     22  N   UNL     1     -14.952  56.502  51.419  0.00  0.00    +0.000 NA
ATOM     23  C   UNL     1     -14.109  58.771  51.127  0.00  0.00    +0.000 A 
ATOM     24  C   UNL     1     -15.446  56.900  52.613  0.00  0.00    +0.000 A 
ATOM     25  C   UNL     1     -14.649  59.140  52.358  0.00  0.00    +0.000 A 
ATOM     26  C   UNL     1     -15.327  58.190  53.117  0.00  0.00    +0.000 A 
ENDBRANCH  18  21
ENDBRANCH  12  18
ENDBRANCH   1  15
BRANCH   3  27
ATOM     27  C   UNL     1      -8.498  53.814  49.431  0.00  0.00    +0.000 C 
ATOM     28  O   UNL     1      -8.651  53.260  48.342  0.00  0.00    +0.000 OA
BRANCH  27  29
ATOM     29  O   UNL     1      -7.605  54.822  49.657  0.00  0.00    +0.000 OA
BRANCH  29  30
ATOM     30  C   UNL     1      -8.131  56.146  49.791  0.00  0.00    +0.000 C 
ATOM     31  C   UNL     1      -7.651  56.755  51.089  0.00  0.00    +0.000 C 
ENDBRANCH  29  30
ENDBRANCH  27  29
ENDBRANCH   3  27
TORSDOF 6
ENDMDL
MODEL 7
REMARK VINA RESULT:      -6.6      2.369      4.625
REMARK  Name = 
REMARK  9 active torsions:
REMARK  status: ('A' for Active; 'I' for Inactive)
REMARK    1  A    between atoms: S_1  and  N_4
REMARK    2  A    between atoms: S_1  and  C_5
REMARK    3  A    between atoms: N_10  and  C_13
REMARK    4  A    between atoms: C_16  and  C_19
REMARK    5  A    between atoms: C_19  and  O_23
REMARK    6  A    between atoms: O_23  and  C_26
REMARK    7  A    between atoms: C_24  and  C_27
REMARK    8  A    between atoms: C_24  and  C_28
REMARK    9  A    between atoms: C_26  and  C_29
REMARK                            x       y       z     vdW  Elec       q    Type
REMARK                         _______ _______ _______ _____ _____    ______ ____
ROOT
ATOM      1  C   UNL     1     -11.519  54.014  49.211  0.00  0.00    +0.000 A 
ATOM      2  S   UNL     1     -11.968  52.933  47.976  0.00  0.00    +0.000 S 
ATOM      3  C   UNL     1     -10.289  54.605  48.992  0.00  0.00    +0.000 A 
ATOM      4  C   UNL     1     -10.647  53.413  47.000  0.00  0.00    +0.000 A 
ATOM      5  C   UNL     1      -9.829  54.324  47.649  0.00  0.00    +0.000 A 
ATOM      6  C   UNL     1     -10.402  52.882  45.600  0.00  0.00    +0.000 C 
ATOM      7  C   UNL     1      -8.565  54.842  47.034  0.00  0.00    +0.000 C 
ATOM      8  C   UNL     1      -8.919  53.118  45.155  0.00  0.00    +0.000 C 
ATOM      9  C   UNL     1      -8.497  54.563  45.532  0.00  0.00    +0.000 C 
ATOM     10  C   UNL     1      -8.755  52.976  43.628  0.00  0.00    +0.000 C 
ATOM     11  C   UNL     1      -7.993  52.077  45.819  0.00  0.00    +0.000 C 
ENDROOT
BRANCH   1  15
ATOM     12  N   UNL     1     -14.195  55.345  51.240  0.00  0.00    +0.000 N 
ATOM     13  C   UNL     1     -13.314  55.224  50.174  0.00  0.00    +0.000 C 
ATOM     14  O   UNL     1     -13.386  55.981  49.210  0.00  0.00    +0.000 OA
ATOM     15  N   UNL     1     -12.413  54.175  50.262  0.00  0.00    +0.000 N 
ATOM     16  H   UNL     1     -14.067  54.773  52.030  0.00  0.00    +0.000 HD
ATOM     17  H   UNL     1     -12.406  53.569  51.038  0.00  0.00    +0.000 HD
BRANCH  12  18
ATOM     18  S   UNL     1     -15.473  56.436  51.227  0.00  0.00    +0.000 S 
ATOM     19  O   UNL     1     -15.926  56.608  52.594  0.00  0.00    +0.000 OA
ATOM     20  O   UNL     1     -16.402  55.947  50.225  0.00  0.00    +0.000 OA
BRANCH  18  21
ATOM     21  C   UNL     1     -14.795  57.994  50.634  0.00  0.00    +0.000 A 
ATOM     22  N   UNL     1     -14.231  58.774  51.598  0.00  0.00    +0.000 NA
ATOM     23  C   UNL     1     -14.843  58.316  49.283  0.00  0.00    +0.000 A 
ATOM     24  C   UNL     1     -13.676  59.928  51.162  0.00  0.00    +0.000 A 
ATOM     25  C   UNL     1     -14.272  59.523  48.883  0.00  0.00    +0.000 A 
ATOM     26  C   UNL     1     -13.675  60.343  49.836  0.00  0.00    +0.000 A 
ENDBRANCH  18  21
ENDBRANCH  12  18
ENDBRANCH   1  15
BRANCH   3  27
ATOM     27  C   UNL     1      -9.528  55.325  50.006  0.00  0.00    +0.000 C 
ATOM     28  O   UNL     1      -9.003  56.424  49.820  0.00  0.00    +0.000 OA
BRANCH  27  29
ATOM     29  O   UNL     1      -9.289  54.538  51.096  0.00  0.00    +0.000 OA
BRANCH  29  30
ATOM     30  C   UNL     1      -8.950  55.197  52.319  0.00  0.00    +0.000 C 
ATOM     31  C   UNL     1      -9.773  54.624  53.451  0.00  0.00    +0.000 C 
ENDBRANCH  29  30
ENDBRANCH  27  29
ENDBRANCH   3  27
TORSDOF 6
ENDMDL
MODEL 8
REMARK VINA RESULT:      -6.6      3.621      6.057
REMARK  Name = 
REMARK  9 active torsions:
REMARK  status: ('A' for Active; 'I' for Inactive)
REMARK    1  A    between atoms: S_1  and  N_4
REMARK    2  A    between atoms: S_1  and  C_5
REMARK    3  A    between atoms: N_10  and  C_13
REMARK    4  A    between atoms: C_16  and  C_19
REMARK    5  A    between atoms: C_19  and  O_23
REMARK    6  A    between atoms: O_23  and  C_26
REMARK    7  A    between atoms: C_24  and  C_27
REMARK    8  A    between atoms: C_24  and  C_28
REMARK    9  A    between atoms: C_26  and  C_29
REMARK                            x       y       z     vdW  Elec       q    Type
REMARK                         _______ _______ _______ _____ _____    ______ ____
ROOT
ATOM      1  C   UNL     1     -10.374  54.349  47.062  0.00  0.00    +0.000 A 
ATOM      2  S   UNL     1     -11.370  54.006  45.726  0.00  0.00    +0.000 S 
ATOM      3  C   UNL     1      -9.253  53.542  47.124  0.00  0.00    +0.000 A 
ATOM      4  C   UNL     1     -10.206  52.940  45.062  0.00  0.00    +0.000 A 
ATOM      5  C   UNL     1      -9.111  52.787  45.898  0.00  0.00    +0.000 A 
ATOM      6  C   UNL     1     -10.375  52.241  43.727  0.00  0.00    +0.000 C 
ATOM      7  C   UNL     1      -7.987  51.849  45.577  0.00  0.00    +0.000 C 
ATOM      8  C   UNL     1      -9.418  51.006  43.609  0.00  0.00    +0.000 C 
ATOM      9  C   UNL     1      -8.006  51.406  44.113  0.00  0.00    +0.000 C 
ATOM     10  C   UNL     1      -9.268  50.543  42.145  0.00  0.00    +0.000 C 
ATOM     11  C   UNL     1      -9.982  49.818  44.416  0.00  0.00    +0.000 C 
ENDROOT
BRANCH   1  15
ATOM     12  N   UNL     1     -11.941  56.062  49.830  0.00  0.00    +0.000 N 
ATOM     13  C   UNL     1     -11.556  55.014  49.005  0.00  0.00    +0.000 C 
ATOM     14  O   UNL     1     -11.853  53.854  49.280  0.00  0.00    +0.000 OA
ATOM     15  N   UNL     1     -10.786  55.370  47.909  0.00  0.00    +0.000 N 
ATOM     16  H   UNL     1     -11.752  56.985  49.546  0.00  0.00    +0.000 HD
ATOM     17  H   UNL     1     -10.542  56.308  47.737  0.00  0.00    +0.000 HD
BRANCH  12  18
ATOM     18  S   UNL     1     -12.716  55.807  51.299  0.00  0.00    +0.000 S 
ATOM     19  O   UNL     1     -11.699  55.699  52.327  0.00  0.00    +0.000 OA
ATOM     20  O   UNL     1     -13.628  54.699  51.080  0.00  0.00    +0.000 OA
BRANCH  18  21
ATOM     21  C   UNL     1     -13.704  57.279  51.605  0.00  0.00    +0.000 A 
ATOM     22  N   UNL     1     -13.893  58.077  50.516  0.00  0.00    +0.000 NA
ATOM     23  C   UNL     1     -14.235  57.524  52.866  0.00  0.00    +0.000 A 
ATOM     24  C   UNL     1     -14.672  59.164  50.719  0.00  0.00    +0.000 A 
ATOM     25  C   UNL     1     -15.019  58.664  53.031  0.00  0.00    +0.000 A 
ATOM     26  C   UNL     1     -15.246  59.498  51.940  0.00  0.00    +0.000 A 
ENDBRANCH  18  21
ENDBRANCH  12  18
ENDBRANCH   1  15
BRANCH   3  27
ATOM     27  C   UNL     1      -8.399  53.404  48.297  0.00  0.00    +0.000 C 
ATOM     28  O   UNL     1      -8.776  52.929  49.369  0.00  0.00    +0.000 OA
BRANCH  27  29
ATOM     29  O   UNL     1      -7.215  54.061  48.126  0.00  0.00    +0.000 OA
BRANCH  29  30
ATOM     30  C   UNL     1      -6.015  53.288  48.223  0.00  0.00    +0.000 C 
ATOM     31  C   UNL     1      -4.858  54.188  48.592  0.00  0.00    +0.000 C 
ENDBRANCH  29  30
ENDBRANCH  27  29
ENDBRANCH   3  27
TORSDOF 6
ENDMDL
MODEL 9
REMARK VINA RESULT:      -6.5      2.405      3.497
REMARK  Name = 
REMARK  9 active torsions:
REMARK  status: ('A' for Active; 'I' for Inactive)
REMARK    1  A    between atoms: S_1  and  N_4
REMARK    2  A    between atoms: S_1  and  C_5
REMARK    3  A    between atoms: N_10  and  C_13
REMARK    4  A    between atoms: C_16  and  C_19
REMARK    5  A    between atoms: C_19  and  O_23
REMARK    6  A    between atoms: O_23  and  C_26
REMARK    7  A    between atoms: C_24  and  C_27
REMARK    8  A    between atoms: C_24  and  C_28
REMARK    9  A    between atoms: C_26  and  C_29
REMARK                            x       y       z     vdW  Elec       q    Type
REMARK                         _______ _______ _______ _____ _____    ______ ____
ROOT
ATOM      1  C   UNL     1      -9.945  53.969  50.688  0.00  0.00    +0.000 A 
ATOM      2  S   UNL     1      -8.495  54.508  49.981  0.00  0.00    +0.000 S 
ATOM      3  C   UNL     1      -9.761  53.401  51.935  0.00  0.00    +0.000 A 
ATOM      4  C   UNL     1      -7.620  54.221  51.424  0.00  0.00    +0.000 A 
ATOM      5  C   UNL     1      -8.412  53.641  52.401  0.00  0.00    +0.000 A 
ATOM      6  C   UNL     1      -6.149  54.551  51.592  0.00  0.00    +0.000 C 
ATOM      7  C   UNL     1      -7.863  53.224  53.732  0.00  0.00    +0.000 C 
ATOM      8  C   UNL     1      -5.526  53.766  52.796  0.00  0.00    +0.000 C 
ATOM      9  C   UNL     1      -6.491  53.842  54.008  0.00  0.00    +0.000 C 
ATOM     10  C   UNL     1      -4.182  54.381  53.240  0.00  0.00    +0.000 C 
ATOM     11  C   UNL     1      -5.254  52.302  52.392  0.00  0.00    +0.000 C 
ENDROOT
BRANCH   1  15
ATOM     12  N   UNL     1     -12.859  55.559  49.263  0.00  0.00    +0.000 N 
ATOM     13  C   UNL     1     -11.701  55.410  50.015  0.00  0.00    +0.000 C 
ATOM     14  O   UNL     1     -11.230  56.357  50.640  0.00  0.00    +0.000 OA
ATOM     15  N   UNL     1     -11.111  54.158  49.957  0.00  0.00    +0.000 N 
ATOM     16  H   UNL     1     -13.252  54.767  48.833  0.00  0.00    +0.000 HD
ATOM     17  H   UNL     1     -11.501  53.431  49.419  0.00  0.00    +0.000 HD
BRANCH  12  18
ATOM     18  S   UNL     1     -13.610  57.049  49.062  0.00  0.00    +0.000 S 
ATOM     19  O   UNL     1     -14.700  56.875  48.121  0.00  0.00    +0.000 OA
ATOM     20  O   UNL     1     -12.550  57.991  48.757  0.00  0.00    +0.000 OA
BRANCH  18  21
ATOM     21  C   UNL     1     -14.290  57.488  50.669  0.00  0.00    +0.000 A 
ATOM     22  N   UNL     1     -14.969  56.486  51.295  0.00  0.00    +0.000 NA
ATOM     23  C   UNL     1     -14.085  58.756  51.200  0.00  0.00    +0.000 A 
ATOM     24  C   UNL     1     -15.447  56.785  52.524  0.00  0.00    +0.000 A 
ATOM     25  C   UNL     1     -14.609  59.024  52.463  0.00  0.00    +0.000 A 
ATOM     26  C   UNL     1     -15.299  58.022  53.140  0.00  0.00    +0.000 A 
ENDBRANCH  18  21
ENDBRANCH  12  18
ENDBRANCH   1  15
BRANCH   3  27
ATOM     27  C   UNL     1     -10.758  52.596  52.630  0.00  0.00    +0.000 C 
ATOM     28  O   UNL     1     -10.904  52.588  53.853  0.00  0.00    +0.000 OA
BRANCH  27  29
ATOM     29  O   UNL     1     -11.348  51.702  51.783  0.00  0.00    +0.000 OA
BRANCH  29  30
ATOM     30  C   UNL     1     -10.623  50.505  51.484  0.00  0.00    +0.000 C 
ATOM     31  C   UNL     1     -10.559  50.311  49.985  0.00  0.00    +0.000 C 
ENDBRANCH  29  30
ENDBRANCH  27  29
ENDBRANCH   3  27
TORSDOF 6
ENDMDL
