MODEL 1
REMARK VINA RESULT:      -8.1      0.000      0.000
REMARK  Name = 
REMARK  10 active torsions:
REMARK  status: ('A' for Active; 'I' for Inactive)
REMARK    1  A    between atoms: S_1  and  N_4
REMARK    2  A    between atoms: S_1  and  C_5
REMARK    3  A    between atoms: N_7  and  C_12
REMARK    4  A    between atoms: N_10  and  C_14
REMARK    5  A    between atoms: C_16  and  C_19
REMARK    6  A    between atoms: C_19  and  O_23
REMARK    7  A    between atoms: O_23  and  C_26
REMARK    8  A    between atoms: C_24  and  C_27
REMARK    9  A    between atoms: C_24  and  C_28
REMARK   10  A    between atoms: C_26  and  C_29
REMARK                            x       y       z     vdW  Elec       q    Type
REMARK                         _______ _______ _______ _____ _____    ______ ____
ROOT
ATOM      1  C   UNL     1     -10.933  54.381  51.624  0.00  0.00    +0.000 A 
ATOM      2  S   UNL     1     -10.510  53.639  53.094  0.00  0.00    +0.000 S 
ATOM      3  C   UNL     1      -9.853  54.909  50.939  0.00  0.00    +0.000 A 
ATOM      4  C   UNL     1      -8.848  53.765  52.736  0.00  0.00    +0.000 A 
ATOM      5  C   UNL     1      -8.620  54.455  51.557  0.00  0.00    +0.000 A 
ATOM      6  C   UNL     1      -7.770  53.176  53.614  0.00  0.00    +0.000 C 
ATOM      7  C   UNL     1      -7.232  54.716  51.052  0.00  0.00    +0.000 C 
ATOM      8  C   UNL     1      -6.381  53.815  53.300  0.00  0.00    +0.000 C 
ATOM      9  C   UNL     1      -6.178  53.872  51.766  0.00  0.00    +0.000 C 
ATOM     10  C   UNL     1      -5.242  52.964  53.888  0.00  0.00    +0.000 C 
ATOM     11  C   UNL     1      -6.292  55.223  53.921  0.00  0.00    +0.000 C 
ENDROOT
BRANCH   1  15
ATOM     12  N   UNL     1     -14.371  55.319  51.217  0.00  0.00    +0.000 N 
ATOM     13  C   UNL     1     -13.034  55.459  51.573  0.00  0.00    +0.000 C 
ATOM     14  O   UNL     1     -12.587  56.518  51.994  0.00  0.00    +0.000 OA
ATOM     15  N   UNL     1     -12.279  54.341  51.302  0.00  0.00    +0.000 N 
ATOM     16  H   UNL     1     -14.668  54.454  50.853  0.00  0.00    +0.000 HD
ATOM     17  H   UNL     1     -12.682  53.540  50.894  0.00  0.00    +0.000 HD
BRANCH  12  18
ATOM     18  S   UNL     1     -15.494  56.534  51.371  0.00  0.00    +0.000 S 
ATOM     19  O   UNL     1     -15.705  56.847  52.762  0.00  0.00    +0.000 OA
ATOM     20  O   UNL     1     -16.610  56.118  50.539  0.00  0.00    +0.000 OA
BRANCH  18  21
ATOM     21  C   UNL     1     -14.912  58.005  50.578  0.00  0.00    +0.000 A 
ATOM     22  N   UNL     1     -14.339  58.078  49.327  0.00  0.00    +0.000 N 
ATOM     23  C   UNL     1     -14.891  59.313  51.044  0.00  0.00    +0.000 A 
ATOM     24  N   UNL     1     -13.991  59.341  48.972  0.00  0.00    +0.000 NA
ATOM     25  C   UNL     1     -14.041  57.046  48.362  0.00  0.00    +0.000 C 
ATOM     26  C   UNL     1     -14.320  60.081  50.026  0.00  0.00    +0.000 A 
ENDBRANCH  18  21
ENDBRANCH  12  18
ENDBRANCH   1  15
BRANCH   3  27
ATOM     27  C   UNL     1      -9.975  55.785  49.764  0.00  0.00    +0.000 C 
ATOM     28  O   UNL     1      -9.422  56.873  49.655  0.00  0.00    +0.000 OA
BRANCH  27  29
ATOM     29  O   UNL     1     -10.745  55.223  48.794  0.00  0.00    +0.000 OA
BRANCH  29  30
ATOM     30  C   UNL     1     -10.303  55.319  47.438  0.00  0.00    +0.000 C 
ATOM     31  C   UNL     1     -11.478  55.139  46.498  0.00  0.00    +0.000 C 
ENDBRANCH  29  30
ENDBRANCH  27  29
ENDBRANCH   3  27
TORSDOF 6
ENDMDL
MODEL 2
REMARK VINA RESULT:      -7.5      3.102      7.688
REMARK  Name = 
REMARK  10 active torsions:
REMARK  status: ('A' for Active; 'I' for Inactive)
REMARK    1  A    between atoms: S_1  and  N_4
REMARK    2  A    between atoms: S_1  and  C_5
REMARK    3  A    between atoms: N_7  and  C_12
REMARK    4  A    between atoms: N_10  and  C_14
REMARK    5  A    between atoms: C_16  and  C_19
REMARK    6  A    between atoms: C_19  and  O_23
REMARK    7  A    between atoms: O_23  and  C_26
REMARK    8  A    between atoms: C_24  and  C_27
REMARK    9  A    between atoms: C_24  and  C_28
REMARK   10  A    between atoms: C_26  and  C_29
REMARK                            x       y       z     vdW  Elec       q    Type
REMARK                         _______ _______ _______ _____ _____    ______ ____
ROOT
ATOM      1  C   UNL     1     -10.983  54.767  50.247  0.00  0.00    +0.000 A 
ATOM      2  S   UNL     1     -11.716  54.798  51.781  0.00  0.00    +0.000 S 
ATOM      3  C   UNL     1     -11.562  55.636  49.338  0.00  0.00    +0.000 A 
ATOM      4  C   UNL     1     -12.654  56.157  51.359  0.00  0.00    +0.000 A 
ATOM      5  C   UNL     1     -12.482  56.518  50.033  0.00  0.00    +0.000 A 
ATOM      6  C   UNL     1     -13.554  56.873  52.338  0.00  0.00    +0.000 C 
ATOM      7  C   UNL     1     -13.228  57.669  49.425  0.00  0.00    +0.000 C 
ATOM      8  C   UNL     1     -14.600  57.760  51.593  0.00  0.00    +0.000 C 
ATOM      9  C   UNL     1     -13.889  58.561  50.474  0.00  0.00    +0.000 C 
ATOM     10  C   UNL     1     -15.241  58.774  52.555  0.00  0.00    +0.000 C 
ATOM     11  C   UNL     1     -15.724  56.879  51.012  0.00  0.00    +0.000 C 
ENDROOT
BRANCH   1  15
ATOM     12  N   UNL     1      -7.666  53.408  50.386  0.00  0.00    +0.000 N 
ATOM     13  C   UNL     1      -8.680  54.343  50.561  0.00  0.00    +0.000 C 
ATOM     14  O   UNL     1      -8.486  55.404  51.141  0.00  0.00    +0.000 OA
ATOM     15  N   UNL     1      -9.907  53.905  50.118  0.00  0.00    +0.000 N 
ATOM     16  H   UNL     1      -7.888  52.559  49.941  0.00  0.00    +0.000 HD
ATOM     17  H   UNL     1     -10.016  53.009  49.724  0.00  0.00    +0.000 HD
BRANCH  12  18
ATOM     18  S   UNL     1      -6.101  53.647  50.890  0.00  0.00    +0.000 S 
ATOM     19  O   UNL     1      -5.571  54.861  50.320  0.00  0.00    +0.000 OA
ATOM     20  O   UNL     1      -5.435  52.378  50.650  0.00  0.00    +0.000 OA
BRANCH  18  21
ATOM     21  C   UNL     1      -6.047  53.818  52.650  0.00  0.00    +0.000 A 
ATOM     22  N   UNL     1      -6.571  52.933  53.566  0.00  0.00    +0.000 N 
ATOM     23  C   UNL     1      -5.516  54.843  53.424  0.00  0.00    +0.000 A 
ATOM     24  N   UNL     1      -6.379  53.319  54.852  0.00  0.00    +0.000 NA
ATOM     25  C   UNL     1      -7.292  51.696  53.380  0.00  0.00    +0.000 C 
ATOM     26  C   UNL     1      -5.747  54.485  54.755  0.00  0.00    +0.000 A 
ENDBRANCH  18  21
ENDBRANCH  12  18
ENDBRANCH   1  15
BRANCH   3  27
ATOM     27  C   UNL     1     -11.259  55.639  47.900  0.00  0.00    +0.000 C 
ATOM     28  O   UNL     1     -12.104  55.546  47.017  0.00  0.00    +0.000 OA
BRANCH  27  29
ATOM     29  O   UNL     1      -9.929  55.800  47.664  0.00  0.00    +0.000 OA
BRANCH  29  30
ATOM     30  C   UNL     1      -9.329  55.035  46.616  0.00  0.00    +0.000 C 
ATOM     31  C   UNL     1      -7.869  54.783  46.932  0.00  0.00    +0.000 C 
ENDBRANCH  29  30
ENDBRANCH  27  29
ENDBRANCH   3  27
TORSDOF 6
ENDMDL
MODEL 3
REMARK VINA RESULT:      -7.2      1.850      3.288
REMARK  Name = 
REMARK  10 active torsions:
REMARK  status: ('A' for Active; 'I' for Inactive)
REMARK    1  A    between atoms: S_1  and  N_4
REMARK    2  A    between atoms: S_1  and  C_5
REMARK    3  A    between atoms: N_7  and  C_12
REMARK    4  A    between atoms: N_10  and  C_14
REMARK    5  A    between atoms: C_16  and  C_19
REMARK    6  A    between atoms: C_19  and  O_23
REMARK    7  A    between atoms: O_23  and  C_26
REMARK    8  A    between atoms: C_24  and  C_27
REMARK    9  A    between atoms: C_24  and  C_28
REMARK   10  A    between atoms: C_26  and  C_29
REMARK                            x       y       z     vdW  Elec       q    Type
REMARK                         _______ _______ _______ _____ _____    ______ ____
ROOT
ATOM      1  C   UNL     1     -10.957  54.008  50.556  0.00  0.00    +0.000 A 
ATOM      2  S   UNL     1     -10.251  53.929  49.011  0.00  0.00    +0.000 S 
ATOM      3  C   UNL     1     -10.034  54.019  51.587  0.00  0.00    +0.000 A 
ATOM      4  C   UNL     1      -8.693  54.173  49.657  0.00  0.00    +0.000 A 
ATOM      5  C   UNL     1      -8.703  54.213  51.041  0.00  0.00    +0.000 A 
ATOM      6  C   UNL     1      -7.461  54.333  48.798  0.00  0.00    +0.000 C 
ATOM      7  C   UNL     1      -7.442  54.390  51.834  0.00  0.00    +0.000 C 
ATOM      8  C   UNL     1      -6.163  54.090  49.629  0.00  0.00    +0.000 C 
ATOM      9  C   UNL     1      -6.266  54.849  50.975  0.00  0.00    +0.000 C 
ATOM     10  C   UNL     1      -4.928  54.629  48.885  0.00  0.00    +0.000 C 
ATOM     11  C   UNL     1      -5.957  52.579  49.861  0.00  0.00    +0.000 C 
ENDROOT
BRANCH   1  15
ATOM     12  N   UNL     1     -14.310  55.222  50.945  0.00  0.00    +0.000 N 
ATOM     13  C   UNL     1     -12.920  55.260  50.955  0.00  0.00    +0.000 C 
ATOM     14  O   UNL     1     -12.305  56.293  51.189  0.00  0.00    +0.000 OA
ATOM     15  N   UNL     1     -12.340  54.072  50.576  0.00  0.00    +0.000 N 
ATOM     16  H   UNL     1     -14.750  54.371  50.718  0.00  0.00    +0.000 HD
ATOM     17  H   UNL     1     -12.890  53.293  50.329  0.00  0.00    +0.000 HD
BRANCH  12  18
ATOM     18  S   UNL     1     -15.267  56.534  51.295  0.00  0.00    +0.000 S 
ATOM     19  O   UNL     1     -15.250  56.803  52.711  0.00  0.00    +0.000 OA
ATOM     20  O   UNL     1     -16.525  56.269  50.619  0.00  0.00    +0.000 OA
BRANCH  18  21
ATOM     21  C   UNL     1     -14.650  57.974  50.474  0.00  0.00    +0.000 A 
ATOM     22  N   UNL     1     -14.250  58.046  49.157  0.00  0.00    +0.000 N 
ATOM     23  C   UNL     1     -14.428  59.252  50.972  0.00  0.00    +0.000 A 
ATOM     24  N   UNL     1     -13.824  59.283  48.795  0.00  0.00    +0.000 NA
ATOM     25  C   UNL     1     -14.197  57.035  48.128  0.00  0.00    +0.000 C 
ATOM     26  C   UNL     1     -13.926  60.004  49.907  0.00  0.00    +0.000 A 
ENDBRANCH  18  21
ENDBRANCH  12  18
ENDBRANCH   1  15
BRANCH   3  27
ATOM     27  C   UNL     1     -10.387  53.863  53.006  0.00  0.00    +0.000 C 
ATOM     28  O   UNL     1     -10.276  54.748  53.845  0.00  0.00    +0.000 OA
BRANCH  27  29
ATOM     29  O   UNL     1     -10.891  52.627  53.267  0.00  0.00    +0.000 OA
BRANCH  29  30
ATOM     30  C   UNL     1     -10.020  51.500  53.150  0.00  0.00    +0.000 C 
ATOM     31  C   UNL     1      -8.910  51.596  54.176  0.00  0.00    +0.000 C 
ENDBRANCH  29  30
ENDBRANCH  27  29
ENDBRANCH   3  27
TORSDOF 6
ENDMDL
MODEL 4
REMARK VINA RESULT:      -7.0      2.271      3.651
REMARK  Name = 
REMARK  10 active torsions:
REMARK  status: ('A' for Active; 'I' for Inactive)
REMARK    1  A    between atoms: S_1  and  N_4
REMARK    2  A    between atoms: S_1  and  C_5
REMARK    3  A    between atoms: N_7  and  C_12
REMARK    4  A    between atoms: N_10  and  C_14
REMARK    5  A    between atoms: C_16  and  C_19
REMARK    6  A    between atoms: C_19  and  O_23
REMARK    7  A    between atoms: O_23  and  C_26
REMARK    8  A    between atoms: C_24  and  C_27
REMARK    9  A    between atoms: C_24  and  C_28
REMARK   10  A    between atoms: C_26  and  C_29
REMARK                            x       y       z     vdW  Elec       q    Type
REMARK                         _______ _______ _______ _____ _____    ______ ____
ROOT
ATOM      1  C   UNL     1     -11.214  53.633  50.420  0.00  0.00    +0.000 A 
ATOM      2  S   UNL     1     -10.849  53.670  48.759  0.00  0.00    +0.000 S 
ATOM      3  C   UNL     1     -10.133  53.303  51.218  0.00  0.00    +0.000 A 
ATOM      4  C   UNL     1      -9.181  53.507  49.073  0.00  0.00    +0.000 A 
ATOM      5  C   UNL     1      -8.920  53.326  50.421  0.00  0.00    +0.000 A 
ATOM      6  C   UNL     1      -8.130  53.565  47.990  0.00  0.00    +0.000 C 
ATOM      7  C   UNL     1      -7.523  53.130  50.934  0.00  0.00    +0.000 C 
ATOM      8  C   UNL     1      -6.783  52.950  48.483  0.00  0.00    +0.000 C 
ATOM      9  C   UNL     1      -6.460  53.489  49.898  0.00  0.00    +0.000 C 
ATOM     10  C   UNL     1      -5.625  53.356  47.555  0.00  0.00    +0.000 C 
ATOM     11  C   UNL     1      -6.873  51.410  48.485  0.00  0.00    +0.000 C 
ENDROOT
BRANCH   1  15
ATOM     12  N   UNL     1     -14.106  55.447  51.520  0.00  0.00    +0.000 N 
ATOM     13  C   UNL     1     -12.768  55.225  51.215  0.00  0.00    +0.000 C 
ATOM     14  O   UNL     1     -11.935  56.120  51.275  0.00  0.00    +0.000 OA
ATOM     15  N   UNL     1     -12.520  53.954  50.749  0.00  0.00    +0.000 N 
ATOM     16  H   UNL     1     -14.737  54.697  51.422  0.00  0.00    +0.000 HD
ATOM     17  H   UNL     1     -13.246  53.295  50.654  0.00  0.00    +0.000 HD
BRANCH  12  18
ATOM     18  S   UNL     1     -14.698  56.910  52.039  0.00  0.00    +0.000 S 
ATOM     19  O   UNL     1     -14.049  57.307  53.263  0.00  0.00    +0.000 OA
ATOM     20  O   UNL     1     -16.143  56.765  51.993  0.00  0.00    +0.000 OA
BRANCH  18  21
ATOM     21  C   UNL     1     -14.369  58.162  50.833  0.00  0.00    +0.000 A 
ATOM     22  N   UNL     1     -14.302  57.976  49.470  0.00  0.00    +0.000 N 
ATOM     23  C   UNL     1     -14.097  59.514  51.011  0.00  0.00    +0.000 A 
ATOM     24  N   UNL     1     -14.037  59.119  48.787  0.00  0.00    +0.000 NA
ATOM     25  C   UNL     1     -14.448  56.783  48.670  0.00  0.00    +0.000 C 
ATOM     26  C   UNL     1     -13.904  60.043  49.732  0.00  0.00    +0.000 A 
ENDBRANCH  18  21
ENDBRANCH  12  18
ENDBRANCH   1  15
BRANCH   3  27
ATOM     27  C   UNL     1     -10.236  52.992  52.651  0.00  0.00    +0.000 C 
ATOM     28  O   UNL     1     -11.121  52.303  53.145  0.00  0.00    +0.000 OA
BRANCH  27  29
ATOM     29  O   UNL     1      -9.206  53.527  53.359  0.00  0.00    +0.000 OA
BRANCH  29  30
ATOM     30  C   UNL     1      -9.259  54.917  53.688  0.00  0.00    +0.000 C 
ATOM     31  C   UNL     1      -7.873  55.420  54.035  0.00  0.00    +0.000 C 
ENDBRANCH  29  30
ENDBRANCH  27  29
ENDBRANCH   3  27
TORSDOF 6
ENDMDL
MODEL 5
REMARK VINA RESULT:      -6.8      3.483      8.013
REMARK  Name = 
REMARK  10 active torsions:
REMARK  status: ('A' for Active; 'I' for Inactive)
REMARK    1  A    between atoms: S_1  and  N_4
REMARK    2  A    between atoms: S_1  and  C_5
REMARK    3  A    between atoms: N_7  and  C_12
REMARK    4  A    between atoms: N_10  and  C_14
REMARK    5  A    between atoms: C_16  and  C_19
REMARK    6  A    between atoms: C_19  and  O_23
REMARK    7  A    between atoms: O_23  and  C_26
REMARK    8  A    between atoms: C_24  and  C_27
REMARK    9  A    between atoms: C_24  and  C_28
REMARK   10  A    between atoms: C_26  and  C_29
REMARK                            x       y       z     vdW  Elec       q    Type
REMARK                         _______ _______ _______ _____ _____    ______ ____
ROOT
ATOM      1  C   UNL     1     -11.346  54.836  50.268  0.00  0.00    +0.000 A 
ATOM      2  S   UNL     1     -11.708  55.105  51.907  0.00  0.00    +0.000 S 
ATOM      3  C   UNL     1     -12.187  55.507  49.397  0.00  0.00    +0.000 A 
ATOM      4  C   UNL     1     -12.826  56.329  51.509  0.00  0.00    +0.000 A 
ATOM      5  C   UNL     1     -12.992  56.458  50.141  0.00  0.00    +0.000 A 
ATOM      6  C   UNL     1     -13.533  57.168  52.548  0.00  0.00    +0.000 C 
ATOM      7  C   UNL     1     -13.949  57.453  49.553  0.00  0.00    +0.000 C 
ATOM      8  C   UNL     1     -14.791  57.866  51.942  0.00  0.00    +0.000 C 
ATOM      9  C   UNL     1     -14.424  58.487  50.572  0.00  0.00    +0.000 C 
ATOM     10  C   UNL     1     -15.276  59.006  52.854  0.00  0.00    +0.000 C 
ATOM     11  C   UNL     1     -15.943  56.850  51.797  0.00  0.00    +0.000 C 
ENDROOT
BRANCH   1  15
ATOM     12  N   UNL     1      -8.010  53.692  49.611  0.00  0.00    +0.000 N 
ATOM     13  C   UNL     1      -9.033  54.604  49.850  0.00  0.00    +0.000 C 
ATOM     14  O   UNL     1      -8.811  55.801  49.980  0.00  0.00    +0.000 OA
ATOM     15  N   UNL     1     -10.261  54.010  50.025  0.00  0.00    +0.000 N 
ATOM     16  H   UNL     1      -8.243  52.738  49.547  0.00  0.00    +0.000 HD
ATOM     17  H   UNL     1     -10.365  53.032  49.980  0.00  0.00    +0.000 HD
BRANCH  12  18
ATOM     18  S   UNL     1      -6.417  54.127  49.428  0.00  0.00    +0.000 S 
ATOM     19  O   UNL     1      -5.929  54.756  50.630  0.00  0.00    +0.000 OA
ATOM     20  O   UNL     1      -6.368  54.838  48.162  0.00  0.00    +0.000 OA
BRANCH  18  21
ATOM     21  C   UNL     1      -5.424  52.693  49.137  0.00  0.00    +0.000 A 
ATOM     22  N   UNL     1      -5.648  51.735  48.173  0.00  0.00    +0.000 N 
ATOM     23  C   UNL     1      -4.289  52.250  49.806  0.00  0.00    +0.000 A 
ATOM     24  N   UNL     1      -4.719  50.745  48.177  0.00  0.00    +0.000 NA
ATOM     25  C   UNL     1      -6.700  51.608  47.193  0.00  0.00    +0.000 C 
ATOM     26  C   UNL     1      -3.906  51.062  49.179  0.00  0.00    +0.000 A 
ENDBRANCH  18  21
ENDBRANCH  12  18
ENDBRANCH   1  15
BRANCH   3  27
ATOM     27  C   UNL     1     -12.223  55.270  47.946  0.00  0.00    +0.000 C 
ATOM     28  O   UNL     1     -12.275  56.159  47.104  0.00  0.00    +0.000 OA
BRANCH  27  29
ATOM     29  O   UNL     1     -12.151  53.945  47.649  0.00  0.00    +0.000 OA
BRANCH  29  30
ATOM     30  C   UNL     1     -11.155  53.511  46.720  0.00  0.00    +0.000 C 
ATOM     31  C   UNL     1     -11.802  53.166  45.394  0.00  0.00    +0.000 C 
ENDBRANCH  29  30
ENDBRANCH  27  29
ENDBRANCH   3  27
TORSDOF 6
ENDMDL
MODEL 6
REMARK VINA RESULT:      -6.8      1.673      2.199
REMARK  Name = 
REMARK  10 active torsions:
REMARK  status: ('A' for Active; 'I' for Inactive)
REMARK    1  A    between atoms: S_1  and  N_4
REMARK    2  A    between atoms: S_1  and  C_5
REMARK    3  A    between atoms: N_7  and  C_12
REMARK    4  A    between atoms: N_10  and  C_14
REMARK    5  A    between atoms: C_16  and  C_19
REMARK    6  A    between atoms: C_19  and  O_23
REMARK    7  A    between atoms: O_23  and  C_26
REMARK    8  A    between atoms: C_24  and  C_27
REMARK    9  A    between atoms: C_24  and  C_28
REMARK   10  A    between atoms: C_26  and  C_29
REMARK                            x       y       z     vdW  Elec       q    Type
REMARK                         _______ _______ _______ _____ _____    ______ ____
ROOT
ATOM      1  C   UNL     1     -11.020  54.018  51.813  0.00  0.00    +0.000 A 
ATOM      2  S   UNL     1     -10.058  54.945  52.865  0.00  0.00    +0.000 S 
ATOM      3  C   UNL     1     -10.294  53.145  51.022  0.00  0.00    +0.000 A 
ATOM      4  C   UNL     1      -8.674  54.025  52.489  0.00  0.00    +0.000 A 
ATOM      5  C   UNL     1      -8.924  53.090  51.498  0.00  0.00    +0.000 A 
ATOM      6  C   UNL     1      -7.343  54.220  53.176  0.00  0.00    +0.000 C 
ATOM      7  C   UNL     1      -7.846  52.183  50.980  0.00  0.00    +0.000 C 
ATOM      8  C   UNL     1      -6.185  53.585  52.344  0.00  0.00    +0.000 C 
ATOM      9  C   UNL     1      -6.607  52.172  51.872  0.00  0.00    +0.000 C 
ATOM     10  C   UNL     1      -4.918  53.429  53.203  0.00  0.00    +0.000 C 
ATOM     11  C   UNL     1      -5.838  54.488  51.143  0.00  0.00    +0.000 C 
ENDROOT
BRANCH   1  15
ATOM     12  N   UNL     1     -14.303  55.341  51.229  0.00  0.00    +0.000 N 
ATOM     13  C   UNL     1     -12.931  55.189  51.064  0.00  0.00    +0.000 C 
ATOM     14  O   UNL     1     -12.316  55.783  50.187  0.00  0.00    +0.000 OA
ATOM     15  N   UNL     1     -12.384  54.243  51.900  0.00  0.00    +0.000 N 
ATOM     16  H   UNL     1     -14.749  54.813  51.930  0.00  0.00    +0.000 HD
ATOM     17  H   UNL     1     -12.943  53.742  52.538  0.00  0.00    +0.000 HD
BRANCH  12  18
ATOM     18  S   UNL     1     -15.229  56.367  50.306  0.00  0.00    +0.000 S 
ATOM     19  O   UNL     1     -16.570  56.440  50.832  0.00  0.00    +0.000 OA
ATOM     20  O   UNL     1     -15.007  55.938  48.936  0.00  0.00    +0.000 OA
BRANCH  18  21
ATOM     21  C   UNL     1     -14.553  58.000  50.345  0.00  0.00    +0.000 A 
ATOM     22  N   UNL     1     -14.505  58.831  51.443  0.00  0.00    +0.000 N 
ATOM     23  C   UNL     1     -13.988  58.750  49.321  0.00  0.00    +0.000 A 
ATOM     24  N   UNL     1     -13.925  60.029  51.182  0.00  0.00    +0.000 NA
ATOM     25  C   UNL     1     -14.978  58.641  52.794  0.00  0.00    +0.000 C 
ATOM     26  C   UNL     1     -13.624  59.974  49.888  0.00  0.00    +0.000 A 
ENDBRANCH  18  21
ENDBRANCH  12  18
ENDBRANCH   1  15
BRANCH   3  27
ATOM     27  C   UNL     1     -10.860  52.400  49.889  0.00  0.00    +0.000 C 
ATOM     28  O   UNL     1     -11.853  51.686  49.961  0.00  0.00    +0.000 OA
BRANCH  27  29
ATOM     29  O   UNL     1     -10.173  52.632  48.738  0.00  0.00    +0.000 OA
BRANCH  29  30
ATOM     30  C   UNL     1     -10.388  53.870  48.057  0.00  0.00    +0.000 C 
ATOM     31  C   UNL     1     -11.699  53.820  47.299  0.00  0.00    +0.000 C 
ENDBRANCH  29  30
ENDBRANCH  27  29
ENDBRANCH   3  27
TORSDOF 6
ENDMDL
MODEL 7
REMARK VINA RESULT:      -6.6      3.748      7.433
REMARK  Name = 
REMARK  10 active torsions:
REMARK  status: ('A' for Active; 'I' for Inactive)
REMARK    1  A    between atoms: S_1  and  N_4
REMARK    2  A    between atoms: S_1  and  C_5
REMARK    3  A    between atoms: N_7  and  C_12
REMARK    4  A    between atoms: N_10  and  C_14
REMARK    5  A    between atoms: C_16  and  C_19
REMARK    6  A    between atoms: C_19  and  O_23
REMARK    7  A    between atoms: O_23  and  C_26
REMARK    8  A    between atoms: C_24  and  C_27
REMARK    9  A    between atoms: C_24  and  C_28
REMARK   10  A    between atoms: C_26  and  C_29
REMARK                            x       y       z     vdW  Elec       q    Type
REMARK                         _______ _______ _______ _____ _____    ______ ____
ROOT
ATOM      1  C   UNL     1     -11.334  54.665  50.542  0.00  0.00    +0.000 A 
ATOM      2  S   UNL     1     -11.565  55.172  52.149  0.00  0.00    +0.000 S 
ATOM      3  C   UNL     1     -12.272  55.173  49.660  0.00  0.00    +0.000 A 
ATOM      4  C   UNL     1     -12.759  56.293  51.674  0.00  0.00    +0.000 A 
ATOM      5  C   UNL     1     -13.047  56.206  50.323  0.00  0.00    +0.000 A 
ATOM      6  C   UNL     1     -13.406  57.262  52.634  0.00  0.00    +0.000 C 
ATOM      7  C   UNL     1     -14.088  57.075  49.681  0.00  0.00    +0.000 C 
ATOM      8  C   UNL     1     -14.738  57.827  52.047  0.00  0.00    +0.000 C 
ATOM      9  C   UNL     1     -14.513  58.240  50.572  0.00  0.00    +0.000 C 
ATOM     10  C   UNL     1     -15.186  59.082  52.817  0.00  0.00    +0.000 C 
ATOM     11  C   UNL     1     -15.857  56.773  52.161  0.00  0.00    +0.000 C 
ENDROOT
BRANCH   1  15
ATOM     12  N   UNL     1      -8.270  53.330  49.240  0.00  0.00    +0.000 N 
ATOM     13  C   UNL     1      -9.325  54.225  49.381  0.00  0.00    +0.000 C 
ATOM     14  O   UNL     1      -9.354  55.287  48.773  0.00  0.00    +0.000 OA
ATOM     15  N   UNL     1     -10.243  53.839  50.330  0.00  0.00    +0.000 N 
ATOM     16  H   UNL     1      -8.284  52.506  49.779  0.00  0.00    +0.000 HD
ATOM     17  H   UNL     1     -10.128  53.004  50.840  0.00  0.00    +0.000 HD
BRANCH  12  18
ATOM     18  S   UNL     1      -6.987  53.578  48.215  0.00  0.00    +0.000 S 
ATOM     19  O   UNL     1      -6.039  52.498  48.329  0.00  0.00    +0.000 OA
ATOM     20  O   UNL     1      -6.567  54.946  48.467  0.00  0.00    +0.000 OA
BRANCH  18  21
ATOM     21  C   UNL     1      -7.547  53.618  46.537  0.00  0.00    +0.000 A 
ATOM     22  N   UNL     1      -8.085  52.561  45.838  0.00  0.00    +0.000 N 
ATOM     23  C   UNL     1      -7.532  54.665  45.623  0.00  0.00    +0.000 A 
ATOM     24  N   UNL     1      -8.432  52.883  44.566  0.00  0.00    +0.000 NA
ATOM     25  C   UNL     1      -8.319  51.190  46.227  0.00  0.00    +0.000 C 
ATOM     26  C   UNL     1      -8.082  54.159  44.443  0.00  0.00    +0.000 A 
ENDBRANCH  18  21
ENDBRANCH  12  18
ENDBRANCH   1  15
BRANCH   3  27
ATOM     27  C   UNL     1     -12.423  54.716  48.271  0.00  0.00    +0.000 C 
ATOM     28  O   UNL     1     -12.448  55.462  47.299  0.00  0.00    +0.000 OA
BRANCH  27  29
ATOM     29  O   UNL     1     -12.492  53.360  48.191  0.00  0.00    +0.000 OA
BRANCH  29  30
ATOM     30  C   UNL     1     -11.882  52.715  47.070  0.00  0.00    +0.000 C 
ATOM     31  C   UNL     1     -12.481  51.337  46.878  0.00  0.00    +0.000 C 
ENDBRANCH  29  30
ENDBRANCH  27  29
ENDBRANCH   3  27
TORSDOF 6
ENDMDL
MODEL 8
REMARK VINA RESULT:      -6.6      4.425      8.248
REMARK  Name = 
REMARK  10 active torsions:
REMARK  status: ('A' for Active; 'I' for Inactive)
REMARK    1  A    between atoms: S_1  and  N_4
REMARK    2  A    between atoms: S_1  and  C_5
REMARK    3  A    between atoms: N_7  and  C_12
REMARK    4  A    between atoms: N_10  and  C_14
REMARK    5  A    between atoms: C_16  and  C_19
REMARK    6  A    between atoms: C_19  and  O_23
REMARK    7  A    between atoms: O_23  and  C_26
REMARK    8  A    between atoms: C_24  and  C_27
REMARK    9  A    between atoms: C_24  and  C_28
REMARK   10  A    between atoms: C_26  and  C_29
REMARK                            x       y       z     vdW  Elec       q    Type
REMARK                         _______ _______ _______ _____ _____    ______ ____
ROOT
ATOM      1  C   UNL     1     -10.839  55.715  48.501  0.00  0.00    +0.000 A 
ATOM      2  S   UNL     1     -12.314  56.062  47.729  0.00  0.00    +0.000 S 
ATOM      3  C   UNL     1     -10.877  55.889  49.873  0.00  0.00    +0.000 A 
ATOM      4  C   UNL     1     -13.120  56.199  49.225  0.00  0.00    +0.000 A 
ATOM      5  C   UNL     1     -12.252  56.080  50.297  0.00  0.00    +0.000 A 
ATOM      6  C   UNL     1     -14.610  56.415  49.340  0.00  0.00    +0.000 C 
ATOM      7  C   UNL     1     -12.729  56.196  51.715  0.00  0.00    +0.000 C 
ATOM      8  C   UNL     1     -14.991  56.943  50.759  0.00  0.00    +0.000 C 
ATOM      9  C   UNL     1     -14.249  56.110  51.833  0.00  0.00    +0.000 C 
ATOM     10  C   UNL     1     -16.501  56.788  51.013  0.00  0.00    +0.000 C 
ATOM     11  C   UNL     1     -14.639  58.439  50.880  0.00  0.00    +0.000 C 
ENDROOT
BRANCH   1  15
ATOM     12  N   UNL     1      -8.641  53.615  46.596  0.00  0.00    +0.000 N 
ATOM     13  C   UNL     1      -9.696  53.939  47.442  0.00  0.00    +0.000 C 
ATOM     14  O   UNL     1     -10.479  53.091  47.850  0.00  0.00    +0.000 OA
ATOM     15  N   UNL     1      -9.817  55.291  47.668  0.00  0.00    +0.000 N 
ATOM     16  H   UNL     1      -8.063  54.344  46.273  0.00  0.00    +0.000 HD
ATOM     17  H   UNL     1      -9.198  55.934  47.252  0.00  0.00    +0.000 HD
BRANCH  12  18
ATOM     18  S   UNL     1      -8.305  52.065  46.101  0.00  0.00    +0.000 S 
ATOM     19  O   UNL     1      -9.311  51.155  46.587  0.00  0.00    +0.000 OA
ATOM     20  O   UNL     1      -6.908  51.859  46.444  0.00  0.00    +0.000 OA
BRANCH  18  21
ATOM     21  C   UNL     1      -8.315  51.975  44.334  0.00  0.00    +0.000 A 
ATOM     22  N   UNL     1      -7.920  50.894  43.577  0.00  0.00    +0.000 N 
ATOM     23  C   UNL     1      -8.679  52.937  43.400  0.00  0.00    +0.000 A 
ATOM     24  N   UNL     1      -8.039  51.106  42.241  0.00  0.00    +0.000 NA
ATOM     25  C   UNL     1      -7.394  49.608  43.967  0.00  0.00    +0.000 C 
ATOM     26  C   UNL     1      -8.490  52.352  42.145  0.00  0.00    +0.000 A 
ENDBRANCH  18  21
ENDBRANCH  12  18
ENDBRANCH   1  15
BRANCH   3  27
ATOM     27  C   UNL     1      -9.687  55.867  50.735  0.00  0.00    +0.000 C 
ATOM     28  O   UNL     1      -9.591  55.207  51.763  0.00  0.00    +0.000 OA
BRANCH  27  29
ATOM     29  O   UNL     1      -8.686  56.640  50.234  0.00  0.00    +0.000 OA
BRANCH  29  30
ATOM     30  C   UNL     1      -7.356  56.422  50.710  0.00  0.00    +0.000 C 
ATOM     31  C   UNL     1      -6.609  55.510  49.758  0.00  0.00    +0.000 C 
ENDBRANCH  29  30
ENDBRANCH  27  29
ENDBRANCH   3  27
TORSDOF 6
ENDMDL
MODEL 9
REMARK VINA RESULT:      -6.6      2.484      4.836
REMARK  Name = 
REMARK  10 active torsions:
REMARK  status: ('A' for Active; 'I' for Inactive)
REMARK    1  A    between atoms: S_1  and  N_4
REMARK    2  A    between atoms: S_1  and  C_5
REMARK    3  A    between atoms: N_7  and  C_12
REMARK    4  A    between atoms: N_10  and  C_14
REMARK    5  A    between atoms: C_16  and  C_19
REMARK    6  A    between atoms: C_19  and  O_23
REMARK    7  A    between atoms: O_23  and  C_26
REMARK    8  A    between atoms: C_24  and  C_27
REMARK    9  A    between atoms: C_24  and  C_28
REMARK   10  A    between atoms: C_26  and  C_29
REMARK                            x       y       z     vdW  Elec       q    Type
REMARK                         _______ _______ _______ _____ _____    ______ ____
ROOT
ATOM      1  C   UNL     1     -11.106  53.901  48.815  0.00  0.00    +0.000 A 
ATOM      2  S   UNL     1     -11.615  52.738  47.683  0.00  0.00    +0.000 S 
ATOM      3  C   UNL     1      -9.884  54.473  48.511  0.00  0.00    +0.000 A 
ATOM      4  C   UNL     1     -10.350  53.152  46.617  0.00  0.00    +0.000 A 
ATOM      5  C   UNL     1      -9.495  54.094  47.165  0.00  0.00    +0.000 A 
ATOM      6  C   UNL     1     -10.206  52.554  45.238  0.00  0.00    +0.000 C 
ATOM      7  C   UNL     1      -8.290  54.591  46.422  0.00  0.00    +0.000 C 
ATOM      8  C   UNL     1      -8.760  52.760  44.686  0.00  0.00    +0.000 C 
ATOM      9  C   UNL     1      -8.318  54.222  44.941  0.00  0.00    +0.000 C 
ATOM     10  C   UNL     1      -8.716  52.519  43.167  0.00  0.00    +0.000 C 
ATOM     11  C   UNL     1      -7.791  51.765  45.355  0.00  0.00    +0.000 C 
ENDROOT
BRANCH   1  15
ATOM     12  N   UNL     1     -13.748  55.278  50.813  0.00  0.00    +0.000 N 
ATOM     13  C   UNL     1     -12.922  55.122  49.706  0.00  0.00    +0.000 C 
ATOM     14  O   UNL     1     -13.101  55.755  48.672  0.00  0.00    +0.000 OA
ATOM     15  N   UNL     1     -11.980  54.132  49.864  0.00  0.00    +0.000 N 
ATOM     16  H   UNL     1     -13.575  54.720  51.605  0.00  0.00    +0.000 HD
ATOM     17  H   UNL     1     -11.930  53.605  50.695  0.00  0.00    +0.000 HD
BRANCH  12  18
ATOM     18  S   UNL     1     -15.012  56.355  50.870  0.00  0.00    +0.000 S 
ATOM     19  O   UNL     1     -15.520  56.460  52.215  0.00  0.00    +0.000 OA
ATOM     20  O   UNL     1     -15.894  55.953  49.788  0.00  0.00    +0.000 OA
BRANCH  18  21
ATOM     21  C   UNL     1     -14.463  57.964  50.382  0.00  0.00    +0.000 A 
ATOM     22  N   UNL     1     -14.212  59.024  51.225  0.00  0.00    +0.000 N 
ATOM     23  C   UNL     1     -14.214  58.468  49.111  0.00  0.00    +0.000 A 
ATOM     24  N   UNL     1     -13.798  60.140  50.573  0.00  0.00    +0.000 NA
ATOM     25  C   UNL     1     -14.334  59.141  52.659  0.00  0.00    +0.000 C 
ATOM     26  C   UNL     1     -13.813  59.794  49.289  0.00  0.00    +0.000 A 
ENDBRANCH  18  21
ENDBRANCH  12  18
ENDBRANCH   1  15
BRANCH   3  27
ATOM     27  C   UNL     1      -9.129  55.334  49.434  0.00  0.00    +0.000 C 
ATOM     28  O   UNL     1      -9.308  56.540  49.553  0.00  0.00    +0.000 OA
BRANCH  27  29
ATOM     29  O   UNL     1      -8.234  54.622  50.169  0.00  0.00    +0.000 OA
BRANCH  29  30
ATOM     30  C   UNL     1      -7.029  55.270  50.584  0.00  0.00    +0.000 C 
ATOM     31  C   UNL     1      -5.997  55.199  49.477  0.00  0.00    +0.000 C 
ENDBRANCH  29  30
ENDBRANCH  27  29
ENDBRANCH   3  27
TORSDOF 6
ENDMDL
