MODEL 1
REMARK VINA RESULT:      -7.9      0.000      0.000
REMARK  Name = 
REMARK  9 active torsions:
REMARK  status: ('A' for Active; 'I' for Inactive)
REMARK    1  A    between atoms: S_1  and  N_4
REMARK    2  A    between atoms: S_1  and  N_5
REMARK    3  A    between atoms: N_12  and  C_13
REMARK    4  A    between atoms: C_15  and  C_18
REMARK    5  A    between atoms: C_18  and  O_22
REMARK    6  A    between atoms: O_22  and  C_25
REMARK    7  A    between atoms: C_23  and  C_26
REMARK    8  A    between atoms: C_23  and  C_27
REMARK    9  A    between atoms: C_25  and  C_28
REMARK                            x       y       z     vdW  Elec       q    Type
REMARK                         _______ _______ _______ _____ _____    ______ ____
ROOT
ATOM      1  C   UNL     1     -11.384  53.543  48.202  0.00  0.00    +0.000 A 
ATOM      2  S   UNL     1     -11.987  52.848  46.769  0.00  0.00    +0.000 S 
ATOM      3  C   UNL     1     -10.034  53.849  48.125  0.00  0.00    +0.000 A 
ATOM      4  C   UNL     1     -10.537  53.188  45.931  0.00  0.00    +0.000 A 
ATOM      5  C   UNL     1      -9.570  53.731  46.760  0.00  0.00    +0.000 A 
ATOM      6  C   UNL     1     -10.357  52.920  44.453  0.00  0.00    +0.000 C 
ATOM      7  C   UNL     1      -8.194  54.067  46.258  0.00  0.00    +0.000 C 
ATOM      8  C   UNL     1      -8.843  52.862  44.074  0.00  0.00    +0.000 C 
ATOM      9  C   UNL     1      -8.102  54.055  44.731  0.00  0.00    +0.000 C 
ATOM     10  C   UNL     1      -8.660  52.976  42.549  0.00  0.00    +0.000 C 
ATOM     11  C   UNL     1      -8.231  51.521  44.524  0.00  0.00    +0.000 C 
ENDROOT
BRANCH   1  15
ATOM     12  N   UNL     1     -13.983  55.112  50.200  0.00  0.00    +0.000 N 
ATOM     13  C   UNL     1     -12.977  54.982  49.218  0.00  0.00    +0.000 C 
ATOM     14  O   UNL     1     -12.766  55.864  48.398  0.00  0.00    +0.000 OA
ATOM     15  N   UNL     1     -12.320  53.761  49.209  0.00  0.00    +0.000 N 
ATOM     16  H   UNL     1     -14.158  54.403  50.859  0.00  0.00    +0.000 HD
ATOM     17  H   UNL     1     -12.510  53.073  49.888  0.00  0.00    +0.000 HD
BRANCH  12  18
ATOM     18  S   UNL     1     -14.862  56.539  50.180  0.00  0.00    +0.000 S 
ATOM     19  O   UNL     1     -14.773  57.092  48.851  0.00  0.00    +0.000 OA
ATOM     20  O   UNL     1     -16.122  56.359  50.861  0.00  0.00    +0.000 OA
BRANCH  18  21
ATOM     21  N   UNL     1     -13.918  57.548  51.181  0.00  0.00    +0.000 NA
ATOM     22  C   UNL     1     -13.804  57.161  52.609  0.00  0.00    +0.000 C 
ATOM     23  C   UNL     1     -14.450  58.960  51.198  0.00  0.00    +0.000 C 
ATOM     24  C   UNL     1     -14.957  57.857  53.303  0.00  0.00    +0.000 C 
ATOM     25  C   UNL     1     -15.043  59.193  52.590  0.00  0.00    +0.000 C 
ENDBRANCH  18  21
ENDBRANCH  12  18
ENDBRANCH   1  15
BRANCH   3  26
ATOM     26  C   UNL     1      -9.247  54.255  49.293  0.00  0.00    +0.000 C 
ATOM     27  O   UNL     1      -8.312  53.593  49.732  0.00  0.00    +0.000 OA
BRANCH  26  28
ATOM     28  O   UNL     1      -9.674  55.434  49.820  0.00  0.00    +0.000 OA
BRANCH  28  29
ATOM     29  C   UNL     1      -9.403  55.659  51.207  0.00  0.00    +0.000 C 
ATOM     30  C   UNL     1     -10.579  55.185  52.035  0.00  0.00    +0.000 C 
ENDBRANCH  28  29
ENDBRANCH  26  28
ENDBRANCH   3  26
TORSDOF 6
ENDMDL
MODEL 2
REMARK VINA RESULT:      -7.5      3.522      8.248
REMARK  Name = 
REMARK  9 active torsions:
REMARK  status: ('A' for Active; 'I' for Inactive)
REMARK    1  A    between atoms: S_1  and  N_4
REMARK    2  A    between atoms: S_1  and  N_5
REMARK    3  A    between atoms: N_12  and  C_13
REMARK    4  A    between atoms: C_15  and  C_18
REMARK    5  A    between atoms: C_18  and  O_22
REMARK    6  A    between atoms: O_22  and  C_25
REMARK    7  A    between atoms: C_23  and  C_26
REMARK    8  A    between atoms: C_23  and  C_27
REMARK    9  A    between atoms: C_25  and  C_28
REMARK                            x       y       z     vdW  Elec       q    Type
REMARK                         _______ _______ _______ _____ _____    ______ ____
ROOT
ATOM      1  C   UNL     1     -11.009  54.940  50.328  0.00  0.00    +0.000 A 
ATOM      2  S   UNL     1     -11.613  55.016  51.918  0.00  0.00    +0.000 S 
ATOM      3  C   UNL     1     -11.718  55.738  49.443  0.00  0.00    +0.000 A 
ATOM      4  C   UNL     1     -12.655  56.311  51.517  0.00  0.00    +0.000 A 
ATOM      5  C   UNL     1     -12.616  56.612  50.166  0.00  0.00    +0.000 A 
ATOM      6  C   UNL     1     -13.507  57.029  52.539  0.00  0.00    +0.000 C 
ATOM      7  C   UNL     1     -13.484  57.683  49.569  0.00  0.00    +0.000 C 
ATOM      8  C   UNL     1     -14.677  57.800  51.850  0.00  0.00    +0.000 C 
ATOM      9  C   UNL     1     -14.130  58.580  50.627  0.00  0.00    +0.000 C 
ATOM     10  C   UNL     1     -15.300  58.822  52.820  0.00  0.00    +0.000 C 
ATOM     11  C   UNL     1     -15.787  56.818  51.423  0.00  0.00    +0.000 C 
ENDROOT
BRANCH   1  15
ATOM     12  N   UNL     1      -7.534  53.878  50.291  0.00  0.00    +0.000 N 
ATOM     13  C   UNL     1      -8.643  54.745  50.393  0.00  0.00    +0.000 C 
ATOM     14  O   UNL     1      -8.514  55.909  50.744  0.00  0.00    +0.000 OA
ATOM     15  N   UNL     1      -9.873  54.155  50.149  0.00  0.00    +0.000 N 
ATOM     16  H   UNL     1      -7.633  52.940  50.013  0.00  0.00    +0.000 HD
ATOM     17  H   UNL     1      -9.941  53.215  49.862  0.00  0.00    +0.000 HD
BRANCH  12  18
ATOM     18  S   UNL     1      -6.038  54.535  50.672  0.00  0.00    +0.000 S 
ATOM     19  O   UNL     1      -5.707  55.495  49.649  0.00  0.00    +0.000 OA
ATOM     20  O   UNL     1      -5.974  54.850  52.080  0.00  0.00    +0.000 OA
BRANCH  18  21
ATOM     21  N   UNL     1      -4.998  53.203  50.433  0.00  0.00    +0.000 NA
ATOM     22  C   UNL     1      -5.602  51.853  50.535  0.00  0.00    +0.000 C 
ATOM     23  C   UNL     1      -3.865  53.204  51.430  0.00  0.00    +0.000 C 
ATOM     24  C   UNL     1      -5.466  51.465  51.994  0.00  0.00    +0.000 C 
ATOM     25  C   UNL     1      -4.116  52.035  52.386  0.00  0.00    +0.000 C 
ENDBRANCH  18  21
ENDBRANCH  12  18
ENDBRANCH   1  15
BRANCH   3  26
ATOM     26  C   UNL     1     -11.524  55.677  47.992  0.00  0.00    +0.000 C 
ATOM     27  O   UNL     1     -12.447  55.514  47.200  0.00  0.00    +0.000 OA
BRANCH  26  28
ATOM     28  O   UNL     1     -10.218  55.820  47.638  0.00  0.00    +0.000 OA
BRANCH  28  29
ATOM     29  C   UNL     1      -9.726  54.952  46.613  0.00  0.00    +0.000 C 
ATOM     30  C   UNL     1      -8.213  54.903  46.676  0.00  0.00    +0.000 C 
ENDBRANCH  28  29
ENDBRANCH  26  28
ENDBRANCH   3  26
TORSDOF 6
ENDMDL
MODEL 3
REMARK VINA RESULT:      -7.4      2.911      5.374
REMARK  Name = 
REMARK  9 active torsions:
REMARK  status: ('A' for Active; 'I' for Inactive)
REMARK    1  A    between atoms: S_1  and  N_4
REMARK    2  A    between atoms: S_1  and  N_5
REMARK    3  A    between atoms: N_12  and  C_13
REMARK    4  A    between atoms: C_15  and  C_18
REMARK    5  A    between atoms: C_18  and  O_22
REMARK    6  A    between atoms: O_22  and  C_25
REMARK    7  A    between atoms: C_23  and  C_26
REMARK    8  A    between atoms: C_23  and  C_27
REMARK    9  A    between atoms: C_25  and  C_28
REMARK                            x       y       z     vdW  Elec       q    Type
REMARK                         _______ _______ _______ _____ _____    ______ ____
ROOT
ATOM      1  C   UNL     1     -10.905  53.898  51.790  0.00  0.00    +0.000 A 
ATOM      2  S   UNL     1     -10.651  52.943  53.176  0.00  0.00    +0.000 S 
ATOM      3  C   UNL     1      -9.727  54.399  51.257  0.00  0.00    +0.000 A 
ATOM      4  C   UNL     1      -8.958  52.956  52.940  0.00  0.00    +0.000 A 
ATOM      5  C   UNL     1      -8.585  53.761  51.878  0.00  0.00    +0.000 A 
ATOM      6  C   UNL     1      -7.999  52.167  53.804  0.00  0.00    +0.000 C 
ATOM      7  C   UNL     1      -7.144  53.968  51.508  0.00  0.00    +0.000 C 
ATOM      8  C   UNL     1      -6.547  52.729  53.687  0.00  0.00    +0.000 C 
ATOM      9  C   UNL     1      -6.208  52.971  52.194  0.00  0.00    +0.000 C 
ATOM     10  C   UNL     1      -5.526  51.717  54.243  0.00  0.00    +0.000 C 
ATOM     11  C   UNL     1      -6.411  54.032  54.499  0.00  0.00    +0.000 C 
ENDROOT
BRANCH   1  15
ATOM     12  N   UNL     1     -14.217  55.232  51.114  0.00  0.00    +0.000 N 
ATOM     13  C   UNL     1     -12.919  55.150  51.664  0.00  0.00    +0.000 C 
ATOM     14  O   UNL     1     -12.435  56.073  52.302  0.00  0.00    +0.000 OA
ATOM     15  N   UNL     1     -12.224  53.991  51.353  0.00  0.00    +0.000 N 
ATOM     16  H   UNL     1     -14.609  54.493  50.598  0.00  0.00    +0.000 HD
ATOM     17  H   UNL     1     -12.645  53.263  50.841  0.00  0.00    +0.000 HD
BRANCH  12  18
ATOM     18  S   UNL     1     -15.052  56.660  51.391  0.00  0.00    +0.000 S 
ATOM     19  O   UNL     1     -16.100  56.754  50.405  0.00  0.00    +0.000 OA
ATOM     20  O   UNL     1     -15.300  56.828  52.803  0.00  0.00    +0.000 OA
BRANCH  18  21
ATOM     21  N   UNL     1     -13.890  57.835  50.968  0.00  0.00    +0.000 NA
ATOM     22  C   UNL     1     -14.133  59.221  51.437  0.00  0.00    +0.000 C 
ATOM     23  C   UNL     1     -13.741  57.948  49.470  0.00  0.00    +0.000 C 
ATOM     24  C   UNL     1     -14.936  59.880  50.333  0.00  0.00    +0.000 C 
ATOM     25  C   UNL     1     -14.336  59.300  49.067  0.00  0.00    +0.000 C 
ENDBRANCH  18  21
ENDBRANCH  12  18
ENDBRANCH   1  15
BRANCH   3  26
ATOM     26  C   UNL     1      -9.705  55.412  50.199  0.00  0.00    +0.000 C 
ATOM     27  O   UNL     1      -9.204  56.522  50.347  0.00  0.00    +0.000 OA
BRANCH  26  28
ATOM     28  O   UNL     1     -10.297  54.977  49.054  0.00  0.00    +0.000 OA
BRANCH  28  29
ATOM     29  C   UNL     1      -9.468  54.280  48.120  0.00  0.00    +0.000 C 
ATOM     30  C   UNL     1      -9.014  55.236  47.035  0.00  0.00    +0.000 C 
ENDBRANCH  28  29
ENDBRANCH  26  28
ENDBRANCH   3  26
TORSDOF 6
ENDMDL
MODEL 4
REMARK VINA RESULT:      -7.3      2.949      8.290
REMARK  Name = 
REMARK  9 active torsions:
REMARK  status: ('A' for Active; 'I' for Inactive)
REMARK    1  A    between atoms: S_1  and  N_4
REMARK    2  A    between atoms: S_1  and  N_5
REMARK    3  A    between atoms: N_12  and  C_13
REMARK    4  A    between atoms: C_15  and  C_18
REMARK    5  A    between atoms: C_18  and  O_22
REMARK    6  A    between atoms: O_22  and  C_25
REMARK    7  A    between atoms: C_23  and  C_26
REMARK    8  A    between atoms: C_23  and  C_27
REMARK    9  A    between atoms: C_25  and  C_28
REMARK                            x       y       z     vdW  Elec       q    Type
REMARK                         _______ _______ _______ _____ _____    ______ ____
ROOT
ATOM      1  C   UNL     1     -11.350  55.016  50.233  0.00  0.00    +0.000 A 
ATOM      2  S   UNL     1     -11.708  55.205  51.887  0.00  0.00    +0.000 S 
ATOM      3  C   UNL     1     -12.216  55.721  49.411  0.00  0.00    +0.000 A 
ATOM      4  C   UNL     1     -12.847  56.435  51.555  0.00  0.00    +0.000 A 
ATOM      5  C   UNL     1     -13.026  56.628  50.195  0.00  0.00    +0.000 A 
ATOM      6  C   UNL     1     -13.561  57.212  52.639  0.00  0.00    +0.000 C 
ATOM      7  C   UNL     1     -14.014  57.625  49.660  0.00  0.00    +0.000 C 
ATOM      8  C   UNL     1     -14.850  57.894  52.083  0.00  0.00    +0.000 C 
ATOM      9  C   UNL     1     -14.525  58.587  50.734  0.00  0.00    +0.000 C 
ATOM     10  C   UNL     1     -15.357  58.975  53.057  0.00  0.00    +0.000 C 
ATOM     11  C   UNL     1     -15.974  56.853  51.908  0.00  0.00    +0.000 C 
ENDROOT
BRANCH   1  15
ATOM     12  N   UNL     1      -7.884  53.958  49.966  0.00  0.00    +0.000 N 
ATOM     13  C   UNL     1      -8.984  54.814  50.187  0.00  0.00    +0.000 C 
ATOM     14  O   UNL     1      -8.837  55.943  50.633  0.00  0.00    +0.000 OA
ATOM     15  N   UNL     1     -10.226  54.248  49.941  0.00  0.00    +0.000 N 
ATOM     16  H   UNL     1      -7.998  53.048  49.610  0.00  0.00    +0.000 HD
ATOM     17  H   UNL     1     -10.310  53.337  49.576  0.00  0.00    +0.000 HD
BRANCH  12  18
ATOM     18  S   UNL     1      -6.372  54.578  50.343  0.00  0.00    +0.000 S 
ATOM     19  O   UNL     1      -6.171  55.763  49.547  0.00  0.00    +0.000 OA
ATOM     20  O   UNL     1      -6.167  54.560  51.772  0.00  0.00    +0.000 OA
BRANCH  18  21
ATOM     21  N   UNL     1      -5.333  53.387  49.697  0.00  0.00    +0.000 NA
ATOM     22  C   UNL     1      -4.534  53.767  48.507  0.00  0.00    +0.000 C 
ATOM     23  C   UNL     1      -6.100  52.156  49.280  0.00  0.00    +0.000 C 
ATOM     24  C   UNL     1      -5.396  53.401  47.315  0.00  0.00    +0.000 C 
ATOM     25  C   UNL     1      -6.070  52.114  47.750  0.00  0.00    +0.000 C 
ENDBRANCH  18  21
ENDBRANCH  12  18
ENDBRANCH   1  15
BRANCH   3  26
ATOM     26  C   UNL     1     -12.242  55.548  47.956  0.00  0.00    +0.000 C 
ATOM     27  O   UNL     1     -12.532  56.454  47.181  0.00  0.00    +0.000 OA
BRANCH  26  28
ATOM     28  O   UNL     1     -11.911  54.285  47.579  0.00  0.00    +0.000 OA
BRANCH  28  29
ATOM     29  C   UNL     1     -11.352  54.123  46.271  0.00  0.00    +0.000 C 
ATOM     30  C   UNL     1      -9.860  54.378  46.325  0.00  0.00    +0.000 C 
ENDBRANCH  28  29
ENDBRANCH  26  28
ENDBRANCH   3  26
TORSDOF 6
ENDMDL
MODEL 5
REMARK VINA RESULT:      -7.2      2.926      7.972
REMARK  Name = 
REMARK  9 active torsions:
REMARK  status: ('A' for Active; 'I' for Inactive)
REMARK    1  A    between atoms: S_1  and  N_4
REMARK    2  A    between atoms: S_1  and  N_5
REMARK    3  A    between atoms: N_12  and  C_13
REMARK    4  A    between atoms: C_15  and  C_18
REMARK    5  A    between atoms: C_18  and  O_22
REMARK    6  A    between atoms: O_22  and  C_25
REMARK    7  A    between atoms: C_23  and  C_26
REMARK    8  A    between atoms: C_23  and  C_27
REMARK    9  A    between atoms: C_25  and  C_28
REMARK                            x       y       z     vdW  Elec       q    Type
REMARK                         _______ _______ _______ _____ _____    ______ ____
ROOT
ATOM      1  C   UNL     1     -11.007  55.813  48.081  0.00  0.00    +0.000 A 
ATOM      2  S   UNL     1     -12.575  56.128  47.495  0.00  0.00    +0.000 S 
ATOM      3  C   UNL     1     -10.895  56.001  49.450  0.00  0.00    +0.000 A 
ATOM      4  C   UNL     1     -13.198  56.260  49.081  0.00  0.00    +0.000 A 
ATOM      5  C   UNL     1     -12.206  56.166  50.042  0.00  0.00    +0.000 A 
ATOM      6  C   UNL     1     -14.669  56.453  49.375  0.00  0.00    +0.000 C 
ATOM      7  C   UNL     1     -12.506  56.301  51.507  0.00  0.00    +0.000 C 
ATOM      8  C   UNL     1     -14.884  57.014  50.816  0.00  0.00    +0.000 C 
ATOM      9  C   UNL     1     -14.003  56.220  51.814  0.00  0.00    +0.000 C 
ATOM     10  C   UNL     1     -16.353  56.850  51.250  0.00  0.00    +0.000 C 
ATOM     11  C   UNL     1     -14.545  58.518  50.859  0.00  0.00    +0.000 C 
ENDROOT
BRANCH   1  15
ATOM     12  N   UNL     1      -9.040  53.580  45.995  0.00  0.00    +0.000 N 
ATOM     13  C   UNL     1      -9.907  53.988  47.031  0.00  0.00    +0.000 C 
ATOM     14  O   UNL     1     -10.501  53.176  47.724  0.00  0.00    +0.000 OA
ATOM     15  N   UNL     1     -10.089  55.359  47.137  0.00  0.00    +0.000 N 
ATOM     16  H   UNL     1      -8.562  54.231  45.432  0.00  0.00    +0.000 HD
ATOM     17  H   UNL     1      -9.590  55.987  46.566  0.00  0.00    +0.000 HD
BRANCH  12  18
ATOM     18  S   UNL     1      -8.869  51.927  45.775  0.00  0.00    +0.000 S 
ATOM     19  O   UNL     1      -7.829  51.470  46.664  0.00  0.00    +0.000 OA
ATOM     20  O   UNL     1     -10.165  51.294  45.711  0.00  0.00    +0.000 OA
BRANCH  18  21
ATOM     21  N   UNL     1      -8.220  51.846  44.199  0.00  0.00    +0.000 NA
ATOM     22  C   UNL     1      -8.527  52.975  43.288  0.00  0.00    +0.000 C 
ATOM     23  C   UNL     1      -8.694  50.612  43.471  0.00  0.00    +0.000 C 
ATOM     24  C   UNL     1      -9.810  52.580  42.584  0.00  0.00    +0.000 C 
ATOM     25  C   UNL     1      -9.652  51.086  42.375  0.00  0.00    +0.000 C 
ENDBRANCH  18  21
ENDBRANCH  12  18
ENDBRANCH   1  15
BRANCH   3  26
ATOM     26  C   UNL     1      -9.606  55.998  50.146  0.00  0.00    +0.000 C 
ATOM     27  O   UNL     1      -8.779  56.895  50.024  0.00  0.00    +0.000 OA
BRANCH  26  28
ATOM     28  O   UNL     1      -9.444  54.898  50.929  0.00  0.00    +0.000 OA
BRANCH  28  29
ATOM     29  C   UNL     1      -8.696  55.067  52.137  0.00  0.00    +0.000 C 
ATOM     30  C   UNL     1      -9.586  54.773  53.327  0.00  0.00    +0.000 C 
ENDBRANCH  28  29
ENDBRANCH  26  28
ENDBRANCH   3  26
TORSDOF 6
ENDMDL
MODEL 6
REMARK VINA RESULT:      -7.2      3.106      3.987
REMARK  Name = 
REMARK  9 active torsions:
REMARK  status: ('A' for Active; 'I' for Inactive)
REMARK    1  A    between atoms: S_1  and  N_4
REMARK    2  A    between atoms: S_1  and  N_5
REMARK    3  A    between atoms: N_12  and  C_13
REMARK    4  A    between atoms: C_15  and  C_18
REMARK    5  A    between atoms: C_18  and  O_22
REMARK    6  A    between atoms: O_22  and  C_25
REMARK    7  A    between atoms: C_23  and  C_26
REMARK    8  A    between atoms: C_23  and  C_27
REMARK    9  A    between atoms: C_25  and  C_28
REMARK                            x       y       z     vdW  Elec       q    Type
REMARK                         _______ _______ _______ _____ _____    ______ ____
ROOT
ATOM      1  C   UNL     1      -9.268  54.489  50.919  0.00  0.00    +0.000 A 
ATOM      2  S   UNL     1      -9.253  53.163  49.851  0.00  0.00    +0.000 S 
ATOM      3  C   UNL     1      -7.996  54.948  51.227  0.00  0.00    +0.000 A 
ATOM      4  C   UNL     1      -7.577  53.343  49.567  0.00  0.00    +0.000 A 
ATOM      5  C   UNL     1      -7.018  54.335  50.354  0.00  0.00    +0.000 A 
ATOM      6  C   UNL     1      -6.817  52.504  48.564  0.00  0.00    +0.000 C 
ATOM      7  C   UNL     1      -5.548  54.643  50.315  0.00  0.00    +0.000 C 
ATOM      8  C   UNL     1      -5.283  52.536  48.856  0.00  0.00    +0.000 C 
ATOM      9  C   UNL     1      -4.839  53.997  49.122  0.00  0.00    +0.000 C 
ATOM     10  C   UNL     1      -4.488  52.017  47.642  0.00  0.00    +0.000 C 
ATOM     11  C   UNL     1      -4.949  51.632  50.059  0.00  0.00    +0.000 C 
ENDROOT
BRANCH   1  15
ATOM     12  N   UNL     1     -12.484  56.173  50.760  0.00  0.00    +0.000 N 
ATOM     13  C   UNL     1     -11.173  55.805  50.389  0.00  0.00    +0.000 C 
ATOM     14  O   UNL     1     -10.689  56.153  49.322  0.00  0.00    +0.000 OA
ATOM     15  N   UNL     1     -10.527  54.961  51.280  0.00  0.00    +0.000 N 
ATOM     16  H   UNL     1     -12.879  55.892  51.616  0.00  0.00    +0.000 HD
ATOM     17  H   UNL     1     -10.944  54.703  52.135  0.00  0.00    +0.000 HD
BRANCH  12  18
ATOM     18  S   UNL     1     -13.331  57.116  49.662  0.00  0.00    +0.000 S 
ATOM     19  O   UNL     1     -12.649  58.382  49.552  0.00  0.00    +0.000 OA
ATOM     20  O   UNL     1     -13.697  56.331  48.507  0.00  0.00    +0.000 OA
BRANCH  18  21
ATOM     21  N   UNL     1     -14.780  57.426  50.508  0.00  0.00    +0.000 NA
ATOM     22  C   UNL     1     -15.049  58.834  50.888  0.00  0.00    +0.000 C 
ATOM     23  C   UNL     1     -14.838  56.651  51.801  0.00  0.00    +0.000 C 
ATOM     24  C   UNL     1     -14.426  59.001  52.259  0.00  0.00    +0.000 C 
ATOM     25  C   UNL     1     -14.697  57.670  52.934  0.00  0.00    +0.000 C 
ENDBRANCH  18  21
ENDBRANCH  12  18
ENDBRANCH   1  15
BRANCH   3  26
ATOM     26  C   UNL     1      -7.744  55.933  52.281  0.00  0.00    +0.000 C 
ATOM     27  O   UNL     1      -7.287  57.050  52.057  0.00  0.00    +0.000 OA
BRANCH  26  28
ATOM     28  O   UNL     1      -8.072  55.466  53.516  0.00  0.00    +0.000 OA
BRANCH  28  29
ATOM     29  C   UNL     1      -7.316  54.357  54.011  0.00  0.00    +0.000 C 
ATOM     30  C   UNL     1      -6.034  54.861  54.641  0.00  0.00    +0.000 C 
ENDBRANCH  28  29
ENDBRANCH  26  28
ENDBRANCH   3  26
TORSDOF 6
ENDMDL
MODEL 7
REMARK VINA RESULT:      -7.0      3.444      4.345
REMARK  Name = 
REMARK  9 active torsions:
REMARK  status: ('A' for Active; 'I' for Inactive)
REMARK    1  A    between atoms: S_1  and  N_4
REMARK    2  A    between atoms: S_1  and  N_5
REMARK    3  A    between atoms: N_12  and  C_13
REMARK    4  A    between atoms: C_15  and  C_18
REMARK    5  A    between atoms: C_18  and  O_22
REMARK    6  A    between atoms: O_22  and  C_25
REMARK    7  A    between atoms: C_23  and  C_26
REMARK    8  A    between atoms: C_23  and  C_27
REMARK    9  A    between atoms: C_25  and  C_28
REMARK                            x       y       z     vdW  Elec       q    Type
REMARK                         _______ _______ _______ _____ _____    ______ ____
ROOT
ATOM      1  C   UNL     1     -11.172  53.994  50.639  0.00  0.00    +0.000 A 
ATOM      2  S   UNL     1     -10.413  54.761  49.321  0.00  0.00    +0.000 S 
ATOM      3  C   UNL     1     -10.280  53.313  51.453  0.00  0.00    +0.000 A 
ATOM      4  C   UNL     1      -8.860  54.429  49.953  0.00  0.00    +0.000 A 
ATOM      5  C   UNL     1      -8.918  53.655  51.100  0.00  0.00    +0.000 A 
ATOM      6  C   UNL     1      -7.585  54.935  49.316  0.00  0.00    +0.000 C 
ATOM      7  C   UNL     1      -7.676  53.195  51.809  0.00  0.00    +0.000 C 
ATOM      8  C   UNL     1      -6.352  54.105  49.794  0.00  0.00    +0.000 C 
ATOM      9  C   UNL     1      -6.418  53.924  51.333  0.00  0.00    +0.000 C 
ATOM     10  C   UNL     1      -5.040  54.842  49.464  0.00  0.00    +0.000 C 
ATOM     11  C   UNL     1      -6.319  52.739  49.082  0.00  0.00    +0.000 C 
ENDROOT
BRANCH   1  15
ATOM     12  N   UNL     1     -14.359  55.558  51.415  0.00  0.00    +0.000 N 
ATOM     13  C   UNL     1     -12.964  55.347  51.415  0.00  0.00    +0.000 C 
ATOM     14  O   UNL     1     -12.194  56.161  51.903  0.00  0.00    +0.000 OA
ATOM     15  N   UNL     1     -12.544  54.203  50.752  0.00  0.00    +0.000 N 
ATOM     16  H   UNL     1     -14.982  54.907  51.020  0.00  0.00    +0.000 HD
ATOM     17  H   UNL     1     -13.191  53.564  50.374  0.00  0.00    +0.000 HD
BRANCH  12  18
ATOM     18  S   UNL     1     -14.896  56.979  52.125  0.00  0.00    +0.000 S 
ATOM     19  O   UNL     1     -16.150  56.697  52.779  0.00  0.00    +0.000 OA
ATOM     20  O   UNL     1     -13.805  57.646  52.795  0.00  0.00    +0.000 OA
BRANCH  18  21
ATOM     21  N   UNL     1     -15.272  57.933  50.761  0.00  0.00    +0.000 NA
ATOM     22  C   UNL     1     -14.526  57.645  49.512  0.00  0.00    +0.000 C 
ATOM     23  C   UNL     1     -15.035  59.399  51.032  0.00  0.00    +0.000 C 
ATOM     24  C   UNL     1     -13.299  58.533  49.569  0.00  0.00    +0.000 C 
ATOM     25  C   UNL     1     -13.817  59.811  50.201  0.00  0.00    +0.000 C 
ENDBRANCH  18  21
ENDBRANCH  12  18
ENDBRANCH   1  15
BRANCH   3  26
ATOM     26  C   UNL     1     -10.715  52.408  52.519  0.00  0.00    +0.000 C 
ATOM     27  O   UNL     1     -10.509  52.629  53.708  0.00  0.00    +0.000 OA
BRANCH  26  28
ATOM     28  O   UNL     1     -11.360  51.313  52.037  0.00  0.00    +0.000 OA
BRANCH  28  29
ATOM     29  C   UNL     1     -10.595  50.412  51.230  0.00  0.00    +0.000 C 
ATOM     30  C   UNL     1      -9.547  49.732  52.087  0.00  0.00    +0.000 C 
ENDBRANCH  28  29
ENDBRANCH  26  28
ENDBRANCH   3  26
TORSDOF 6
ENDMDL
MODEL 8
REMARK VINA RESULT:      -6.8      3.343      5.705
REMARK  Name = 
REMARK  9 active torsions:
REMARK  status: ('A' for Active; 'I' for Inactive)
REMARK    1  A    between atoms: S_1  and  N_4
REMARK    2  A    between atoms: S_1  and  N_5
REMARK    3  A    between atoms: N_12  and  C_13
REMARK    4  A    between atoms: C_15  and  C_18
REMARK    5  A    between atoms: C_18  and  O_22
REMARK    6  A    between atoms: O_22  and  C_25
REMARK    7  A    between atoms: C_23  and  C_26
REMARK    8  A    between atoms: C_23  and  C_27
REMARK    9  A    between atoms: C_25  and  C_28
REMARK                            x       y       z     vdW  Elec       q    Type
REMARK                         _______ _______ _______ _____ _____    ______ ____
ROOT
ATOM      1  C   UNL     1      -8.742  55.068  47.327  0.00  0.00    +0.000 A 
ATOM      2  S   UNL     1      -7.514  54.188  46.541  0.00  0.00    +0.000 S 
ATOM      3  C   UNL     1     -10.004  54.809  46.813  0.00  0.00    +0.000 A 
ATOM      4  C   UNL     1      -8.659  53.250  45.686  0.00  0.00    +0.000 A 
ATOM      5  C   UNL     1      -9.958  53.671  45.921  0.00  0.00    +0.000 A 
ATOM      6  C   UNL     1      -8.274  52.097  44.787  0.00  0.00    +0.000 C 
ATOM      7  C   UNL     1     -11.134  53.028  45.241  0.00  0.00    +0.000 C 
ATOM      8  C   UNL     1      -9.426  51.753  43.791  0.00  0.00    +0.000 C 
ATOM      9  C   UNL     1     -10.773  51.707  44.558  0.00  0.00    +0.000 C 
ATOM     10  C   UNL     1      -9.200  50.369  43.155  0.00  0.00    +0.000 C 
ATOM     11  C   UNL     1      -9.478  52.793  42.654  0.00  0.00    +0.000 C 
ENDROOT
BRANCH   1  15
ATOM     12  N   UNL     1      -7.852  56.110  50.692  0.00  0.00    +0.000 N 
ATOM     13  C   UNL     1      -8.372  55.298  49.662  0.00  0.00    +0.000 C 
ATOM     14  O   UNL     1      -8.758  54.159  49.878  0.00  0.00    +0.000 OA
ATOM     15  N   UNL     1      -8.329  55.860  48.395  0.00  0.00    +0.000 N 
ATOM     16  H   UNL     1      -7.537  57.026  50.522  0.00  0.00    +0.000 HD
ATOM     17  H   UNL     1      -8.017  56.784  48.255  0.00  0.00    +0.000 HD
BRANCH  12  18
ATOM     18  S   UNL     1      -7.800  55.426  52.223  0.00  0.00    +0.000 S 
ATOM     19  O   UNL     1      -7.068  56.325  53.081  0.00  0.00    +0.000 OA
ATOM     20  O   UNL     1      -9.096  54.899  52.579  0.00  0.00    +0.000 OA
BRANCH  18  21
ATOM     21  N   UNL     1      -6.788  54.076  51.971  0.00  0.00    +0.000 NA
ATOM     22  C   UNL     1      -7.152  52.822  52.676  0.00  0.00    +0.000 C 
ATOM     23  C   UNL     1      -5.368  54.365  52.392  0.00  0.00    +0.000 C 
ATOM     24  C   UNL     1      -6.427  52.889  54.005  0.00  0.00    +0.000 C 
ATOM     25  C   UNL     1      -5.103  53.538  53.652  0.00  0.00    +0.000 C 
ENDBRANCH  18  21
ENDBRANCH  12  18
ENDBRANCH   1  15
BRANCH   3  26
ATOM     26  C   UNL     1     -11.184  55.597  47.179  0.00  0.00    +0.000 C 
ATOM     27  O   UNL     1     -11.920  56.123  46.350  0.00  0.00    +0.000 OA
BRANCH  26  28
ATOM     28  O   UNL     1     -11.358  55.672  48.525  0.00  0.00    +0.000 OA
BRANCH  28  29
ATOM     29  C   UNL     1     -12.701  55.824  48.997  0.00  0.00    +0.000 C 
ATOM     30  C   UNL     1     -12.874  57.207  49.592  0.00  0.00    +0.000 C 
ENDBRANCH  28  29
ENDBRANCH  26  28
ENDBRANCH   3  26
TORSDOF 6
ENDMDL
MODEL 9
REMARK VINA RESULT:      -6.8      2.901      3.879
REMARK  Name = 
REMARK  9 active torsions:
REMARK  status: ('A' for Active; 'I' for Inactive)
REMARK    1  A    between atoms: S_1  and  N_4
REMARK    2  A    between atoms: S_1  and  N_5
REMARK    3  A    between atoms: N_12  and  C_13
REMARK    4  A    between atoms: C_15  and  C_18
REMARK    5  A    between atoms: C_18  and  O_22
REMARK    6  A    between atoms: O_22  and  C_25
REMARK    7  A    between atoms: C_23  and  C_26
REMARK    8  A    between atoms: C_23  and  C_27
REMARK    9  A    between atoms: C_25  and  C_28
REMARK                            x       y       z     vdW  Elec       q    Type
REMARK                         _______ _______ _______ _____ _____    ______ ____
ROOT
ATOM      1  C   UNL     1     -10.608  53.646  51.081  0.00  0.00    +0.000 A 
ATOM      2  S   UNL     1     -10.190  53.213  49.489  0.00  0.00    +0.000 S 
ATOM      3  C   UNL     1      -9.503  53.852  51.892  0.00  0.00    +0.000 A 
ATOM      4  C   UNL     1      -8.539  53.550  49.774  0.00  0.00    +0.000 A 
ATOM      5  C   UNL     1      -8.296  53.891  51.094  0.00  0.00    +0.000 A 
ATOM      6  C   UNL     1      -7.484  53.481  48.692  0.00  0.00    +0.000 C 
ATOM      7  C   UNL     1      -6.911  54.184  51.595  0.00  0.00    +0.000 C 
ATOM      8  C   UNL     1      -6.055  53.357  49.309  0.00  0.00    +0.000 C 
ATOM      9  C   UNL     1      -5.901  54.381  50.462  0.00  0.00    +0.000 C 
ATOM     10  C   UNL     1      -4.978  53.670  48.254  0.00  0.00    +0.000 C 
ATOM     11  C   UNL     1      -5.815  51.920  49.816  0.00  0.00    +0.000 C 
ENDROOT
BRANCH   1  15
ATOM     12  N   UNL     1     -13.986  54.986  51.038  0.00  0.00    +0.000 N 
ATOM     13  C   UNL     1     -12.589  54.935  50.844  0.00  0.00    +0.000 C 
ATOM     14  O   UNL     1     -11.998  55.808  50.224  0.00  0.00    +0.000 OA
ATOM     15  N   UNL     1     -11.971  53.793  51.329  0.00  0.00    +0.000 N 
ATOM     16  H   UNL     1     -14.466  54.284  51.533  0.00  0.00    +0.000 HD
ATOM     17  H   UNL     1     -12.476  53.112  51.830  0.00  0.00    +0.000 HD
BRANCH  12  18
ATOM     18  S   UNL     1     -14.782  56.308  50.380  0.00  0.00    +0.000 S 
ATOM     19  O   UNL     1     -14.559  56.290  48.956  0.00  0.00    +0.000 OA
ATOM     20  O   UNL     1     -16.099  56.436  50.957  0.00  0.00    +0.000 OA
BRANCH  18  21
ATOM     21  N   UNL     1     -13.865  57.610  50.992  0.00  0.00    +0.000 NA
ATOM     22  C   UNL     1     -14.448  58.368  52.126  0.00  0.00    +0.000 C 
ATOM     23  C   UNL     1     -13.596  58.643  49.925  0.00  0.00    +0.000 C 
ATOM     24  C   UNL     1     -15.260  59.477  51.487  0.00  0.00    +0.000 C 
ATOM     25  C   UNL     1     -14.426  59.878  50.286  0.00  0.00    +0.000 C 
ENDBRANCH  18  21
ENDBRANCH  12  18
ENDBRANCH   1  15
BRANCH   3  26
ATOM     26  C   UNL     1      -9.607  54.024  53.344  0.00  0.00    +0.000 C 
ATOM     27  O   UNL     1      -9.293  55.062  53.918  0.00  0.00    +0.000 OA
BRANCH  26  28
ATOM     28  O   UNL     1     -10.086  52.912  53.963  0.00  0.00    +0.000 OA
BRANCH  28  29
ATOM     29  C   UNL     1      -9.374  51.691  53.744  0.00  0.00    +0.000 C 
ATOM     30  C   UNL     1      -8.077  51.714  54.527  0.00  0.00    +0.000 C 
ENDBRANCH  28  29
ENDBRANCH  26  28
ENDBRANCH   3  26
TORSDOF 6
ENDMDL
