MODEL 1
REMARK VINA RESULT:      -7.7      0.000      0.000
REMARK  Name = 
REMARK  9 active torsions:
REMARK  status: ('A' for Active; 'I' for Inactive)
REMARK    1  A    between atoms: S_1  and  N_4
REMARK    2  A    between atoms: S_1  and  C_5
REMARK    3  A    between atoms: N_10  and  C_13
REMARK    4  A    between atoms: C_16  and  C_19
REMARK    5  A    between atoms: C_19  and  O_23
REMARK    6  A    between atoms: O_23  and  C_26
REMARK    7  A    between atoms: C_24  and  C_27
REMARK    8  A    between atoms: C_24  and  C_28
REMARK    9  A    between atoms: C_26  and  C_29
REMARK                            x       y       z     vdW  Elec       q    Type
REMARK                         _______ _______ _______ _____ _____    ______ ____
ROOT
ATOM      1  C   UNL     1     -10.920  54.397  51.452  0.00  0.00    +0.000 A 
ATOM      2  S   UNL     1     -10.543  53.775  52.988  0.00  0.00    +0.000 S 
ATOM      3  C   UNL     1      -9.816  54.884  50.769  0.00  0.00    +0.000 A 
ATOM      4  C   UNL     1      -8.870  53.872  52.670  0.00  0.00    +0.000 A 
ATOM      5  C   UNL     1      -8.608  54.472  51.450  0.00  0.00    +0.000 A 
ATOM      6  C   UNL     1      -7.825  53.358  53.630  0.00  0.00    +0.000 C 
ATOM      7  C   UNL     1      -7.206  54.716  50.972  0.00  0.00    +0.000 C 
ATOM      8  C   UNL     1      -6.423  53.965  53.309  0.00  0.00    +0.000 C 
ATOM      9  C   UNL     1      -6.177  53.916  51.778  0.00  0.00    +0.000 C 
ATOM     10  C   UNL     1      -5.309  53.149  53.995  0.00  0.00    +0.000 C 
ATOM     11  C   UNL     1      -6.337  55.412  53.837  0.00  0.00    +0.000 C 
ENDROOT
BRANCH   1  15
ATOM     12  N   UNL     1     -14.406  55.217  51.128  0.00  0.00    +0.000 N 
ATOM     13  C   UNL     1     -13.073  55.371  51.477  0.00  0.00    +0.000 C 
ATOM     14  O   UNL     1     -12.677  56.386  52.028  0.00  0.00    +0.000 OA
ATOM     15  N   UNL     1     -12.257  54.325  51.098  0.00  0.00    +0.000 N 
ATOM     16  H   UNL     1     -14.707  54.363  50.740  0.00  0.00    +0.000 HD
ATOM     17  H   UNL     1     -12.611  53.558  50.595  0.00  0.00    +0.000 HD
BRANCH  12  18
ATOM     18  S   UNL     1     -15.516  56.458  51.353  0.00  0.00    +0.000 S 
ATOM     19  O   UNL     1     -15.635  56.708  52.773  0.00  0.00    +0.000 OA
ATOM     20  O   UNL     1     -16.692  56.057  50.593  0.00  0.00    +0.000 OA
BRANCH  18  21
ATOM     21  C   UNL     1     -14.769  57.886  50.516  0.00  0.00    +0.000 A 
ATOM     22  N   UNL     1     -14.369  57.654  49.243  0.00  0.00    +0.000 NA
ATOM     23  N   UNL     1     -14.663  59.029  51.222  0.00  0.00    +0.000 NA
ATOM     24  C   UNL     1     -13.817  58.720  48.636  0.00  0.00    +0.000 A 
ATOM     25  C   UNL     1     -14.062  60.034  50.564  0.00  0.00    +0.000 A 
ATOM     26  C   UNL     1     -13.626  59.939  49.258  0.00  0.00    +0.000 A 
ENDBRANCH  18  21
ENDBRANCH  12  18
ENDBRANCH   1  15
BRANCH   3  27
ATOM     27  C   UNL     1      -9.866  55.739  49.571  0.00  0.00    +0.000 C 
ATOM     28  O   UNL     1      -9.553  56.924  49.577  0.00  0.00    +0.000 OA
BRANCH  27  29
ATOM     29  O   UNL     1     -10.451  55.112  48.508  0.00  0.00    +0.000 OA
BRANCH  29  30
ATOM     30  C   UNL     1     -11.583  55.744  47.901  0.00  0.00    +0.000 C 
ATOM     31  C   UNL     1     -11.703  55.358  46.441  0.00  0.00    +0.000 C 
ENDBRANCH  29  30
ENDBRANCH  27  29
ENDBRANCH   3  27
TORSDOF 6
ENDMDL
MODEL 2
REMARK VINA RESULT:      -7.5      2.996      7.596
REMARK  Name = 
REMARK  9 active torsions:
REMARK  status: ('A' for Active; 'I' for Inactive)
REMARK    1  A    between atoms: S_1  and  N_4
REMARK    2  A    between atoms: S_1  and  C_5
REMARK    3  A    between atoms: N_10  and  C_13
REMARK    4  A    between atoms: C_16  and  C_19
REMARK    5  A    between atoms: C_19  and  O_23
REMARK    6  A    between atoms: O_23  and  C_26
REMARK    7  A    between atoms: C_24  and  C_27
REMARK    8  A    between atoms: C_24  and  C_28
REMARK    9  A    between atoms: C_26  and  C_29
REMARK                            x       y       z     vdW  Elec       q    Type
REMARK                         _______ _______ _______ _____ _____    ______ ____
ROOT
ATOM      1  C   UNL     1     -11.100  54.925  50.200  0.00  0.00    +0.000 A 
ATOM      2  S   UNL     1     -11.764  54.938  51.765  0.00  0.00    +0.000 S 
ATOM      3  C   UNL     1     -11.737  55.791  49.324  0.00  0.00    +0.000 A 
ATOM      4  C   UNL     1     -12.724  56.298  51.398  0.00  0.00    +0.000 A 
ATOM      5  C   UNL     1     -12.616  56.667  50.068  0.00  0.00    +0.000 A 
ATOM      6  C   UNL     1     -13.583  56.994  52.426  0.00  0.00    +0.000 C 
ATOM      7  C   UNL     1     -13.406  57.808  49.493  0.00  0.00    +0.000 C 
ATOM      8  C   UNL     1     -14.664  57.889  51.741  0.00  0.00    +0.000 C 
ATOM      9  C   UNL     1     -14.011  58.695  50.587  0.00  0.00    +0.000 C 
ATOM     10  C   UNL     1     -15.251  58.896  52.749  0.00  0.00    +0.000 C 
ATOM     11  C   UNL     1     -15.823  57.015  51.220  0.00  0.00    +0.000 C 
ENDROOT
BRANCH   1  15
ATOM     12  N   UNL     1      -7.733  53.673  50.043  0.00  0.00    +0.000 N 
ATOM     13  C   UNL     1      -8.766  54.567  50.281  0.00  0.00    +0.000 C 
ATOM     14  O   UNL     1      -8.546  55.679  50.734  0.00  0.00    +0.000 OA
ATOM     15  N   UNL     1     -10.026  54.069  50.022  0.00  0.00    +0.000 N 
ATOM     16  H   UNL     1      -7.934  52.806  49.621  0.00  0.00    +0.000 HD
ATOM     17  H   UNL     1     -10.156  53.141  49.721  0.00  0.00    +0.000 HD
BRANCH  12  18
ATOM     18  S   UNL     1      -6.147  54.039  50.462  0.00  0.00    +0.000 S 
ATOM     19  O   UNL     1      -5.854  55.377  49.997  0.00  0.00    +0.000 OA
ATOM     20  O   UNL     1      -5.358  52.918  49.972  0.00  0.00    +0.000 OA
BRANCH  18  21
ATOM     21  C   UNL     1      -6.137  53.979  52.277  0.00  0.00    +0.000 A 
ATOM     22  N   UNL     1      -6.239  52.737  52.806  0.00  0.00    +0.000 NA
ATOM     23  N   UNL     1      -6.048  55.154  52.932  0.00  0.00    +0.000 NA
ATOM     24  C   UNL     1      -6.230  52.709  54.151  0.00  0.00    +0.000 A 
ATOM     25  C   UNL     1      -6.090  55.047  54.270  0.00  0.00    +0.000 A 
ATOM     26  C   UNL     1      -6.171  53.843  54.939  0.00  0.00    +0.000 A 
ENDBRANCH  18  21
ENDBRANCH  12  18
ENDBRANCH   1  15
BRANCH   3  27
ATOM     27  C   UNL     1     -11.588  55.781  47.859  0.00  0.00    +0.000 C 
ATOM     28  O   UNL     1     -12.529  55.630  47.088  0.00  0.00    +0.000 OA
BRANCH  27  29
ATOM     29  O   UNL     1     -10.279  55.791  47.468  0.00  0.00    +0.000 OA
BRANCH  29  30
ATOM     30  C   UNL     1      -9.857  54.804  46.522  0.00  0.00    +0.000 C 
ATOM     31  C   UNL     1      -8.358  54.853  46.316  0.00  0.00    +0.000 C 
ENDBRANCH  29  30
ENDBRANCH  27  29
ENDBRANCH   3  27
TORSDOF 6
ENDMDL
MODEL 3
REMARK VINA RESULT:      -7.2      3.525      8.162
REMARK  Name = 
REMARK  9 active torsions:
REMARK  status: ('A' for Active; 'I' for Inactive)
REMARK    1  A    between atoms: S_1  and  N_4
REMARK    2  A    between atoms: S_1  and  C_5
REMARK    3  A    between atoms: N_10  and  C_13
REMARK    4  A    between atoms: C_16  and  C_19
REMARK    5  A    between atoms: C_19  and  O_23
REMARK    6  A    between atoms: O_23  and  C_26
REMARK    7  A    between atoms: C_24  and  C_27
REMARK    8  A    between atoms: C_24  and  C_28
REMARK    9  A    between atoms: C_26  and  C_29
REMARK                            x       y       z     vdW  Elec       q    Type
REMARK                         _______ _______ _______ _____ _____    ______ ____
ROOT
ATOM      1  C   UNL     1     -10.913  54.982  50.262  0.00  0.00    +0.000 A 
ATOM      2  S   UNL     1     -11.550  54.988  51.838  0.00  0.00    +0.000 S 
ATOM      3  C   UNL     1     -11.620  55.784  49.379  0.00  0.00    +0.000 A 
ATOM      4  C   UNL     1     -12.603  56.276  51.459  0.00  0.00    +0.000 A 
ATOM      5  C   UNL     1     -12.541  56.619  50.119  0.00  0.00    +0.000 A 
ATOM      6  C   UNL     1     -13.488  56.938  52.487  0.00  0.00    +0.000 C 
ATOM      7  C   UNL     1     -13.413  57.693  49.534  0.00  0.00    +0.000 C 
ATOM      8  C   UNL     1     -14.636  57.745  51.802  0.00  0.00    +0.000 C 
ATOM      9  C   UNL     1     -14.056  58.564  50.618  0.00  0.00    +0.000 C 
ATOM     10  C   UNL     1     -15.270  58.736  52.798  0.00  0.00    +0.000 C 
ATOM     11  C   UNL     1     -15.744  56.787  51.322  0.00  0.00    +0.000 C 
ENDROOT
BRANCH   1  15
ATOM     12  N   UNL     1      -7.475  53.954  50.038  0.00  0.00    +0.000 N 
ATOM     13  C   UNL     1      -8.559  54.788  50.273  0.00  0.00    +0.000 C 
ATOM     14  O   UNL     1      -8.401  55.932  50.666  0.00  0.00    +0.000 OA
ATOM     15  N   UNL     1      -9.789  54.193  50.084  0.00  0.00    +0.000 N 
ATOM     16  H   UNL     1      -7.630  53.056  49.664  0.00  0.00    +0.000 HD
ATOM     17  H   UNL     1      -9.865  53.245  49.832  0.00  0.00    +0.000 HD
BRANCH  12  18
ATOM     18  S   UNL     1      -5.905  54.447  50.380  0.00  0.00    +0.000 S 
ATOM     19  O   UNL     1      -5.782  54.607  51.812  0.00  0.00    +0.000 OA
ATOM     20  O   UNL     1      -5.668  55.587  49.505  0.00  0.00    +0.000 OA
BRANCH  18  21
ATOM     21  C   UNL     1      -4.868  53.073  49.802  0.00  0.00    +0.000 A 
ATOM     22  N   UNL     1      -4.267  52.361  50.784  0.00  0.00    +0.000 NA
ATOM     23  N   UNL     1      -4.773  52.890  48.470  0.00  0.00    +0.000 NA
ATOM     24  C   UNL     1      -3.503  51.346  50.340  0.00  0.00    +0.000 A 
ATOM     25  C   UNL     1      -3.958  51.887  48.104  0.00  0.00    +0.000 A 
ATOM     26  C   UNL     1      -3.301  51.071  49.001  0.00  0.00    +0.000 A 
ENDBRANCH  18  21
ENDBRANCH  12  18
ENDBRANCH   1  15
BRANCH   3  27
ATOM     27  C   UNL     1     -11.495  55.749  47.913  0.00  0.00    +0.000 C 
ATOM     28  O   UNL     1     -12.451  55.600  47.159  0.00  0.00    +0.000 OA
BRANCH  27  29
ATOM     29  O   UNL     1     -10.193  55.736  47.501  0.00  0.00    +0.000 OA
BRANCH  29  30
ATOM     30  C   UNL     1      -9.813  54.764  46.521  0.00  0.00    +0.000 C 
ATOM     31  C   UNL     1      -8.370  54.951  46.100  0.00  0.00    +0.000 C 
ENDBRANCH  29  30
ENDBRANCH  27  29
ENDBRANCH   3  27
TORSDOF 6
ENDMDL
MODEL 4
REMARK VINA RESULT:      -6.9      2.544      3.920
REMARK  Name = 
REMARK  9 active torsions:
REMARK  status: ('A' for Active; 'I' for Inactive)
REMARK    1  A    between atoms: S_1  and  N_4
REMARK    2  A    between atoms: S_1  and  C_5
REMARK    3  A    between atoms: N_10  and  C_13
REMARK    4  A    between atoms: C_16  and  C_19
REMARK    5  A    between atoms: C_19  and  O_23
REMARK    6  A    between atoms: O_23  and  C_26
REMARK    7  A    between atoms: C_24  and  C_27
REMARK    8  A    between atoms: C_24  and  C_28
REMARK    9  A    between atoms: C_26  and  C_29
REMARK                            x       y       z     vdW  Elec       q    Type
REMARK                         _______ _______ _______ _____ _____    ______ ____
ROOT
ATOM      1  C   UNL     1     -11.476  53.461  49.904  0.00  0.00    +0.000 A 
ATOM      2  S   UNL     1     -10.994  53.999  48.365  0.00  0.00    +0.000 S 
ATOM      3  C   UNL     1     -10.512  52.702  50.549  0.00  0.00    +0.000 A 
ATOM      4  C   UNL     1      -9.391  53.482  48.634  0.00  0.00    +0.000 A 
ATOM      5  C   UNL     1      -9.256  52.813  49.838  0.00  0.00    +0.000 A 
ATOM      6  C   UNL     1      -8.274  53.738  47.651  0.00  0.00    +0.000 C 
ATOM      7  C   UNL     1      -7.947  52.219  50.274  0.00  0.00    +0.000 C 
ATOM      8  C   UNL     1      -7.060  52.795  47.924  0.00  0.00    +0.000 C 
ATOM      9  C   UNL     1      -6.772  52.753  49.449  0.00  0.00    +0.000 C 
ATOM     10  C   UNL     1      -5.795  53.321  47.217  0.00  0.00    +0.000 C 
ATOM     11  C   UNL     1      -7.351  51.383  47.377  0.00  0.00    +0.000 C 
ENDROOT
BRANCH   1  15
ATOM     12  N   UNL     1     -14.142  55.358  51.393  0.00  0.00    +0.000 N 
ATOM     13  C   UNL     1     -12.852  55.042  50.994  0.00  0.00    +0.000 C 
ATOM     14  O   UNL     1     -11.920  55.799  51.213  0.00  0.00    +0.000 OA
ATOM     15  N   UNL     1     -12.743  53.857  50.297  0.00  0.00    +0.000 N 
ATOM     16  H   UNL     1     -14.863  54.702  51.257  0.00  0.00    +0.000 HD
ATOM     17  H   UNL     1     -13.536  53.314  50.086  0.00  0.00    +0.000 HD
BRANCH  12  18
ATOM     18  S   UNL     1     -14.497  56.840  52.103  0.00  0.00    +0.000 S 
ATOM     19  O   UNL     1     -13.506  57.104  53.123  0.00  0.00    +0.000 OA
ATOM     20  O   UNL     1     -15.903  56.756  52.472  0.00  0.00    +0.000 OA
BRANCH  18  21
ATOM     21  C   UNL     1     -14.346  58.036  50.744  0.00  0.00    +0.000 A 
ATOM     22  N   UNL     1     -14.294  57.488  49.507  0.00  0.00    +0.000 NA
ATOM     23  N   UNL     1     -14.284  59.341  51.075  0.00  0.00    +0.000 NA
ATOM     24  C   UNL     1     -14.182  58.385  48.511  0.00  0.00    +0.000 A 
ATOM     25  C   UNL     1     -14.128  60.171  50.031  0.00  0.00    +0.000 A 
ATOM     26  C   UNL     1     -14.081  59.748  48.718  0.00  0.00    +0.000 A 
ENDBRANCH  18  21
ENDBRANCH  12  18
ENDBRANCH   1  15
BRANCH   3  27
ATOM     27  C   UNL     1     -10.744  51.864  51.737  0.00  0.00    +0.000 C 
ATOM     28  O   UNL     1     -10.855  50.644  51.689  0.00  0.00    +0.000 OA
BRANCH  27  29
ATOM     29  O   UNL     1     -10.984  52.606  52.859  0.00  0.00    +0.000 OA
BRANCH  29  30
ATOM     30  C   UNL     1      -9.858  53.032  53.632  0.00  0.00    +0.000 C 
ATOM     31  C   UNL     1      -9.676  54.533  53.547  0.00  0.00    +0.000 C 
ENDBRANCH  29  30
ENDBRANCH  27  29
ENDBRANCH   3  27
TORSDOF 6
ENDMDL
MODEL 5
REMARK VINA RESULT:      -6.8      3.687      7.391
REMARK  Name = 
REMARK  9 active torsions:
REMARK  status: ('A' for Active; 'I' for Inactive)
REMARK    1  A    between atoms: S_1  and  N_4
REMARK    2  A    between atoms: S_1  and  C_5
REMARK    3  A    between atoms: N_10  and  C_13
REMARK    4  A    between atoms: C_16  and  C_19
REMARK    5  A    between atoms: C_19  and  O_23
REMARK    6  A    between atoms: O_23  and  C_26
REMARK    7  A    between atoms: C_24  and  C_27
REMARK    8  A    between atoms: C_24  and  C_28
REMARK    9  A    between atoms: C_26  and  C_29
REMARK                            x       y       z     vdW  Elec       q    Type
REMARK                         _______ _______ _______ _____ _____    ______ ____
ROOT
ATOM      1  C   UNL     1      -8.725  55.046  47.428  0.00  0.00    +0.000 A 
ATOM      2  S   UNL     1      -7.498  54.309  46.511  0.00  0.00    +0.000 S 
ATOM      3  C   UNL     1     -10.003  54.722  46.999  0.00  0.00    +0.000 A 
ATOM      4  C   UNL     1      -8.629  53.317  45.706  0.00  0.00    +0.000 A 
ATOM      5  C   UNL     1      -9.932  53.624  46.059  0.00  0.00    +0.000 A 
ATOM      6  C   UNL     1      -8.222  52.242  44.728  0.00  0.00    +0.000 C 
ATOM      7  C   UNL     1     -11.107  52.920  45.444  0.00  0.00    +0.000 C 
ATOM      8  C   UNL     1      -9.427  51.815  43.832  0.00  0.00    +0.000 C 
ATOM      9  C   UNL     1     -10.691  51.637  44.715  0.00  0.00    +0.000 C 
ATOM     10  C   UNL     1      -9.139  50.468  43.141  0.00  0.00    +0.000 C 
ATOM     11  C   UNL     1      -9.667  52.866  42.729  0.00  0.00    +0.000 C 
ENDROOT
BRANCH   1  15
ATOM     12  N   UNL     1      -7.648  56.113  50.688  0.00  0.00    +0.000 N 
ATOM     13  C   UNL     1      -8.047  55.245  49.682  0.00  0.00    +0.000 C 
ATOM     14  O   UNL     1      -8.120  54.042  49.878  0.00  0.00    +0.000 OA
ATOM     15  N   UNL     1      -8.284  55.850  48.465  0.00  0.00    +0.000 N 
ATOM     16  H   UNL     1      -7.656  57.083  50.519  0.00  0.00    +0.000 HD
ATOM     17  H   UNL     1      -8.146  56.816  48.339  0.00  0.00    +0.000 HD
BRANCH  12  18
ATOM     18  S   UNL     1      -7.150  55.540  52.188  0.00  0.00    +0.000 S 
ATOM     19  O   UNL     1      -6.997  56.672  53.076  0.00  0.00    +0.000 OA
ATOM     20  O   UNL     1      -6.004  54.687  51.906  0.00  0.00    +0.000 OA
BRANCH  18  21
ATOM     21  C   UNL     1      -8.517  54.478  52.738  0.00  0.00    +0.000 A 
ATOM     22  N   UNL     1      -8.140  53.271  53.223  0.00  0.00    +0.000 NA
ATOM     23  N   UNL     1      -9.767  54.965  52.606  0.00  0.00    +0.000 NA
ATOM     24  C   UNL     1      -9.163  52.496  53.627  0.00  0.00    +0.000 A 
ATOM     25  C   UNL     1     -10.735  54.116  52.988  0.00  0.00    +0.000 A 
ATOM     26  C   UNL     1     -10.491  52.866  53.519  0.00  0.00    +0.000 A 
ENDBRANCH  18  21
ENDBRANCH  12  18
ENDBRANCH   1  15
BRANCH   3  27
ATOM     27  C   UNL     1     -11.236  55.424  47.393  0.00  0.00    +0.000 C 
ATOM     28  O   UNL     1     -11.903  56.100  46.616  0.00  0.00    +0.000 OA
BRANCH  27  29
ATOM     29  O   UNL     1     -11.457  55.375  48.740  0.00  0.00    +0.000 OA
BRANCH  29  30
ATOM     30  C   UNL     1     -11.780  56.598  49.409  0.00  0.00    +0.000 C 
ATOM     31  C   UNL     1     -12.682  56.346  50.598  0.00  0.00    +0.000 C 
ENDBRANCH  29  30
ENDBRANCH  27  29
ENDBRANCH   3  27
TORSDOF 6
ENDMDL
MODEL 6
REMARK VINA RESULT:      -6.6      2.341      2.969
REMARK  Name = 
REMARK  9 active torsions:
REMARK  status: ('A' for Active; 'I' for Inactive)
REMARK    1  A    between atoms: S_1  and  N_4
REMARK    2  A    between atoms: S_1  and  C_5
REMARK    3  A    between atoms: N_10  and  C_13
REMARK    4  A    between atoms: C_16  and  C_19
REMARK    5  A    between atoms: C_19  and  O_23
REMARK    6  A    between atoms: O_23  and  C_26
REMARK    7  A    between atoms: C_24  and  C_27
REMARK    8  A    between atoms: C_24  and  C_28
REMARK    9  A    between atoms: C_26  and  C_29
REMARK                            x       y       z     vdW  Elec       q    Type
REMARK                         _______ _______ _______ _____ _____    ______ ____
ROOT
ATOM      1  C   UNL     1      -8.394  55.778  49.913  0.00  0.00    +0.000 A 
ATOM      2  S   UNL     1      -7.987  55.941  51.555  0.00  0.00    +0.000 S 
ATOM      3  C   UNL     1      -7.617  54.846  49.242  0.00  0.00    +0.000 A 
ATOM      4  C   UNL     1      -6.965  54.577  51.486  0.00  0.00    +0.000 A 
ATOM      5  C   UNL     1      -6.856  54.074  50.201  0.00  0.00    +0.000 A 
ATOM      6  C   UNL     1      -6.272  54.013  52.703  0.00  0.00    +0.000 C 
ATOM      7  C   UNL     1      -5.972  52.904  49.879  0.00  0.00    +0.000 C 
ATOM      8  C   UNL     1      -5.086  53.084  52.292  0.00  0.00    +0.000 C 
ATOM      9  C   UNL     1      -5.538  52.148  51.139  0.00  0.00    +0.000 C 
ATOM     10  C   UNL     1      -4.654  52.200  53.478  0.00  0.00    +0.000 C 
ATOM     11  C   UNL     1      -3.869  53.932  51.871  0.00  0.00    +0.000 C 
ENDROOT
BRANCH   1  15
ATOM     12  N   UNL     1     -11.703  56.899  49.063  0.00  0.00    +0.000 N 
ATOM     13  C   UNL     1     -10.712  56.059  49.549  0.00  0.00    +0.000 C 
ATOM     14  O   UNL     1     -10.986  54.975  50.038  0.00  0.00    +0.000 OA
ATOM     15  N   UNL     1      -9.437  56.581  49.481  0.00  0.00    +0.000 N 
ATOM     16  H   UNL     1     -11.448  57.740  48.619  0.00  0.00    +0.000 HD
ATOM     17  H   UNL     1      -9.274  57.489  49.140  0.00  0.00    +0.000 HD
BRANCH  12  18
ATOM     18  S   UNL     1     -13.331  56.508  49.218  0.00  0.00    +0.000 S 
ATOM     19  O   UNL     1     -13.432  55.091  49.489  0.00  0.00    +0.000 OA
ATOM     20  O   UNL     1     -13.967  57.061  48.031  0.00  0.00    +0.000 OA
BRANCH  18  21
ATOM     21  C   UNL     1     -13.888  57.473  50.652  0.00  0.00    +0.000 A 
ATOM     22  N   UNL     1     -13.647  56.897  51.854  0.00  0.00    +0.000 NA
ATOM     23  N   UNL     1     -14.498  58.649  50.404  0.00  0.00    +0.000 NA
ATOM     24  C   UNL     1     -14.066  57.623  52.906  0.00  0.00    +0.000 A 
ATOM     25  C   UNL     1     -14.926  59.293  51.503  0.00  0.00    +0.000 A 
ATOM     26  C   UNL     1     -14.728  58.830  52.787  0.00  0.00    +0.000 A 
ENDBRANCH  18  21
ENDBRANCH  12  18
ENDBRANCH   1  15
BRANCH   3  27
ATOM     27  C   UNL     1      -7.532  54.706  47.779  0.00  0.00    +0.000 C 
ATOM     28  O   UNL     1      -6.487  54.460  47.186  0.00  0.00    +0.000 OA
BRANCH  27  29
ATOM     29  O   UNL     1      -8.700  55.040  47.154  0.00  0.00    +0.000 OA
BRANCH  29  30
ATOM     30  C   UNL     1      -9.575  53.977  46.762  0.00  0.00    +0.000 C 
ATOM     31  C   UNL     1     -10.869  54.520  46.195  0.00  0.00    +0.000 C 
ENDBRANCH  29  30
ENDBRANCH  27  29
ENDBRANCH   3  27
TORSDOF 6
ENDMDL
MODEL 7
REMARK VINA RESULT:      -6.6      2.046      2.594
REMARK  Name = 
REMARK  9 active torsions:
REMARK  status: ('A' for Active; 'I' for Inactive)
REMARK    1  A    between atoms: S_1  and  N_4
REMARK    2  A    between atoms: S_1  and  C_5
REMARK    3  A    between atoms: N_10  and  C_13
REMARK    4  A    between atoms: C_16  and  C_19
REMARK    5  A    between atoms: C_19  and  O_23
REMARK    6  A    between atoms: O_23  and  C_26
REMARK    7  A    between atoms: C_24  and  C_27
REMARK    8  A    between atoms: C_24  and  C_28
REMARK    9  A    between atoms: C_26  and  C_29
REMARK                            x       y       z     vdW  Elec       q    Type
REMARK                         _______ _______ _______ _____ _____    ______ ____
ROOT
ATOM      1  C   UNL     1     -10.319  53.623  50.909  0.00  0.00    +0.000 A 
ATOM      2  S   UNL     1     -10.626  53.268  52.543  0.00  0.00    +0.000 S 
ATOM      3  C   UNL     1      -8.973  53.576  50.578  0.00  0.00    +0.000 A 
ATOM      4  C   UNL     1      -9.015  52.762  52.785  0.00  0.00    +0.000 A 
ATOM      5  C   UNL     1      -8.232  52.965  51.661  0.00  0.00    +0.000 A 
ATOM      6  C   UNL     1      -8.531  52.170  54.087  0.00  0.00    +0.000 C 
ATOM      7  C   UNL     1      -6.766  52.644  51.647  0.00  0.00    +0.000 C 
ATOM      8  C   UNL     1      -6.973  52.219  54.180  0.00  0.00    +0.000 C 
ATOM      9  C   UNL     1      -6.360  51.759  52.830  0.00  0.00    +0.000 C 
ATOM     10  C   UNL     1      -6.466  51.266  55.280  0.00  0.00    +0.000 C 
ATOM     11  C   UNL     1      -6.509  53.644  54.542  0.00  0.00    +0.000 C 
ENDROOT
BRANCH   1  15
ATOM     12  N   UNL     1     -13.035  55.404  49.367  0.00  0.00    +0.000 N 
ATOM     13  C   UNL     1     -11.886  55.204  50.117  0.00  0.00    +0.000 C 
ATOM     14  O   UNL     1     -11.311  56.139  50.652  0.00  0.00    +0.000 OA
ATOM     15  N   UNL     1     -11.440  53.899  50.144  0.00  0.00    +0.000 N 
ATOM     16  H   UNL     1     -13.511  54.625  48.998  0.00  0.00    +0.000 HD
ATOM     17  H   UNL     1     -11.901  53.191  49.640  0.00  0.00    +0.000 HD
BRANCH  12  18
ATOM     18  S   UNL     1     -13.631  56.949  49.077  0.00  0.00    +0.000 S 
ATOM     19  O   UNL     1     -14.670  56.853  48.075  0.00  0.00    +0.000 OA
ATOM     20  O   UNL     1     -12.453  57.765  48.816  0.00  0.00    +0.000 OA
BRANCH  18  21
ATOM     21  C   UNL     1     -14.329  57.467  50.671  0.00  0.00    +0.000 A 
ATOM     22  N   UNL     1     -14.080  58.754  51.011  0.00  0.00    +0.000 NA
ATOM     23  N   UNL     1     -15.009  56.541  51.376  0.00  0.00    +0.000 NA
ATOM     24  C   UNL     1     -14.603  59.123  52.193  0.00  0.00    +0.000 A 
ATOM     25  C   UNL     1     -15.462  56.972  52.565  0.00  0.00    +0.000 A 
ATOM     26  C   UNL     1     -15.297  58.263  53.024  0.00  0.00    +0.000 A 
ENDBRANCH  18  21
ENDBRANCH  12  18
ENDBRANCH   1  15
BRANCH   3  27
ATOM     27  C   UNL     1      -8.381  54.117  49.343  0.00  0.00    +0.000 C 
ATOM     28  O   UNL     1      -7.657  55.106  49.322  0.00  0.00    +0.000 OA
BRANCH  27  29
ATOM     29  O   UNL     1      -8.859  53.501  48.222  0.00  0.00    +0.000 OA
BRANCH  29  30
ATOM     30  C   UNL     1      -8.859  54.244  46.999  0.00  0.00    +0.000 C 
ATOM     31  C   UNL     1     -10.058  55.166  46.924  0.00  0.00    +0.000 C 
ENDBRANCH  29  30
ENDBRANCH  27  29
ENDBRANCH   3  27
TORSDOF 6
ENDMDL
MODEL 8
REMARK VINA RESULT:      -6.6      4.244      7.809
REMARK  Name = 
REMARK  9 active torsions:
REMARK  status: ('A' for Active; 'I' for Inactive)
REMARK    1  A    between atoms: S_1  and  N_4
REMARK    2  A    between atoms: S_1  and  C_5
REMARK    3  A    between atoms: N_10  and  C_13
REMARK    4  A    between atoms: C_16  and  C_19
REMARK    5  A    between atoms: C_19  and  O_23
REMARK    6  A    between atoms: O_23  and  C_26
REMARK    7  A    between atoms: C_24  and  C_27
REMARK    8  A    between atoms: C_24  and  C_28
REMARK    9  A    between atoms: C_26  and  C_29
REMARK                            x       y       z     vdW  Elec       q    Type
REMARK                         _______ _______ _______ _____ _____    ______ ____
ROOT
ATOM      1  C   UNL     1     -11.684  55.906  47.636  0.00  0.00    +0.000 A 
ATOM      2  S   UNL     1     -13.312  56.386  47.542  0.00  0.00    +0.000 S 
ATOM      3  C   UNL     1     -11.158  55.993  48.916  0.00  0.00    +0.000 A 
ATOM      4  C   UNL     1     -13.443  56.447  49.241  0.00  0.00    +0.000 A 
ATOM      5  C   UNL     1     -12.230  56.209  49.864  0.00  0.00    +0.000 A 
ATOM      6  C   UNL     1     -14.744  56.734  49.951  0.00  0.00    +0.000 C 
ATOM      7  C   UNL     1     -12.081  56.259  51.357  0.00  0.00    +0.000 C 
ATOM      8  C   UNL     1     -14.492  57.166  51.430  0.00  0.00    +0.000 C 
ATOM      9  C   UNL     1     -13.437  56.225  52.071  0.00  0.00    +0.000 C 
ATOM     10  C   UNL     1     -15.789  57.055  52.255  0.00  0.00    +0.000 C 
ATOM     11  C   UNL     1     -14.027  58.635  51.481  0.00  0.00    +0.000 C 
ENDROOT
BRANCH   1  15
ATOM     12  N   UNL     1     -10.525  53.794  44.968  0.00  0.00    +0.000 N 
ATOM     13  C   UNL     1     -11.142  54.143  46.159  0.00  0.00    +0.000 C 
ATOM     14  O   UNL     1     -11.697  53.306  46.852  0.00  0.00    +0.000 OA
ATOM     15  N   UNL     1     -11.120  55.494  46.441  0.00  0.00    +0.000 N 
ATOM     16  H   UNL     1     -10.034  54.480  44.460  0.00  0.00    +0.000 HD
ATOM     17  H   UNL     1     -10.719  56.139  45.816  0.00  0.00    +0.000 HD
BRANCH  12  18
ATOM     18  S   UNL     1     -10.600  52.223  44.374  0.00  0.00    +0.000 S 
ATOM     19  O   UNL     1     -10.122  52.232  43.008  0.00  0.00    +0.000 OA
ATOM     20  O   UNL     1     -11.956  51.776  44.658  0.00  0.00    +0.000 OA
BRANCH  18  21
ATOM     21  C   UNL     1      -9.466  51.287  45.439  0.00  0.00    +0.000 A 
ATOM     22  N   UNL     1      -8.161  51.628  45.320  0.00  0.00    +0.000 NA
ATOM     23  N   UNL     1     -10.006  50.340  46.231  0.00  0.00    +0.000 NA
ATOM     24  C   UNL     1      -7.334  50.926  46.116  0.00  0.00    +0.000 A 
ATOM     25  C   UNL     1      -9.112  49.652  46.962  0.00  0.00    +0.000 A 
ATOM     26  C   UNL     1      -7.757  49.910  46.952  0.00  0.00    +0.000 A 
ENDBRANCH  18  21
ENDBRANCH  12  18
ENDBRANCH   1  15
BRANCH   3  27
ATOM     27  C   UNL     1      -9.725  55.936  49.252  0.00  0.00    +0.000 C 
ATOM     28  O   UNL     1      -9.082  56.912  49.623  0.00  0.00    +0.000 OA
BRANCH  27  29
ATOM     29  O   UNL     1      -9.166  54.728  48.947  0.00  0.00    +0.000 OA
BRANCH  29  30
ATOM     30  C   UNL     1      -7.779  54.704  48.596  0.00  0.00    +0.000 C 
ATOM     31  C   UNL     1      -7.597  54.733  47.093  0.00  0.00    +0.000 C 
ENDBRANCH  29  30
ENDBRANCH  27  29
ENDBRANCH   3  27
TORSDOF 6
ENDMDL
MODEL 9
REMARK VINA RESULT:      -6.5      3.216      4.169
REMARK  Name = 
REMARK  9 active torsions:
REMARK  status: ('A' for Active; 'I' for Inactive)
REMARK    1  A    between atoms: S_1  and  N_4
REMARK    2  A    between atoms: S_1  and  C_5
REMARK    3  A    between atoms: N_10  and  C_13
REMARK    4  A    between atoms: C_16  and  C_19
REMARK    5  A    between atoms: C_19  and  O_23
REMARK    6  A    between atoms: O_23  and  C_26
REMARK    7  A    between atoms: C_24  and  C_27
REMARK    8  A    between atoms: C_24  and  C_28
REMARK    9  A    between atoms: C_26  and  C_29
REMARK                            x       y       z     vdW  Elec       q    Type
REMARK                         _______ _______ _______ _____ _____    ______ ____
ROOT
ATOM      1  C   UNL     1      -8.121  55.011  48.299  0.00  0.00    +0.000 A 
ATOM      2  S   UNL     1      -6.821  55.076  49.393  0.00  0.00    +0.000 S 
ATOM      3  C   UNL     1      -7.964  54.048  47.313  0.00  0.00    +0.000 A 
ATOM      4  C   UNL     1      -6.154  53.640  48.759  0.00  0.00    +0.000 A 
ATOM      5  C   UNL     1      -6.858  53.182  47.659  0.00  0.00    +0.000 A 
ATOM      6  C   UNL     1      -4.934  52.975  49.350  0.00  0.00    +0.000 C 
ATOM      7  C   UNL     1      -6.432  51.960  46.897  0.00  0.00    +0.000 C 
ATOM      8  C   UNL     1      -4.295  51.974  48.337  0.00  0.00    +0.000 C 
ATOM      9  C   UNL     1      -5.413  51.123  47.677  0.00  0.00    +0.000 C 
ATOM     10  C   UNL     1      -3.332  51.012  49.060  0.00  0.00    +0.000 C 
ATOM     11  C   UNL     1      -3.483  52.741  47.274  0.00  0.00    +0.000 C 
ENDROOT
BRANCH   1  15
ATOM     12  N   UNL     1     -11.224  56.401  49.469  0.00  0.00    +0.000 N 
ATOM     13  C   UNL     1     -10.216  55.465  49.294  0.00  0.00    +0.000 C 
ATOM     14  O   UNL     1     -10.278  54.364  49.819  0.00  0.00    +0.000 OA
ATOM     15  N   UNL     1      -9.145  55.910  48.546  0.00  0.00    +0.000 N 
ATOM     16  H   UNL     1     -11.176  57.257  48.985  0.00  0.00    +0.000 HD
ATOM     17  H   UNL     1      -9.111  56.830  48.201  0.00  0.00    +0.000 HD
BRANCH  12  18
ATOM     18  S   UNL     1     -12.525  56.101  50.490  0.00  0.00    +0.000 S 
ATOM     19  O   UNL     1     -12.011  55.856  51.820  0.00  0.00    +0.000 OA
ATOM     20  O   UNL     1     -13.304  55.071  49.818  0.00  0.00    +0.000 OA
BRANCH  18  21
ATOM     21  C   UNL     1     -13.487  57.642  50.454  0.00  0.00    +0.000 A 
ATOM     22  N   UNL     1     -14.249  57.863  51.551  0.00  0.00    +0.000 NA
ATOM     23  N   UNL     1     -13.375  58.412  49.354  0.00  0.00    +0.000 NA
ATOM     24  C   UNL     1     -14.955  59.007  51.509  0.00  0.00    +0.000 A 
ATOM     25  C   UNL     1     -14.143  59.514  49.368  0.00  0.00    +0.000 A 
ATOM     26  C   UNL     1     -14.950  59.869  50.430  0.00  0.00    +0.000 A 
ENDBRANCH  18  21
ENDBRANCH  12  18
ENDBRANCH   1  15
BRANCH   3  27
ATOM     27  C   UNL     1      -8.760  53.960  46.077  0.00  0.00    +0.000 C 
ATOM     28  O   UNL     1      -8.343  54.319  44.982  0.00  0.00    +0.000 OA
BRANCH  27  29
ATOM     29  O   UNL     1     -10.053  53.593  46.316  0.00  0.00    +0.000 OA
BRANCH  29  30
ATOM     30  C   UNL     1     -11.014  53.820  45.279  0.00  0.00    +0.000 C 
ATOM     31  C   UNL     1     -12.021  52.692  45.214  0.00  0.00    +0.000 C 
ENDBRANCH  29  30
ENDBRANCH  27  29
ENDBRANCH   3  27
TORSDOF 6
ENDMDL
