MODEL 1
REMARK VINA RESULT:      -7.3      0.000      0.000
REMARK  Name = 
REMARK  10 active torsions:
REMARK  status: ('A' for Active; 'I' for Inactive)
REMARK    1  A    between atoms: S_1  and  N_4
REMARK    2  A    between atoms: S_1  and  C_5
REMARK    3  A    between atoms: N_10  and  C_13
REMARK    4  A    between atoms: C_14  and  C_17
REMARK    5  A    between atoms: C_16  and  C_20
REMARK    6  A    between atoms: C_20  and  O_25
REMARK    7  A    between atoms: O_25  and  C_28
REMARK    8  A    between atoms: C_26  and  C_29
REMARK    9  A    between atoms: C_26  and  C_30
REMARK   10  A    between atoms: C_28  and  C_31
REMARK                            x       y       z     vdW  Elec       q    Type
REMARK                         _______ _______ _______ _____ _____    ______ ____
ROOT
ATOM      1  N   UNL     1      -8.022  53.269  49.858  0.00  0.00    +0.000 N 
ATOM      2  C   UNL     1      -9.163  54.057  49.834  0.00  0.00    +0.000 C 
ATOM      3  O   UNL     1      -9.257  55.023  49.090  0.00  0.00    +0.000 OA
ATOM      4  N   UNL     1     -10.095  53.715  50.800  0.00  0.00    +0.000 N 
ATOM      5  H   UNL     1      -8.002  52.503  50.476  0.00  0.00    +0.000 HD
ATOM      6  H   UNL     1      -9.957  52.932  51.381  0.00  0.00    +0.000 HD
ENDROOT
BRANCH   4   7
ATOM      7  C   UNL     1     -11.225  54.505  50.927  0.00  0.00    +0.000 A 
ATOM      8  S   UNL     1     -11.398  55.299  52.422  0.00  0.00    +0.000 S 
ATOM      9  C   UNL     1     -12.229  54.807  50.026  0.00  0.00    +0.000 A 
ATOM     10  C   UNL     1     -12.672  56.263  51.816  0.00  0.00    +0.000 A 
ATOM     11  C   UNL     1     -13.023  55.910  50.523  0.00  0.00    +0.000 A 
ATOM     12  C   UNL     1     -13.322  57.365  52.622  0.00  0.00    +0.000 C 
ATOM     13  C   UNL     1     -14.155  56.580  49.801  0.00  0.00    +0.000 C 
ATOM     14  C   UNL     1     -14.714  57.748  52.026  0.00  0.00    +0.000 C 
ATOM     15  C   UNL     1     -14.600  57.874  50.486  0.00  0.00    +0.000 C 
ATOM     16  C   UNL     1     -15.188  59.108  52.571  0.00  0.00    +0.000 C 
ATOM     17  C   UNL     1     -15.766  56.689  52.416  0.00  0.00    +0.000 C 
BRANCH   9  18
ATOM     18  C   UNL     1     -12.410  54.082  48.768  0.00  0.00    +0.000 C 
ATOM     19  O   UNL     1     -12.490  52.860  48.704  0.00  0.00    +0.000 OA
BRANCH  18  20
ATOM     20  O   UNL     1     -12.478  54.918  47.698  0.00  0.00    +0.000 OA
BRANCH  20  21
ATOM     21  C   UNL     1     -11.347  54.951  46.823  0.00  0.00    +0.000 C 
ATOM     22  C   UNL     1     -11.666  54.188  45.554  0.00  0.00    +0.000 C 
ENDBRANCH  20  21
ENDBRANCH  18  20
ENDBRANCH   9  18
ENDBRANCH   4   7
BRANCH   1  23
ATOM     23  S   UNL     1      -6.682  53.543  48.902  0.00  0.00    +0.000 S 
ATOM     24  O   UNL     1      -5.697  52.517  49.163  0.00  0.00    +0.000 OA
ATOM     25  O   UNL     1      -6.355  54.942  49.088  0.00  0.00    +0.000 OA
BRANCH  23  26
ATOM     26  C   UNL     1      -7.269  53.380  47.226  0.00  0.00    +0.000 A 
ATOM     27  C   UNL     1      -7.671  52.131  46.740  0.00  0.00    +0.000 A 
ATOM     28  C   UNL     1      -7.366  54.516  46.415  0.00  0.00    +0.000 A 
ATOM     29  C   UNL     1      -8.133  52.017  45.422  0.00  0.00    +0.000 A 
ATOM     30  C   UNL     1      -7.832  54.398  45.101  0.00  0.00    +0.000 A 
ATOM     31  C   UNL     1      -8.208  53.148  44.595  0.00  0.00    +0.000 A 
BRANCH  31  32
ATOM     32  C   UNL     1      -8.666  53.027  43.237  0.00  0.00    +0.000 C 
ATOM     33  N   UNL     1      -9.039  52.928  42.145  0.00  0.00    +0.000 NA
ENDBRANCH  31  32
ENDBRANCH  23  26
ENDBRANCH   1  23
TORSDOF 7
ENDMDL
MODEL 2
REMARK VINA RESULT:      -7.2      1.667      2.310
REMARK  Name = 
REMARK  10 active torsions:
REMARK  status: ('A' for Active; 'I' for Inactive)
REMARK    1  A    between atoms: S_1  and  N_4
REMARK    2  A    between atoms: S_1  and  C_5
REMARK    3  A    between atoms: N_10  and  C_13
REMARK    4  A    between atoms: C_14  and  C_17
REMARK    5  A    between atoms: C_16  and  C_20
REMARK    6  A    between atoms: C_20  and  O_25
REMARK    7  A    between atoms: O_25  and  C_28
REMARK    8  A    between atoms: C_26  and  C_29
REMARK    9  A    between atoms: C_26  and  C_30
REMARK   10  A    between atoms: C_28  and  C_31
REMARK                            x       y       z     vdW  Elec       q    Type
REMARK                         _______ _______ _______ _____ _____    ______ ____
ROOT
ATOM      1  N   UNL     1      -8.686  52.511  49.762  0.00  0.00    +0.000 N 
ATOM      2  C   UNL     1      -9.907  53.122  50.007  0.00  0.00    +0.000 C 
ATOM      3  O   UNL     1     -10.964  52.532  49.829  0.00  0.00    +0.000 OA
ATOM      4  N   UNL     1      -9.800  54.462  50.339  0.00  0.00    +0.000 N 
ATOM      5  H   UNL     1      -7.867  53.033  49.923  0.00  0.00    +0.000 HD
ATOM      6  H   UNL     1      -8.920  54.887  50.454  0.00  0.00    +0.000 HD
ENDROOT
BRANCH   4   7
ATOM      7  C   UNL     1     -10.967  55.189  50.503  0.00  0.00    +0.000 A 
ATOM      8  S   UNL     1     -11.528  55.321  52.104  0.00  0.00    +0.000 S 
ATOM      9  C   UNL     1     -11.745  55.879  49.592  0.00  0.00    +0.000 A 
ATOM     10  C   UNL     1     -12.670  56.510  51.657  0.00  0.00    +0.000 A 
ATOM     11  C   UNL     1     -12.688  56.726  50.289  0.00  0.00    +0.000 A 
ATOM     12  C   UNL     1     -13.547  57.224  52.660  0.00  0.00    +0.000 C 
ATOM     13  C   UNL     1     -13.651  57.686  49.654  0.00  0.00    +0.000 C 
ATOM     14  C   UNL     1     -14.778  57.883  51.960  0.00  0.00    +0.000 C 
ATOM     15  C   UNL     1     -14.310  58.614  50.676  0.00  0.00    +0.000 C 
ATOM     16  C   UNL     1     -15.435  58.931  52.878  0.00  0.00    +0.000 C 
ATOM     17  C   UNL     1     -15.837  56.812  51.630  0.00  0.00    +0.000 C 
BRANCH   9  18
ATOM     18  C   UNL     1     -11.587  55.733  48.144  0.00  0.00    +0.000 C 
ATOM     19  O   UNL     1     -12.535  55.671  47.369  0.00  0.00    +0.000 OA
BRANCH  18  20
ATOM     20  O   UNL     1     -10.280  55.680  47.772  0.00  0.00    +0.000 OA
BRANCH  20  21
ATOM     21  C   UNL     1      -9.945  54.803  46.693  0.00  0.00    +0.000 C 
ATOM     22  C   UNL     1      -8.494  55.004  46.309  0.00  0.00    +0.000 C 
ENDBRANCH  20  21
ENDBRANCH  18  20
ENDBRANCH   9  18
ENDBRANCH   4   7
BRANCH   1  23
ATOM     23  S   UNL     1      -8.523  50.944  49.210  0.00  0.00    +0.000 S 
ATOM     24  O   UNL     1      -9.524  50.114  49.841  0.00  0.00    +0.000 OA
ATOM     25  O   UNL     1      -7.115  50.632  49.344  0.00  0.00    +0.000 OA
BRANCH  23  26
ATOM     26  C   UNL     1      -8.856  51.035  47.460  0.00  0.00    +0.000 A 
ATOM     27  C   UNL     1      -7.814  51.279  46.557  0.00  0.00    +0.000 A 
ATOM     28  C   UNL     1     -10.156  50.817  46.992  0.00  0.00    +0.000 A 
ATOM     29  C   UNL     1      -8.089  51.345  45.185  0.00  0.00    +0.000 A 
ATOM     30  C   UNL     1     -10.424  50.880  45.620  0.00  0.00    +0.000 A 
ATOM     31  C   UNL     1      -9.395  51.154  44.711  0.00  0.00    +0.000 A 
BRANCH  31  32
ATOM     32  C   UNL     1      -9.678  51.239  43.304  0.00  0.00    +0.000 C 
ATOM     33  N   UNL     1      -9.909  51.303  42.171  0.00  0.00    +0.000 NA
ENDBRANCH  31  32
ENDBRANCH  23  26
ENDBRANCH   1  23
TORSDOF 7
ENDMDL
MODEL 3
REMARK VINA RESULT:      -7.1      2.539      4.371
REMARK  Name = 
REMARK  10 active torsions:
REMARK  status: ('A' for Active; 'I' for Inactive)
REMARK    1  A    between atoms: S_1  and  N_4
REMARK    2  A    between atoms: S_1  and  C_5
REMARK    3  A    between atoms: N_10  and  C_13
REMARK    4  A    between atoms: C_14  and  C_17
REMARK    5  A    between atoms: C_16  and  C_20
REMARK    6  A    between atoms: C_20  and  O_25
REMARK    7  A    between atoms: O_25  and  C_28
REMARK    8  A    between atoms: C_26  and  C_29
REMARK    9  A    between atoms: C_26  and  C_30
REMARK   10  A    between atoms: C_28  and  C_31
REMARK                            x       y       z     vdW  Elec       q    Type
REMARK                         _______ _______ _______ _____ _____    ______ ____
ROOT
ATOM      1  N   UNL     1      -8.594  52.208  48.516  0.00  0.00    +0.000 N 
ATOM      2  C   UNL     1      -9.411  53.310  48.724  0.00  0.00    +0.000 C 
ATOM      3  O   UNL     1      -8.954  54.442  48.786  0.00  0.00    +0.000 OA
ATOM      4  N   UNL     1     -10.734  52.981  48.971  0.00  0.00    +0.000 N 
ATOM      5  H   UNL     1      -9.018  51.320  48.473  0.00  0.00    +0.000 HD
ATOM      6  H   UNL     1     -11.042  52.047  48.920  0.00  0.00    +0.000 HD
ENDROOT
BRANCH   4   7
ATOM      7  C   UNL     1     -11.612  54.002  49.292  0.00  0.00    +0.000 A 
ATOM      8  S   UNL     1     -12.089  54.071  50.924  0.00  0.00    +0.000 S 
ATOM      9  C   UNL     1     -12.142  55.022  48.524  0.00  0.00    +0.000 A 
ATOM     10  C   UNL     1     -12.804  55.606  50.700  0.00  0.00    +0.000 A 
ATOM     11  C   UNL     1     -12.765  56.010  49.376  0.00  0.00    +0.000 A 
ATOM     12  C   UNL     1     -13.403  56.405  51.835  0.00  0.00    +0.000 C 
ATOM     13  C   UNL     1     -13.384  57.302  48.927  0.00  0.00    +0.000 C 
ATOM     14  C   UNL     1     -14.371  57.506  51.296  0.00  0.00    +0.000 C 
ATOM     15  C   UNL     1     -13.709  58.232  50.098  0.00  0.00    +0.000 C 
ATOM     16  C   UNL     1     -14.657  58.563  52.379  0.00  0.00    +0.000 C 
ATOM     17  C   UNL     1     -15.715  56.874  50.883  0.00  0.00    +0.000 C 
BRANCH   9  18
ATOM     18  C   UNL     1     -12.051  55.043  47.063  0.00  0.00    +0.000 C 
ATOM     19  O   UNL     1     -11.945  56.077  46.413  0.00  0.00    +0.000 OA
BRANCH  18  20
ATOM     20  O   UNL     1     -12.095  53.795  46.527  0.00  0.00    +0.000 OA
BRANCH  20  21
ATOM     21  C   UNL     1     -11.660  53.651  45.172  0.00  0.00    +0.000 C 
ATOM     22  C   UNL     1     -10.180  53.327  45.148  0.00  0.00    +0.000 C 
ENDBRANCH  20  21
ENDBRANCH  18  20
ENDBRANCH   9  18
ENDBRANCH   4   7
BRANCH   1  23
ATOM     23  S   UNL     1      -6.938  52.299  48.333  0.00  0.00    +0.000 S 
ATOM     24  O   UNL     1      -6.630  53.222  47.265  0.00  0.00    +0.000 OA
ATOM     25  O   UNL     1      -6.480  50.926  48.276  0.00  0.00    +0.000 OA
BRANCH  23  26
ATOM     26  C   UNL     1      -6.340  52.966  49.875  0.00  0.00    +0.000 A 
ATOM     27  C   UNL     1      -6.720  52.383  51.089  0.00  0.00    +0.000 A 
ATOM     28  C   UNL     1      -5.454  54.049  49.862  0.00  0.00    +0.000 A 
ATOM     29  C   UNL     1      -6.241  52.915  52.293  0.00  0.00    +0.000 A 
ATOM     30  C   UNL     1      -4.975  54.574  51.067  0.00  0.00    +0.000 A 
ATOM     31  C   UNL     1      -5.373  54.017  52.288  0.00  0.00    +0.000 A 
BRANCH  31  32
ATOM     32  C   UNL     1      -4.896  54.574  53.525  0.00  0.00    +0.000 C 
ATOM     33  N   UNL     1      -4.515  55.024  54.522  0.00  0.00    +0.000 NA
ENDBRANCH  31  32
ENDBRANCH  23  26
ENDBRANCH   1  23
TORSDOF 7
ENDMDL
MODEL 4
REMARK VINA RESULT:      -7.0      3.339      8.462
REMARK  Name = 
REMARK  10 active torsions:
REMARK  status: ('A' for Active; 'I' for Inactive)
REMARK    1  A    between atoms: S_1  and  N_4
REMARK    2  A    between atoms: S_1  and  C_5
REMARK    3  A    between atoms: N_10  and  C_13
REMARK    4  A    between atoms: C_14  and  C_17
REMARK    5  A    between atoms: C_16  and  C_20
REMARK    6  A    between atoms: C_20  and  O_25
REMARK    7  A    between atoms: O_25  and  C_28
REMARK    8  A    between atoms: C_26  and  C_29
REMARK    9  A    between atoms: C_26  and  C_30
REMARK   10  A    between atoms: C_28  and  C_31
REMARK                            x       y       z     vdW  Elec       q    Type
REMARK                         _______ _______ _______ _____ _____    ______ ____
ROOT
ATOM      1  N   UNL     1     -11.796  56.816  49.249  0.00  0.00    +0.000 N 
ATOM      2  C   UNL     1     -10.794  55.921  49.594  0.00  0.00    +0.000 C 
ATOM      3  O   UNL     1     -11.050  54.773  49.929  0.00  0.00    +0.000 OA
ATOM      4  N   UNL     1      -9.532  56.490  49.638  0.00  0.00    +0.000 N 
ATOM      5  H   UNL     1     -11.531  57.727  48.986  0.00  0.00    +0.000 HD
ATOM      6  H   UNL     1      -9.389  57.426  49.370  0.00  0.00    +0.000 HD
ENDROOT
BRANCH   4   7
ATOM      7  C   UNL     1      -8.476  55.706  50.072  0.00  0.00    +0.000 A 
ATOM      8  S   UNL     1      -8.054  55.887  51.710  0.00  0.00    +0.000 S 
ATOM      9  C   UNL     1      -7.722  54.750  49.415  0.00  0.00    +0.000 A 
ATOM     10  C   UNL     1      -7.034  54.518  51.648  0.00  0.00    +0.000 A 
ATOM     11  C   UNL     1      -6.942  53.995  50.369  0.00  0.00    +0.000 A 
ATOM     12  C   UNL     1      -6.325  53.967  52.865  0.00  0.00    +0.000 C 
ATOM     13  C   UNL     1      -6.058  52.822  50.057  0.00  0.00    +0.000 C 
ATOM     14  C   UNL     1      -5.135  53.045  52.450  0.00  0.00    +0.000 C 
ATOM     15  C   UNL     1      -5.592  52.091  51.318  0.00  0.00    +0.000 C 
ATOM     16  C   UNL     1      -4.678  52.174  53.635  0.00  0.00    +0.000 C 
ATOM     17  C   UNL     1      -3.933  53.900  52.000  0.00  0.00    +0.000 C 
BRANCH   9  18
ATOM     18  C   UNL     1      -7.755  54.577  47.962  0.00  0.00    +0.000 C 
ATOM     19  O   UNL     1      -6.779  54.762  47.243  0.00  0.00    +0.000 OA
BRANCH  18  20
ATOM     20  O   UNL     1      -8.980  54.191  47.517  0.00  0.00    +0.000 OA
BRANCH  20  21
ATOM     21  C   UNL     1      -9.436  54.758  46.286  0.00  0.00    +0.000 C 
ATOM     22  C   UNL     1     -10.944  54.648  46.205  0.00  0.00    +0.000 C 
ENDBRANCH  20  21
ENDBRANCH  18  20
ENDBRANCH   9  18
ENDBRANCH   4   7
BRANCH   1  23
ATOM     23  S   UNL     1     -13.421  56.440  49.253  0.00  0.00    +0.000 S 
ATOM     24  O   UNL     1     -13.581  55.031  49.530  0.00  0.00    +0.000 OA
ATOM     25  O   UNL     1     -13.953  57.017  48.034  0.00  0.00    +0.000 OA
BRANCH  23  26
ATOM     26  C   UNL     1     -14.110  57.385  50.600  0.00  0.00    +0.000 A 
ATOM     27  C   UNL     1     -14.180  56.832  51.883  0.00  0.00    +0.000 A 
ATOM     28  C   UNL     1     -14.540  58.697  50.374  0.00  0.00    +0.000 A 
ATOM     29  C   UNL     1     -14.722  57.586  52.933  0.00  0.00    +0.000 A 
ATOM     30  C   UNL     1     -15.075  59.447  51.427  0.00  0.00    +0.000 A 
ATOM     31  C   UNL     1     -15.178  58.893  52.708  0.00  0.00    +0.000 A 
BRANCH  31  32
ATOM     32  C   UNL     1     -15.749  59.659  53.783  0.00  0.00    +0.000 C 
ATOM     33  N   UNL     1     -16.208  60.273  54.651  0.00  0.00    +0.000 NA
ENDBRANCH  31  32
ENDBRANCH  23  26
ENDBRANCH   1  23
TORSDOF 7
ENDMDL
MODEL 5
REMARK VINA RESULT:      -7.0      2.917      5.112
REMARK  Name = 
REMARK  10 active torsions:
REMARK  status: ('A' for Active; 'I' for Inactive)
REMARK    1  A    between atoms: S_1  and  N_4
REMARK    2  A    between atoms: S_1  and  C_5
REMARK    3  A    between atoms: N_10  and  C_13
REMARK    4  A    between atoms: C_14  and  C_17
REMARK    5  A    between atoms: C_16  and  C_20
REMARK    6  A    between atoms: C_20  and  O_25
REMARK    7  A    between atoms: O_25  and  C_28
REMARK    8  A    between atoms: C_26  and  C_29
REMARK    9  A    between atoms: C_26  and  C_30
REMARK   10  A    between atoms: C_28  and  C_31
REMARK                            x       y       z     vdW  Elec       q    Type
REMARK                         _______ _______ _______ _____ _____    ______ ____
ROOT
ATOM      1  N   UNL     1      -8.179  53.777  49.903  0.00  0.00    +0.000 N 
ATOM      2  C   UNL     1      -9.195  54.631  50.304  0.00  0.00    +0.000 C 
ATOM      3  O   UNL     1      -9.076  55.349  51.287  0.00  0.00    +0.000 OA
ATOM      4  N   UNL     1     -10.361  54.490  49.570  0.00  0.00    +0.000 N 
ATOM      5  H   UNL     1      -8.329  53.223  49.103  0.00  0.00    +0.000 HD
ATOM      6  H   UNL     1     -10.402  53.884  48.796  0.00  0.00    +0.000 HD
ENDROOT
BRANCH   4   7
ATOM      7  C   UNL     1     -11.469  55.225  49.956  0.00  0.00    +0.000 A 
ATOM      8  S   UNL     1     -11.752  55.296  51.633  0.00  0.00    +0.000 S 
ATOM      9  C   UNL     1     -12.375  55.962  49.217  0.00  0.00    +0.000 A 
ATOM     10  C   UNL     1     -12.929  56.517  51.431  0.00  0.00    +0.000 A 
ATOM     11  C   UNL     1     -13.172  56.791  50.095  0.00  0.00    +0.000 A 
ATOM     12  C   UNL     1     -13.612  57.200  52.594  0.00  0.00    +0.000 C 
ATOM     13  C   UNL     1     -14.209  57.789  49.669  0.00  0.00    +0.000 C 
ATOM     14  C   UNL     1     -14.929  57.904  52.137  0.00  0.00    +0.000 C 
ATOM     15  C   UNL     1     -14.669  58.682  50.823  0.00  0.00    +0.000 C 
ATOM     16  C   UNL     1     -15.403  58.919  53.193  0.00  0.00    +0.000 C 
ATOM     17  C   UNL     1     -16.049  56.860  51.948  0.00  0.00    +0.000 C 
BRANCH   9  18
ATOM     18  C   UNL     1     -12.465  55.875  47.758  0.00  0.00    +0.000 C 
ATOM     19  O   UNL     1     -12.871  56.794  47.056  0.00  0.00    +0.000 OA
BRANCH  18  20
ATOM     20  O   UNL     1     -12.046  54.670  47.288  0.00  0.00    +0.000 OA
BRANCH  20  21
ATOM     21  C   UNL     1     -11.308  54.669  46.063  0.00  0.00    +0.000 C 
ATOM     22  C   UNL     1     -11.725  53.481  45.222  0.00  0.00    +0.000 C 
ENDBRANCH  20  21
ENDBRANCH  18  20
ENDBRANCH   9  18
ENDBRANCH   4   7
BRANCH   1  23
ATOM     23  S   UNL     1      -6.717  53.634  50.695  0.00  0.00    +0.000 S 
ATOM     24  O   UNL     1      -6.241  54.951  51.052  0.00  0.00    +0.000 OA
ATOM     25  O   UNL     1      -5.912  52.760  49.864  0.00  0.00    +0.000 OA
BRANCH  23  26
ATOM     26  C   UNL     1      -7.085  52.720  52.181  0.00  0.00    +0.000 A 
ATOM     27  C   UNL     1      -7.942  51.615  52.133  0.00  0.00    +0.000 A 
ATOM     28  C   UNL     1      -6.477  53.088  53.386  0.00  0.00    +0.000 A 
ATOM     29  C   UNL     1      -8.221  50.904  53.309  0.00  0.00    +0.000 A 
ATOM     30  C   UNL     1      -6.755  52.371  54.556  0.00  0.00    +0.000 A 
ATOM     31  C   UNL     1      -7.635  51.283  54.525  0.00  0.00    +0.000 A 
BRANCH  31  32
ATOM     32  C   UNL     1      -7.935  50.563  55.733  0.00  0.00    +0.000 C 
ATOM     33  N   UNL     1      -8.177  49.979  56.703  0.00  0.00    +0.000 NA
ENDBRANCH  31  32
ENDBRANCH  23  26
ENDBRANCH   1  23
TORSDOF 7
ENDMDL
MODEL 6
REMARK VINA RESULT:      -6.8      4.248      8.047
REMARK  Name = 
REMARK  10 active torsions:
REMARK  status: ('A' for Active; 'I' for Inactive)
REMARK    1  A    between atoms: S_1  and  N_4
REMARK    2  A    between atoms: S_1  and  C_5
REMARK    3  A    between atoms: N_10  and  C_13
REMARK    4  A    between atoms: C_14  and  C_17
REMARK    5  A    between atoms: C_16  and  C_20
REMARK    6  A    between atoms: C_20  and  O_25
REMARK    7  A    between atoms: O_25  and  C_28
REMARK    8  A    between atoms: C_26  and  C_29
REMARK    9  A    between atoms: C_26  and  C_30
REMARK   10  A    between atoms: C_28  and  C_31
REMARK                            x       y       z     vdW  Elec       q    Type
REMARK                         _______ _______ _______ _____ _____    ______ ____
ROOT
ATOM      1  N   UNL     1     -10.439  52.578  51.913  0.00  0.00    +0.000 N 
ATOM      2  C   UNL     1      -9.954  52.218  50.665  0.00  0.00    +0.000 C 
ATOM      3  O   UNL     1      -9.030  51.426  50.543  0.00  0.00    +0.000 OA
ATOM      4  N   UNL     1     -10.526  52.926  49.620  0.00  0.00    +0.000 N 
ATOM      5  H   UNL     1     -11.186  53.219  51.951  0.00  0.00    +0.000 HD
ATOM      6  H   UNL     1     -11.259  53.563  49.782  0.00  0.00    +0.000 HD
ENDROOT
BRANCH   4   7
ATOM      7  C   UNL     1     -10.037  52.714  48.342  0.00  0.00    +0.000 A 
ATOM      8  S   UNL     1     -10.747  51.423  47.492  0.00  0.00    +0.000 S 
ATOM      9  C   UNL     1      -9.094  53.404  47.603  0.00  0.00    +0.000 A 
ATOM     10  C   UNL     1     -10.003  51.911  46.034  0.00  0.00    +0.000 A 
ATOM     11  C   UNL     1      -9.147  52.984  46.220  0.00  0.00    +0.000 A 
ATOM     12  C   UNL     1     -10.267  51.230  44.710  0.00  0.00    +0.000 C 
ATOM     13  C   UNL     1      -8.338  53.553  45.091  0.00  0.00    +0.000 C 
ATOM     14  C   UNL     1      -9.142  51.558  43.677  0.00  0.00    +0.000 C 
ATOM     15  C   UNL     1      -8.826  53.075  43.723  0.00  0.00    +0.000 C 
ATOM     16  C   UNL     1      -9.597  51.221  42.246  0.00  0.00    +0.000 C 
ATOM     17  C   UNL     1      -7.882  50.723  43.983  0.00  0.00    +0.000 C 
BRANCH   9  18
ATOM     18  C   UNL     1      -8.203  54.405  48.191  0.00  0.00    +0.000 C 
ATOM     19  O   UNL     1      -8.270  55.601  47.927  0.00  0.00    +0.000 OA
BRANCH  18  20
ATOM     20  O   UNL     1      -7.310  53.854  49.055  0.00  0.00    +0.000 OA
BRANCH  20  21
ATOM     21  C   UNL     1      -6.905  54.651  50.171  0.00  0.00    +0.000 C 
ATOM     22  C   UNL     1      -5.436  54.413  50.457  0.00  0.00    +0.000 C 
ENDBRANCH  20  21
ENDBRANCH  18  20
ENDBRANCH   9  18
ENDBRANCH   4   7
BRANCH   1  23
ATOM     23  S   UNL     1      -9.834  51.990  53.352  0.00  0.00    +0.000 S 
ATOM     24  O   UNL     1      -9.496  50.595  53.189  0.00  0.00    +0.000 OA
ATOM     25  O   UNL     1     -10.782  52.405  54.367  0.00  0.00    +0.000 OA
BRANCH  23  26
ATOM     26  C   UNL     1      -8.343  52.925  53.642  0.00  0.00    +0.000 A 
ATOM     27  C   UNL     1      -7.116  52.268  53.777  0.00  0.00    +0.000 A 
ATOM     28  C   UNL     1      -8.403  54.322  53.692  0.00  0.00    +0.000 A 
ATOM     29  C   UNL     1      -5.951  53.015  54.002  0.00  0.00    +0.000 A 
ATOM     30  C   UNL     1      -7.237  55.064  53.912  0.00  0.00    +0.000 A 
ATOM     31  C   UNL     1      -6.008  54.414  54.078  0.00  0.00    +0.000 A 
BRANCH  31  32
ATOM     32  C   UNL     1      -4.815  55.178  54.326  0.00  0.00    +0.000 C 
ATOM     33  N   UNL     1      -3.857  55.795  54.531  0.00  0.00    +0.000 NA
ENDBRANCH  31  32
ENDBRANCH  23  26
ENDBRANCH   1  23
TORSDOF 7
ENDMDL
MODEL 7
REMARK VINA RESULT:      -6.6      3.490      8.370
REMARK  Name = 
REMARK  10 active torsions:
REMARK  status: ('A' for Active; 'I' for Inactive)
REMARK    1  A    between atoms: S_1  and  N_4
REMARK    2  A    between atoms: S_1  and  C_5
REMARK    3  A    between atoms: N_10  and  C_13
REMARK    4  A    between atoms: C_14  and  C_17
REMARK    5  A    between atoms: C_16  and  C_20
REMARK    6  A    between atoms: C_20  and  O_25
REMARK    7  A    between atoms: O_25  and  C_28
REMARK    8  A    between atoms: C_26  and  C_29
REMARK    9  A    between atoms: C_26  and  C_30
REMARK   10  A    between atoms: C_28  and  C_31
REMARK                            x       y       z     vdW  Elec       q    Type
REMARK                         _______ _______ _______ _____ _____    ______ ____
ROOT
ATOM      1  N   UNL     1     -12.035  56.813  49.681  0.00  0.00    +0.000 N 
ATOM      2  C   UNL     1     -11.566  55.667  50.305  0.00  0.00    +0.000 C 
ATOM      3  O   UNL     1     -12.317  54.752  50.610  0.00  0.00    +0.000 OA
ATOM      4  N   UNL     1     -10.224  55.729  50.646  0.00  0.00    +0.000 N 
ATOM      5  H   UNL     1     -11.384  57.517  49.457  0.00  0.00    +0.000 HD
ATOM      6  H   UNL     1      -9.671  56.501  50.385  0.00  0.00    +0.000 HD
ENDROOT
BRANCH   4   7
ATOM      7  C   UNL     1      -9.683  54.677  51.364  0.00  0.00    +0.000 A 
ATOM      8  S   UNL     1     -10.149  54.591  52.998  0.00  0.00    +0.000 S 
ATOM      9  C   UNL     1      -8.856  53.639  50.975  0.00  0.00    +0.000 A 
ATOM     10  C   UNL     1      -9.471  53.031  53.159  0.00  0.00    +0.000 A 
ATOM     11  C   UNL     1      -8.812  52.629  52.009  0.00  0.00    +0.000 A 
ATOM     12  C   UNL     1      -9.591  52.210  54.423  0.00  0.00    +0.000 C 
ATOM     13  C   UNL     1      -8.088  51.316  51.931  0.00  0.00    +0.000 C 
ATOM     14  C   UNL     1      -8.518  51.075  54.458  0.00  0.00    +0.000 C 
ATOM     15  C   UNL     1      -8.463  50.374  53.077  0.00  0.00    +0.000 C 
ATOM     16  C   UNL     1      -8.883  50.009  55.507  0.00  0.00    +0.000 C 
ATOM     17  C   UNL     1      -7.142  51.659  54.836  0.00  0.00    +0.000 C 
BRANCH   9  18
ATOM     18  C   UNL     1      -8.157  53.623  49.689  0.00  0.00    +0.000 C 
ATOM     19  O   UNL     1      -7.000  53.240  49.560  0.00  0.00    +0.000 OA
BRANCH  18  20
ATOM     20  O   UNL     1      -8.939  54.075  48.673  0.00  0.00    +0.000 OA
BRANCH  20  21
ATOM     21  C   UNL     1      -8.397  55.105  47.842  0.00  0.00    +0.000 C 
ATOM     22  C   UNL     1      -8.981  54.991  46.449  0.00  0.00    +0.000 C 
ENDBRANCH  20  21
ENDBRANCH  18  20
ENDBRANCH   9  18
ENDBRANCH   4   7
BRANCH   1  23
ATOM     23  S   UNL     1     -13.636  57.069  49.287  0.00  0.00    +0.000 S 
ATOM     24  O   UNL     1     -14.288  55.793  49.100  0.00  0.00    +0.000 OA
ATOM     25  O   UNL     1     -13.619  58.051  48.221  0.00  0.00    +0.000 OA
BRANCH  23  26
ATOM     26  C   UNL     1     -14.338  57.883  50.711  0.00  0.00    +0.000 A 
ATOM     27  C   UNL     1     -14.885  59.165  50.590  0.00  0.00    +0.000 A 
ATOM     28  C   UNL     1     -14.376  57.214  51.939  0.00  0.00    +0.000 A 
ATOM     29  C   UNL     1     -15.436  59.791  51.716  0.00  0.00    +0.000 A 
ATOM     30  C   UNL     1     -14.930  57.842  53.059  0.00  0.00    +0.000 A 
ATOM     31  C   UNL     1     -15.453  59.136  52.956  0.00  0.00    +0.000 A 
BRANCH  31  32
ATOM     32  C   UNL     1     -16.003  59.787  54.115  0.00  0.00    +0.000 C 
ATOM     33  N   UNL     1     -16.443  60.308  55.051  0.00  0.00    +0.000 NA
ENDBRANCH  31  32
ENDBRANCH  23  26
ENDBRANCH   1  23
TORSDOF 7
ENDMDL
MODEL 8
REMARK VINA RESULT:      -6.5      3.335      7.700
REMARK  Name = 
REMARK  10 active torsions:
REMARK  status: ('A' for Active; 'I' for Inactive)
REMARK    1  A    between atoms: S_1  and  N_4
REMARK    2  A    between atoms: S_1  and  C_5
REMARK    3  A    between atoms: N_10  and  C_13
REMARK    4  A    between atoms: C_14  and  C_17
REMARK    5  A    between atoms: C_16  and  C_20
REMARK    6  A    between atoms: C_20  and  O_25
REMARK    7  A    between atoms: O_25  and  C_28
REMARK    8  A    between atoms: C_26  and  C_29
REMARK    9  A    between atoms: C_26  and  C_30
REMARK   10  A    between atoms: C_28  and  C_31
REMARK                            x       y       z     vdW  Elec       q    Type
REMARK                         _______ _______ _______ _____ _____    ______ ____
ROOT
ATOM      1  N   UNL     1      -8.049  55.492  51.345  0.00  0.00    +0.000 N 
ATOM      2  C   UNL     1      -8.243  54.614  50.289  0.00  0.00    +0.000 C 
ATOM      3  O   UNL     1      -7.600  53.578  50.193  0.00  0.00    +0.000 OA
ATOM      4  N   UNL     1      -9.120  55.087  49.327  0.00  0.00    +0.000 N 
ATOM      5  H   UNL     1      -8.595  56.310  51.372  0.00  0.00    +0.000 HD
ATOM      6  H   UNL     1      -9.599  55.937  49.453  0.00  0.00    +0.000 HD
ENDROOT
BRANCH   4   7
ATOM      7  C   UNL     1      -9.304  54.330  48.182  0.00  0.00    +0.000 A 
ATOM      8  S   UNL     1      -8.248  54.681  46.896  0.00  0.00    +0.000 S 
ATOM      9  C   UNL     1     -10.174  53.291  47.908  0.00  0.00    +0.000 A 
ATOM     10  C   UNL     1      -8.750  53.291  46.041  0.00  0.00    +0.000 A 
ATOM     11  C   UNL     1      -9.781  52.627  46.685  0.00  0.00    +0.000 A 
ATOM     12  C   UNL     1      -8.124  52.861  44.733  0.00  0.00    +0.000 C 
ATOM     13  C   UNL     1     -10.426  51.407  46.095  0.00  0.00    +0.000 C 
ATOM     14  C   UNL     1      -9.056  51.870  43.965  0.00  0.00    +0.000 C 
ATOM     15  C   UNL     1      -9.605  50.808  44.951  0.00  0.00    +0.000 C 
ATOM     16  C   UNL     1      -8.277  51.125  42.865  0.00  0.00    +0.000 C 
ATOM     17  C   UNL     1     -10.208  52.642  43.289  0.00  0.00    +0.000 C 
BRANCH   9  18
ATOM     18  C   UNL     1     -11.309  52.959  48.771  0.00  0.00    +0.000 C 
ATOM     19  O   UNL     1     -12.472  52.976  48.385  0.00  0.00    +0.000 OA
BRANCH  18  20
ATOM     20  O   UNL     1     -10.918  52.633  50.032  0.00  0.00    +0.000 OA
BRANCH  20  21
ATOM     21  C   UNL     1     -11.867  52.837  51.082  0.00  0.00    +0.000 C 
ATOM     22  C   UNL     1     -11.870  54.297  51.486  0.00  0.00    +0.000 C 
ENDBRANCH  20  21
ENDBRANCH  18  20
ENDBRANCH   9  18
ENDBRANCH   4   7
BRANCH   1  23
ATOM     23  S   UNL     1      -6.945  55.244  52.571  0.00  0.00    +0.000 S 
ATOM     24  O   UNL     1      -6.987  56.366  53.481  0.00  0.00    +0.000 OA
ATOM     25  O   UNL     1      -5.708  54.878  51.910  0.00  0.00    +0.000 OA
BRANCH  23  26
ATOM     26  C   UNL     1      -7.516  53.782  53.417  0.00  0.00    +0.000 A 
ATOM     27  C   UNL     1      -8.873  53.442  53.398  0.00  0.00    +0.000 A 
ATOM     28  C   UNL     1      -6.593  52.953  54.064  0.00  0.00    +0.000 A 
ATOM     29  C   UNL     1      -9.308  52.289  54.065  0.00  0.00    +0.000 A 
ATOM     30  C   UNL     1      -7.032  51.800  54.725  0.00  0.00    +0.000 A 
ATOM     31  C   UNL     1      -8.391  51.468  54.737  0.00  0.00    +0.000 A 
BRANCH  31  32
ATOM     32  C   UNL     1      -8.841  50.294  55.436  0.00  0.00    +0.000 C 
ATOM     33  N   UNL     1      -9.208  49.351  55.999  0.00  0.00    +0.000 NA
ENDBRANCH  31  32
ENDBRANCH  23  26
ENDBRANCH   1  23
TORSDOF 7
ENDMDL
MODEL 9
REMARK VINA RESULT:      -6.5      2.713      4.361
REMARK  Name = 
REMARK  10 active torsions:
REMARK  status: ('A' for Active; 'I' for Inactive)
REMARK    1  A    between atoms: S_1  and  N_4
REMARK    2  A    between atoms: S_1  and  C_5
REMARK    3  A    between atoms: N_10  and  C_13
REMARK    4  A    between atoms: C_14  and  C_17
REMARK    5  A    between atoms: C_16  and  C_20
REMARK    6  A    between atoms: C_20  and  O_25
REMARK    7  A    between atoms: O_25  and  C_28
REMARK    8  A    between atoms: C_26  and  C_29
REMARK    9  A    between atoms: C_26  and  C_30
REMARK   10  A    between atoms: C_28  and  C_31
REMARK                            x       y       z     vdW  Elec       q    Type
REMARK                         _______ _______ _______ _____ _____    ______ ____
ROOT
ATOM      1  N   UNL     1      -9.918  53.004  46.305  0.00  0.00    +0.000 N 
ATOM      2  C   UNL     1     -10.320  54.191  46.900  0.00  0.00    +0.000 C 
ATOM      3  O   UNL     1      -9.568  55.152  46.979  0.00  0.00    +0.000 OA
ATOM      4  N   UNL     1     -11.574  54.123  47.484  0.00  0.00    +0.000 N 
ATOM      5  H   UNL     1     -10.566  52.263  46.268  0.00  0.00    +0.000 HD
ATOM      6  H   UNL     1     -12.129  53.314  47.399  0.00  0.00    +0.000 HD
ENDROOT
BRANCH   4   7
ATOM      7  C   UNL     1     -12.024  55.223  48.194  0.00  0.00    +0.000 A 
ATOM      8  S   UNL     1     -12.881  56.379  47.285  0.00  0.00    +0.000 S 
ATOM      9  C   UNL     1     -11.944  55.534  49.539  0.00  0.00    +0.000 A 
ATOM     10  C   UNL     1     -13.385  57.189  48.702  0.00  0.00    +0.000 A 
ATOM     11  C   UNL     1     -12.823  56.641  49.843  0.00  0.00    +0.000 A 
ATOM     12  C   UNL     1     -14.335  58.365  48.680  0.00  0.00    +0.000 C 
ATOM     13  C   UNL     1     -13.076  57.221  51.204  0.00  0.00    +0.000 C 
ATOM     14  C   UNL     1     -14.252  59.177  50.013  0.00  0.00    +0.000 C 
ATOM     15  C   UNL     1     -14.254  58.197  51.214  0.00  0.00    +0.000 C 
ATOM     16  C   UNL     1     -15.472  60.103  50.167  0.00  0.00    +0.000 C 
ATOM     17  C   UNL     1     -12.985  60.056  50.020  0.00  0.00    +0.000 C 
BRANCH   9  18
ATOM     18  C   UNL     1     -11.077  54.809  50.469  0.00  0.00    +0.000 C 
ATOM     19  O   UNL     1     -11.351  53.699  50.913  0.00  0.00    +0.000 OA
BRANCH  18  20
ATOM     20  O   UNL     1      -9.950  55.506  50.772  0.00  0.00    +0.000 OA
BRANCH  20  21
ATOM     21  C   UNL     1      -8.702  54.928  50.381  0.00  0.00    +0.000 C 
ATOM     22  C   UNL     1      -7.642  55.269  51.409  0.00  0.00    +0.000 C 
ENDBRANCH  20  21
ENDBRANCH  18  20
ENDBRANCH   9  18
ENDBRANCH   4   7
BRANCH   1  23
ATOM     23  S   UNL     1      -8.404  52.757  45.648  0.00  0.00    +0.000 S 
ATOM     24  O   UNL     1      -8.110  53.827  44.723  0.00  0.00    +0.000 OA
ATOM     25  O   UNL     1      -8.396  51.377  45.206  0.00  0.00    +0.000 OA
BRANCH  23  26
ATOM     26  C   UNL     1      -7.281  52.851  47.030  0.00  0.00    +0.000 A 
ATOM     27  C   UNL     1      -6.277  53.825  47.056  0.00  0.00    +0.000 A 
ATOM     28  C   UNL     1      -7.438  51.972  48.107  0.00  0.00    +0.000 A 
ATOM     29  C   UNL     1      -5.402  53.889  48.150  0.00  0.00    +0.000 A 
ATOM     30  C   UNL     1      -6.565  52.043  49.199  0.00  0.00    +0.000 A 
ATOM     31  C   UNL     1      -5.537  52.994  49.221  0.00  0.00    +0.000 A 
BRANCH  31  32
ATOM     32  C   UNL     1      -4.629  53.049  50.334  0.00  0.00    +0.000 C 
ATOM     33  N   UNL     1      -3.897  53.089  51.231  0.00  0.00    +0.000 NA
ENDBRANCH  31  32
ENDBRANCH  23  26
ENDBRANCH   1  23
TORSDOF 7
ENDMDL
