MODEL 1
REMARK VINA RESULT:      -7.4      0.000      0.000
REMARK  Name = 
REMARK  10 active torsions:
REMARK  status: ('A' for Active; 'I' for Inactive)
REMARK    1  A    between atoms: S_1  and  N_4
REMARK    2  A    between atoms: S_1  and  C_5
REMARK    3  A    between atoms: N_10  and  C_13
REMARK    4  A    between atoms: C_14  and  C_17
REMARK    5  A    between atoms: C_16  and  C_20
REMARK    6  A    between atoms: C_20  and  O_24
REMARK    7  A    between atoms: O_24  and  C_27
REMARK    8  A    between atoms: C_25  and  C_28
REMARK    9  A    between atoms: C_25  and  C_29
REMARK   10  A    between atoms: C_27  and  C_30
REMARK                            x       y       z     vdW  Elec       q    Type
REMARK                         _______ _______ _______ _____ _____    ______ ____
ROOT
ATOM      1  N   UNL     1      -9.726  51.692  48.698  0.00  0.00    +0.000 N 
ATOM      2  C   UNL     1     -10.783  52.563  48.935  0.00  0.00    +0.000 C 
ATOM      3  O   UNL     1     -11.884  52.384  48.434  0.00  0.00    +0.000 OA
ATOM      4  N   UNL     1     -10.436  53.669  49.688  0.00  0.00    +0.000 N 
ATOM      5  H   UNL     1      -8.864  51.883  49.134  0.00  0.00    +0.000 HD
ATOM      6  H   UNL     1      -9.526  53.774  50.050  0.00  0.00    +0.000 HD
ENDROOT
BRANCH   4   7
ATOM      7  C   UNL     1     -11.412  54.627  49.918  0.00  0.00    +0.000 A 
ATOM      8  S   UNL     1     -12.101  54.609  51.472  0.00  0.00    +0.000 S 
ATOM      9  C   UNL     1     -11.896  55.644  49.114  0.00  0.00    +0.000 A 
ATOM     10  C   UNL     1     -12.864  56.113  51.202  0.00  0.00    +0.000 A 
ATOM     11  C   UNL     1     -12.683  56.564  49.905  0.00  0.00    +0.000 A 
ATOM     12  C   UNL     1     -13.638  56.840  52.274  0.00  0.00    +0.000 C 
ATOM     13  C   UNL     1     -13.309  57.840  49.417  0.00  0.00    +0.000 C 
ATOM     14  C   UNL     1     -14.592  57.906  51.651  0.00  0.00    +0.000 C 
ATOM     15  C   UNL     1     -13.831  58.709  50.565  0.00  0.00    +0.000 C 
ATOM     16  C   UNL     1     -15.067  58.903  52.723  0.00  0.00    +0.000 C 
ATOM     17  C   UNL     1     -15.837  57.219  51.055  0.00  0.00    +0.000 C 
BRANCH   9  18
ATOM     18  C   UNL     1     -11.610  55.724  47.679  0.00  0.00    +0.000 C 
ATOM     19  O   UNL     1     -12.487  55.814  46.826  0.00  0.00    +0.000 OA
BRANCH  18  20
ATOM     20  O   UNL     1     -10.277  55.691  47.415  0.00  0.00    +0.000 OA
BRANCH  20  21
ATOM     21  C   UNL     1      -9.850  54.882  46.314  0.00  0.00    +0.000 C 
ATOM     22  C   UNL     1      -8.342  54.953  46.188  0.00  0.00    +0.000 C 
ENDBRANCH  20  21
ENDBRANCH  18  20
ENDBRANCH   9  18
ENDBRANCH   4   7
BRANCH   1  23
ATOM     23  S   UNL     1      -9.828  50.342  47.720  0.00  0.00    +0.000 S 
ATOM     24  O   UNL     1     -11.127  49.723  47.832  0.00  0.00    +0.000 OA
ATOM     25  O   UNL     1      -8.625  49.588  48.015  0.00  0.00    +0.000 OA
BRANCH  23  26
ATOM     26  C   UNL     1      -9.640  51.008  46.078  0.00  0.00    +0.000 A 
ATOM     27  C   UNL     1     -10.766  51.370  45.331  0.00  0.00    +0.000 A 
ATOM     28  C   UNL     1      -8.360  51.236  45.567  0.00  0.00    +0.000 A 
ATOM     29  C   UNL     1     -10.608  51.921  44.055  0.00  0.00    +0.000 A 
ATOM     30  C   UNL     1      -8.207  51.783  44.290  0.00  0.00    +0.000 A 
ATOM     31  C   UNL     1      -9.328  52.122  43.521  0.00  0.00    +0.000 A 
ATOM     32  C   UNL     1      -9.142  52.696  42.145  0.00  0.00    +0.000 C 
ENDBRANCH  23  26
ENDBRANCH   1  23
TORSDOF 6
ENDMDL
MODEL 2
REMARK VINA RESULT:      -6.9      3.608      5.381
REMARK  Name = 
REMARK  10 active torsions:
REMARK  status: ('A' for Active; 'I' for Inactive)
REMARK    1  A    between atoms: S_1  and  N_4
REMARK    2  A    between atoms: S_1  and  C_5
REMARK    3  A    between atoms: N_10  and  C_13
REMARK    4  A    between atoms: C_14  and  C_17
REMARK    5  A    between atoms: C_16  and  C_20
REMARK    6  A    between atoms: C_20  and  O_24
REMARK    7  A    between atoms: O_24  and  C_27
REMARK    8  A    between atoms: C_25  and  C_28
REMARK    9  A    between atoms: C_25  and  C_29
REMARK   10  A    between atoms: C_27  and  C_30
REMARK                            x       y       z     vdW  Elec       q    Type
REMARK                         _______ _______ _______ _____ _____    ______ ____
ROOT
ATOM      1  N   UNL     1      -8.276  52.792  50.196  0.00  0.00    +0.000 N 
ATOM      2  C   UNL     1      -9.177  53.828  50.409  0.00  0.00    +0.000 C 
ATOM      3  O   UNL     1      -8.959  54.706  51.231  0.00  0.00    +0.000 OA
ATOM      4  N   UNL     1     -10.351  53.702  49.690  0.00  0.00    +0.000 N 
ATOM      5  H   UNL     1      -8.501  52.116  49.516  0.00  0.00    +0.000 HD
ATOM      6  H   UNL     1     -10.483  52.960  49.056  0.00  0.00    +0.000 HD
ENDROOT
BRANCH   4   7
ATOM      7  C   UNL     1     -11.338  54.656  49.891  0.00  0.00    +0.000 A 
ATOM      8  S   UNL     1     -12.065  54.641  51.428  0.00  0.00    +0.000 S 
ATOM      9  C   UNL     1     -11.807  55.667  49.071  0.00  0.00    +0.000 A 
ATOM     10  C   UNL     1     -12.830  56.139  51.132  0.00  0.00    +0.000 A 
ATOM     11  C   UNL     1     -12.619  56.586  49.838  0.00  0.00    +0.000 A 
ATOM     12  C   UNL     1     -13.635  56.866  52.181  0.00  0.00    +0.000 C 
ATOM     13  C   UNL     1     -13.240  57.856  49.330  0.00  0.00    +0.000 C 
ATOM     14  C   UNL     1     -14.579  57.924  51.530  0.00  0.00    +0.000 C 
ATOM     15  C   UNL     1     -13.795  58.726  50.460  0.00  0.00    +0.000 C 
ATOM     16  C   UNL     1     -15.087  58.922  52.585  0.00  0.00    +0.000 C 
ATOM     17  C   UNL     1     -15.805  57.227  50.906  0.00  0.00    +0.000 C 
BRANCH   9  18
ATOM     18  C   UNL     1     -11.485  55.742  47.643  0.00  0.00    +0.000 C 
ATOM     19  O   UNL     1     -12.337  55.882  46.773  0.00  0.00    +0.000 OA
BRANCH  18  20
ATOM     20  O   UNL     1     -10.150  55.644  47.408  0.00  0.00    +0.000 OA
BRANCH  20  21
ATOM     21  C   UNL     1      -9.732  54.718  46.401  0.00  0.00    +0.000 C 
ATOM     22  C   UNL     1      -8.281  54.975  46.047  0.00  0.00    +0.000 C 
ENDBRANCH  20  21
ENDBRANCH  18  20
ENDBRANCH   9  18
ENDBRANCH   4   7
BRANCH   1  23
ATOM     23  S   UNL     1      -6.833  52.623  51.020  0.00  0.00    +0.000 S 
ATOM     24  O   UNL     1      -6.217  53.909  51.248  0.00  0.00    +0.000 OA
ATOM     25  O   UNL     1      -6.123  51.583  50.302  0.00  0.00    +0.000 OA
BRANCH  23  26
ATOM     26  C   UNL     1      -7.332  51.930  52.585  0.00  0.00    +0.000 A 
ATOM     27  C   UNL     1      -8.425  51.059  52.654  0.00  0.00    +0.000 A 
ATOM     28  C   UNL     1      -6.582  52.203  53.731  0.00  0.00    +0.000 A 
ATOM     29  C   UNL     1      -8.790  50.496  53.881  0.00  0.00    +0.000 A 
ATOM     30  C   UNL     1      -6.953  51.641  54.956  0.00  0.00    +0.000 A 
ATOM     31  C   UNL     1      -8.064  50.791  55.043  0.00  0.00    +0.000 A 
ATOM     32  C   UNL     1      -8.454  50.209  56.372  0.00  0.00    +0.000 C 
ENDBRANCH  23  26
ENDBRANCH   1  23
TORSDOF 6
ENDMDL
MODEL 3
REMARK VINA RESULT:      -6.9      3.259      4.925
REMARK  Name = 
REMARK  10 active torsions:
REMARK  status: ('A' for Active; 'I' for Inactive)
REMARK    1  A    between atoms: S_1  and  N_4
REMARK    2  A    between atoms: S_1  and  C_5
REMARK    3  A    between atoms: N_10  and  C_13
REMARK    4  A    between atoms: C_14  and  C_17
REMARK    5  A    between atoms: C_16  and  C_20
REMARK    6  A    between atoms: C_20  and  O_24
REMARK    7  A    between atoms: O_24  and  C_27
REMARK    8  A    between atoms: C_25  and  C_28
REMARK    9  A    between atoms: C_25  and  C_29
REMARK   10  A    between atoms: C_27  and  C_30
REMARK                            x       y       z     vdW  Elec       q    Type
REMARK                         _______ _______ _______ _____ _____    ______ ____
ROOT
ATOM      1  N   UNL     1      -8.440  52.634  48.957  0.00  0.00    +0.000 N 
ATOM      2  C   UNL     1      -9.330  53.672  49.208  0.00  0.00    +0.000 C 
ATOM      3  O   UNL     1      -8.940  54.783  49.535  0.00  0.00    +0.000 OA
ATOM      4  N   UNL     1     -10.658  53.293  49.151  0.00  0.00    +0.000 N 
ATOM      5  H   UNL     1      -8.811  51.761  48.691  0.00  0.00    +0.000 HD
ATOM      6  H   UNL     1     -10.916  52.375  48.903  0.00  0.00    +0.000 HD
ENDROOT
BRANCH   4   7
ATOM      7  C   UNL     1     -11.616  54.249  49.455  0.00  0.00    +0.000 A 
ATOM      8  S   UNL     1     -12.122  54.285  51.078  0.00  0.00    +0.000 S 
ATOM      9  C   UNL     1     -12.205  55.227  48.674  0.00  0.00    +0.000 A 
ATOM     10  C   UNL     1     -12.935  55.768  50.840  0.00  0.00    +0.000 A 
ATOM     11  C   UNL     1     -12.911  56.169  49.514  0.00  0.00    +0.000 A 
ATOM     12  C   UNL     1     -13.593  56.528  51.965  0.00  0.00    +0.000 C 
ATOM     13  C   UNL     1     -13.609  57.417  49.054  0.00  0.00    +0.000 C 
ATOM     14  C   UNL     1     -14.628  57.557  51.416  0.00  0.00    +0.000 C 
ATOM     15  C   UNL     1     -14.010  58.325  50.220  0.00  0.00    +0.000 C 
ATOM     16  C   UNL     1     -14.994  58.591  52.497  0.00  0.00    +0.000 C 
ATOM     17  C   UNL     1     -15.923  56.833  50.995  0.00  0.00    +0.000 C 
BRANCH   9  18
ATOM     18  C   UNL     1     -12.087  55.253  47.213  0.00  0.00    +0.000 C 
ATOM     19  O   UNL     1     -12.070  56.291  46.562  0.00  0.00    +0.000 OA
BRANCH  18  20
ATOM     20  O   UNL     1     -11.995  54.005  46.680  0.00  0.00    +0.000 OA
BRANCH  20  21
ATOM     21  C   UNL     1     -11.434  53.897  45.369  0.00  0.00    +0.000 C 
ATOM     22  C   UNL     1      -9.927  53.779  45.470  0.00  0.00    +0.000 C 
ENDBRANCH  20  21
ENDBRANCH  18  20
ENDBRANCH   9  18
ENDBRANCH   4   7
BRANCH   1  23
ATOM     23  S   UNL     1      -6.780  52.775  49.078  0.00  0.00    +0.000 S 
ATOM     24  O   UNL     1      -6.299  53.878  48.281  0.00  0.00    +0.000 OA
ATOM     25  O   UNL     1      -6.284  51.432  48.853  0.00  0.00    +0.000 OA
BRANCH  23  26
ATOM     26  C   UNL     1      -6.523  53.146  50.802  0.00  0.00    +0.000 A 
ATOM     27  C   UNL     1      -5.794  54.280  51.177  0.00  0.00    +0.000 A 
ATOM     28  C   UNL     1      -7.116  52.341  51.778  0.00  0.00    +0.000 A 
ATOM     29  C   UNL     1      -5.624  54.581  52.533  0.00  0.00    +0.000 A 
ATOM     30  C   UNL     1      -6.939  52.644  53.131  0.00  0.00    +0.000 A 
ATOM     31  C   UNL     1      -6.186  53.760  53.520  0.00  0.00    +0.000 A 
ATOM     32  C   UNL     1      -5.997  54.059  54.980  0.00  0.00    +0.000 C 
ENDBRANCH  23  26
ENDBRANCH   1  23
TORSDOF 6
ENDMDL
MODEL 4
REMARK VINA RESULT:      -6.9      1.844      2.766
REMARK  Name = 
REMARK  10 active torsions:
REMARK  status: ('A' for Active; 'I' for Inactive)
REMARK    1  A    between atoms: S_1  and  N_4
REMARK    2  A    between atoms: S_1  and  C_5
REMARK    3  A    between atoms: N_10  and  C_13
REMARK    4  A    between atoms: C_14  and  C_17
REMARK    5  A    between atoms: C_16  and  C_20
REMARK    6  A    between atoms: C_20  and  O_24
REMARK    7  A    between atoms: O_24  and  C_27
REMARK    8  A    between atoms: C_25  and  C_28
REMARK    9  A    between atoms: C_25  and  C_29
REMARK   10  A    between atoms: C_27  and  C_30
REMARK                            x       y       z     vdW  Elec       q    Type
REMARK                         _______ _______ _______ _____ _____    ______ ____
ROOT
ATOM      1  N   UNL     1      -8.184  53.367  49.345  0.00  0.00    +0.000 N 
ATOM      2  C   UNL     1      -9.287  54.209  49.434  0.00  0.00    +0.000 C 
ATOM      3  O   UNL     1      -9.339  55.260  48.812  0.00  0.00    +0.000 OA
ATOM      4  N   UNL     1     -10.235  53.791  50.348  0.00  0.00    +0.000 N 
ATOM      5  H   UNL     1      -8.200  52.529  49.863  0.00  0.00    +0.000 HD
ATOM      6  H   UNL     1     -10.131  52.943  50.839  0.00  0.00    +0.000 HD
ENDROOT
BRANCH   4   7
ATOM      7  C   UNL     1     -11.339  54.606  50.553  0.00  0.00    +0.000 A 
ATOM      8  S   UNL     1     -11.565  55.141  52.150  0.00  0.00    +0.000 S 
ATOM      9  C   UNL     1     -12.273  55.111  49.666  0.00  0.00    +0.000 A 
ATOM     10  C   UNL     1     -12.751  56.265  51.655  0.00  0.00    +0.000 A 
ATOM     11  C   UNL     1     -13.045  56.154  50.306  0.00  0.00    +0.000 A 
ATOM     12  C   UNL     1     -13.385  57.254  52.603  0.00  0.00    +0.000 C 
ATOM     13  C   UNL     1     -14.099  57.003  49.654  0.00  0.00    +0.000 C 
ATOM     14  C   UNL     1     -14.720  57.811  52.020  0.00  0.00    +0.000 C 
ATOM     15  C   UNL     1     -14.518  58.187  50.530  0.00  0.00    +0.000 C 
ATOM     16  C   UNL     1     -15.151  59.086  52.770  0.00  0.00    +0.000 C 
ATOM     17  C   UNL     1     -15.843  56.767  52.176  0.00  0.00    +0.000 C 
BRANCH   9  18
ATOM     18  C   UNL     1     -12.406  54.623  48.290  0.00  0.00    +0.000 C 
ATOM     19  O   UNL     1     -12.437  55.368  47.317  0.00  0.00    +0.000 OA
BRANCH  18  20
ATOM     20  O   UNL     1     -12.484  53.267  48.229  0.00  0.00    +0.000 OA
BRANCH  20  21
ATOM     21  C   UNL     1     -11.748  52.619  47.187  0.00  0.00    +0.000 C 
ATOM     22  C   UNL     1     -12.570  51.480  46.619  0.00  0.00    +0.000 C 
ENDBRANCH  20  21
ENDBRANCH  18  20
ENDBRANCH   9  18
ENDBRANCH   4   7
BRANCH   1  23
ATOM     23  S   UNL     1      -6.835  53.687  48.415  0.00  0.00    +0.000 S 
ATOM     24  O   UNL     1      -5.785  52.734  48.687  0.00  0.00    +0.000 OA
ATOM     25  O   UNL     1      -6.604  55.107  48.585  0.00  0.00    +0.000 OA
BRANCH  23  26
ATOM     26  C   UNL     1      -7.419  53.448  46.747  0.00  0.00    +0.000 A 
ATOM     27  C   UNL     1      -7.842  52.183  46.323  0.00  0.00    +0.000 A 
ATOM     28  C   UNL     1      -7.522  54.544  45.888  0.00  0.00    +0.000 A 
ATOM     29  C   UNL     1      -8.328  52.011  45.023  0.00  0.00    +0.000 A 
ATOM     30  C   UNL     1      -8.003  54.367  44.588  0.00  0.00    +0.000 A 
ATOM     31  C   UNL     1      -8.403  53.099  44.142  0.00  0.00    +0.000 A 
ATOM     32  C   UNL     1      -8.905  52.928  42.737  0.00  0.00    +0.000 C 
ENDBRANCH  23  26
ENDBRANCH   1  23
TORSDOF 6
ENDMDL
MODEL 5
REMARK VINA RESULT:      -6.9      3.736      8.227
REMARK  Name = 
REMARK  10 active torsions:
REMARK  status: ('A' for Active; 'I' for Inactive)
REMARK    1  A    between atoms: S_1  and  N_4
REMARK    2  A    between atoms: S_1  and  C_5
REMARK    3  A    between atoms: N_10  and  C_13
REMARK    4  A    between atoms: C_14  and  C_17
REMARK    5  A    between atoms: C_16  and  C_20
REMARK    6  A    between atoms: C_20  and  O_24
REMARK    7  A    between atoms: O_24  and  C_27
REMARK    8  A    between atoms: C_25  and  C_28
REMARK    9  A    between atoms: C_25  and  C_29
REMARK   10  A    between atoms: C_27  and  C_30
REMARK                            x       y       z     vdW  Elec       q    Type
REMARK                         _______ _______ _______ _____ _____    ______ ____
ROOT
ATOM      1  N   UNL     1     -11.729  56.837  49.122  0.00  0.00    +0.000 N 
ATOM      2  C   UNL     1     -10.722  55.966  49.523  0.00  0.00    +0.000 C 
ATOM      3  O   UNL     1     -10.972  54.835  49.913  0.00  0.00    +0.000 OA
ATOM      4  N   UNL     1      -9.463  56.536  49.530  0.00  0.00    +0.000 N 
ATOM      5  H   UNL     1     -11.467  57.734  48.811  0.00  0.00    +0.000 HD
ATOM      6  H   UNL     1      -9.321  57.463  49.225  0.00  0.00    +0.000 HD
ENDROOT
BRANCH   4   7
ATOM      7  C   UNL     1      -8.405  55.761  49.981  0.00  0.00    +0.000 A 
ATOM      8  S   UNL     1      -7.962  56.005  51.605  0.00  0.00    +0.000 S 
ATOM      9  C   UNL     1      -7.668  54.773  49.353  0.00  0.00    +0.000 A 
ATOM     10  C   UNL     1      -6.961  54.621  51.587  0.00  0.00    +0.000 A 
ATOM     11  C   UNL     1      -6.883  54.049  50.328  0.00  0.00    +0.000 A 
ATOM     12  C   UNL     1      -6.257  54.107  52.819  0.00  0.00    +0.000 C 
ATOM     13  C   UNL     1      -6.017  52.852  50.056  0.00  0.00    +0.000 C 
ATOM     14  C   UNL     1      -5.080  53.157  52.437  0.00  0.00    +0.000 C 
ATOM     15  C   UNL     1      -5.551  52.166  51.343  0.00  0.00    +0.000 C 
ATOM     16  C   UNL     1      -4.630  52.331  53.656  0.00  0.00    +0.000 C 
ATOM     17  C   UNL     1      -3.871  53.981  51.949  0.00  0.00    +0.000 C 
BRANCH   9  18
ATOM     18  C   UNL     1      -7.725  54.541  47.907  0.00  0.00    +0.000 C 
ATOM     19  O   UNL     1      -6.762  54.699  47.166  0.00  0.00    +0.000 OA
BRANCH  18  20
ATOM     20  O   UNL     1      -8.955  54.131  47.498  0.00  0.00    +0.000 OA
BRANCH  20  21
ATOM     21  C   UNL     1      -9.422  54.625  46.239  0.00  0.00    +0.000 C 
ATOM     22  C   UNL     1     -10.936  54.580  46.206  0.00  0.00    +0.000 C 
ENDBRANCH  20  21
ENDBRANCH  18  20
ENDBRANCH   9  18
ENDBRANCH   4   7
BRANCH   1  23
ATOM     23  S   UNL     1     -13.354  56.456  49.134  0.00  0.00    +0.000 S 
ATOM     24  O   UNL     1     -13.551  55.048  49.390  0.00  0.00    +0.000 OA
ATOM     25  O   UNL     1     -13.881  57.065  47.929  0.00  0.00    +0.000 OA
BRANCH  23  26
ATOM     26  C   UNL     1     -13.986  57.391  50.514  0.00  0.00    +0.000 A 
ATOM     27  C   UNL     1     -14.557  58.653  50.307  0.00  0.00    +0.000 A 
ATOM     28  C   UNL     1     -13.978  56.829  51.792  0.00  0.00    +0.000 A 
ATOM     29  C   UNL     1     -15.078  59.366  51.392  0.00  0.00    +0.000 A 
ATOM     30  C   UNL     1     -14.496  57.547  52.873  0.00  0.00    +0.000 A 
ATOM     31  C   UNL     1     -15.043  58.824  52.684  0.00  0.00    +0.000 A 
ATOM     32  C   UNL     1     -15.582  59.585  53.860  0.00  0.00    +0.000 C 
ENDBRANCH  23  26
ENDBRANCH   1  23
TORSDOF 6
ENDMDL
MODEL 6
REMARK VINA RESULT:      -6.8      3.785      7.702
REMARK  Name = 
REMARK  10 active torsions:
REMARK  status: ('A' for Active; 'I' for Inactive)
REMARK    1  A    between atoms: S_1  and  N_4
REMARK    2  A    between atoms: S_1  and  C_5
REMARK    3  A    between atoms: N_10  and  C_13
REMARK    4  A    between atoms: C_14  and  C_17
REMARK    5  A    between atoms: C_16  and  C_20
REMARK    6  A    between atoms: C_20  and  O_24
REMARK    7  A    between atoms: O_24  and  C_27
REMARK    8  A    between atoms: C_25  and  C_28
REMARK    9  A    between atoms: C_25  and  C_29
REMARK   10  A    between atoms: C_27  and  C_30
REMARK                            x       y       z     vdW  Elec       q    Type
REMARK                         _______ _______ _______ _____ _____    ______ ____
ROOT
ATOM      1  N   UNL     1     -14.455  55.058  51.195  0.00  0.00    +0.000 N 
ATOM      2  C   UNL     1     -13.139  55.196  51.621  0.00  0.00    +0.000 C 
ATOM      3  O   UNL     1     -12.746  56.221  52.159  0.00  0.00    +0.000 OA
ATOM      4  N   UNL     1     -12.330  54.127  51.287  0.00  0.00    +0.000 N 
ATOM      5  H   UNL     1     -14.717  54.208  50.773  0.00  0.00    +0.000 HD
ATOM      6  H   UNL     1     -12.697  53.333  50.833  0.00  0.00    +0.000 HD
ENDROOT
BRANCH   4   7
ATOM      7  C   UNL     1     -10.984  54.207  51.613  0.00  0.00    +0.000 A 
ATOM      8  S   UNL     1     -10.551  53.509  53.101  0.00  0.00    +0.000 S 
ATOM      9  C   UNL     1      -9.907  54.715  50.909  0.00  0.00    +0.000 A 
ATOM     10  C   UNL     1      -8.889  53.629  52.726  0.00  0.00    +0.000 A 
ATOM     11  C   UNL     1      -8.671  54.293  51.530  0.00  0.00    +0.000 A 
ATOM     12  C   UNL     1      -7.809  53.065  53.616  0.00  0.00    +0.000 C 
ATOM     13  C   UNL     1      -7.284  54.567  51.021  0.00  0.00    +0.000 C 
ATOM     14  C   UNL     1      -6.424  53.707  53.292  0.00  0.00    +0.000 C 
ATOM     15  C   UNL     1      -6.220  53.748  51.756  0.00  0.00    +0.000 C 
ATOM     16  C   UNL     1      -5.282  52.868  53.893  0.00  0.00    +0.000 C 
ATOM     17  C   UNL     1      -6.343  55.123  53.895  0.00  0.00    +0.000 C 
BRANCH   9  18
ATOM     18  C   UNL     1     -10.063  55.548  49.713  0.00  0.00    +0.000 C 
ATOM     19  O   UNL     1      -9.651  56.701  49.643  0.00  0.00    +0.000 OA
BRANCH  18  20
ATOM     20  O   UNL     1     -10.704  54.893  48.709  0.00  0.00    +0.000 OA
BRANCH  20  21
ATOM     21  C   UNL     1     -11.744  55.603  48.029  0.00  0.00    +0.000 C 
ATOM     22  C   UNL     1     -11.601  55.403  46.534  0.00  0.00    +0.000 C 
ENDBRANCH  20  21
ENDBRANCH  18  20
ENDBRANCH   9  18
ENDBRANCH   4   7
BRANCH   1  23
ATOM     23  S   UNL     1     -15.619  56.245  51.353  0.00  0.00    +0.000 S 
ATOM     24  O   UNL     1     -15.957  56.452  52.742  0.00  0.00    +0.000 OA
ATOM     25  O   UNL     1     -16.643  55.882  50.393  0.00  0.00    +0.000 OA
BRANCH  23  26
ATOM     26  C   UNL     1     -14.808  57.703  50.728  0.00  0.00    +0.000 A 
ATOM     27  C   UNL     1     -14.342  57.740  49.409  0.00  0.00    +0.000 A 
ATOM     28  C   UNL     1     -14.705  58.837  51.537  0.00  0.00    +0.000 A 
ATOM     29  C   UNL     1     -13.735  58.900  48.917  0.00  0.00    +0.000 A 
ATOM     30  C   UNL     1     -14.094  59.993  51.043  0.00  0.00    +0.000 A 
ATOM     31  C   UNL     1     -13.597  60.032  49.733  0.00  0.00    +0.000 A 
ATOM     32  C   UNL     1     -12.931  61.278  49.226  0.00  0.00    +0.000 C 
ENDBRANCH  23  26
ENDBRANCH   1  23
TORSDOF 6
ENDMDL
MODEL 7
REMARK VINA RESULT:      -6.6      3.251      8.019
REMARK  Name = 
REMARK  10 active torsions:
REMARK  status: ('A' for Active; 'I' for Inactive)
REMARK    1  A    between atoms: S_1  and  N_4
REMARK    2  A    between atoms: S_1  and  C_5
REMARK    3  A    between atoms: N_10  and  C_13
REMARK    4  A    between atoms: C_14  and  C_17
REMARK    5  A    between atoms: C_16  and  C_20
REMARK    6  A    between atoms: C_20  and  O_24
REMARK    7  A    between atoms: O_24  and  C_27
REMARK    8  A    between atoms: C_25  and  C_28
REMARK    9  A    between atoms: C_25  and  C_29
REMARK   10  A    between atoms: C_27  and  C_30
REMARK                            x       y       z     vdW  Elec       q    Type
REMARK                         _______ _______ _______ _____ _____    ______ ____
ROOT
ATOM      1  N   UNL     1     -12.266  56.950  49.248  0.00  0.00    +0.000 N 
ATOM      2  C   UNL     1     -11.823  55.820  49.926  0.00  0.00    +0.000 C 
ATOM      3  O   UNL     1     -12.606  54.998  50.378  0.00  0.00    +0.000 OA
ATOM      4  N   UNL     1     -10.454  55.784  50.115  0.00  0.00    +0.000 N 
ATOM      5  H   UNL     1     -11.589  57.574  48.900  0.00  0.00    +0.000 HD
ATOM      6  H   UNL     1      -9.870  56.487  49.746  0.00  0.00    +0.000 HD
ENDROOT
BRANCH   4   7
ATOM      7  C   UNL     1      -9.929  54.726  50.842  0.00  0.00    +0.000 A 
ATOM      8  S   UNL     1     -10.032  54.879  52.532  0.00  0.00    +0.000 S 
ATOM      9  C   UNL     1      -9.375  53.527  50.431  0.00  0.00    +0.000 A 
ATOM     10  C   UNL     1      -9.587  53.245  52.753  0.00  0.00    +0.000 A 
ATOM     11  C   UNL     1      -9.258  52.627  51.558  0.00  0.00    +0.000 A 
ATOM     12  C   UNL     1      -9.564  52.582  54.108  0.00  0.00    +0.000 C 
ATOM     13  C   UNL     1      -8.783  51.203  51.509  0.00  0.00    +0.000 C 
ATOM     14  C   UNL     1      -8.698  51.285  54.083  0.00  0.00    +0.000 C 
ATOM     15  C   UNL     1      -9.044  50.456  52.820  0.00  0.00    +0.000 C 
ATOM     16  C   UNL     1      -8.994  50.409  55.314  0.00  0.00    +0.000 C 
ATOM     17  C   UNL     1      -7.199  51.648  54.108  0.00  0.00    +0.000 C 
BRANCH   9  18
ATOM     18  C   UNL     1      -8.992  53.265  49.041  0.00  0.00    +0.000 C 
ATOM     19  O   UNL     1      -7.845  52.991  48.704  0.00  0.00    +0.000 OA
BRANCH  18  20
ATOM     20  O   UNL     1     -10.047  53.358  48.188  0.00  0.00    +0.000 OA
BRANCH  20  21
ATOM     21  C   UNL     1      -9.755  53.676  46.824  0.00  0.00    +0.000 C 
ATOM     22  C   UNL     1      -9.700  55.181  46.654  0.00  0.00    +0.000 C 
ENDBRANCH  20  21
ENDBRANCH  18  20
ENDBRANCH   9  18
ENDBRANCH   4   7
BRANCH   1  23
ATOM     23  S   UNL     1     -13.875  57.313  48.987  0.00  0.00    +0.000 S 
ATOM     24  O   UNL     1     -14.583  56.168  48.465  0.00  0.00    +0.000 OA
ATOM     25  O   UNL     1     -13.851  58.562  48.251  0.00  0.00    +0.000 OA
BRANCH  23  26
ATOM     26  C   UNL     1     -14.484  57.679  50.621  0.00  0.00    +0.000 A 
ATOM     27  C   UNL     1     -15.164  56.701  51.355  0.00  0.00    +0.000 A 
ATOM     28  C   UNL     1     -14.216  58.924  51.196  0.00  0.00    +0.000 A 
ATOM     29  C   UNL     1     -15.612  56.988  52.650  0.00  0.00    +0.000 A 
ATOM     30  C   UNL     1     -14.668  59.207  52.487  0.00  0.00    +0.000 A 
ATOM     31  C   UNL     1     -15.376  58.245  53.222  0.00  0.00    +0.000 A 
ATOM     32  C   UNL     1     -15.866  58.574  54.603  0.00  0.00    +0.000 C 
ENDBRANCH  23  26
ENDBRANCH   1  23
TORSDOF 6
ENDMDL
MODEL 8
REMARK VINA RESULT:      -6.5      3.717      8.133
REMARK  Name = 
REMARK  10 active torsions:
REMARK  status: ('A' for Active; 'I' for Inactive)
REMARK    1  A    between atoms: S_1  and  N_4
REMARK    2  A    between atoms: S_1  and  C_5
REMARK    3  A    between atoms: N_10  and  C_13
REMARK    4  A    between atoms: C_14  and  C_17
REMARK    5  A    between atoms: C_16  and  C_20
REMARK    6  A    between atoms: C_20  and  O_24
REMARK    7  A    between atoms: O_24  and  C_27
REMARK    8  A    between atoms: C_25  and  C_28
REMARK    9  A    between atoms: C_25  and  C_29
REMARK   10  A    between atoms: C_27  and  C_30
REMARK                            x       y       z     vdW  Elec       q    Type
REMARK                         _______ _______ _______ _____ _____    ______ ____
ROOT
ATOM      1  N   UNL     1     -12.991  55.378  49.360  0.00  0.00    +0.000 N 
ATOM      2  C   UNL     1     -11.906  55.175  50.205  0.00  0.00    +0.000 C 
ATOM      3  O   UNL     1     -11.341  56.108  50.756  0.00  0.00    +0.000 OA
ATOM      4  N   UNL     1     -11.489  53.858  50.269  0.00  0.00    +0.000 N 
ATOM      5  H   UNL     1     -13.411  54.589  48.948  0.00  0.00    +0.000 HD
ATOM      6  H   UNL     1     -11.970  53.147  49.785  0.00  0.00    +0.000 HD
ENDROOT
BRANCH   4   7
ATOM      7  C   UNL     1     -10.370  53.571  51.036  0.00  0.00    +0.000 A 
ATOM      8  S   UNL     1     -10.670  53.274  52.682  0.00  0.00    +0.000 S 
ATOM      9  C   UNL     1      -9.039  53.428  50.685  0.00  0.00    +0.000 A 
ATOM     10  C   UNL     1      -9.082  52.692  52.915  0.00  0.00    +0.000 A 
ATOM     11  C   UNL     1      -8.305  52.827  51.777  0.00  0.00    +0.000 A 
ATOM     12  C   UNL     1      -8.612  52.103  54.223  0.00  0.00    +0.000 C 
ATOM     13  C   UNL     1      -6.856  52.433  51.759  0.00  0.00    +0.000 C 
ATOM     14  C   UNL     1      -7.054  52.094  54.305  0.00  0.00    +0.000 C 
ATOM     15  C   UNL     1      -6.469  51.575  52.967  0.00  0.00    +0.000 C 
ATOM     16  C   UNL     1      -6.574  51.150  55.423  0.00  0.00    +0.000 C 
ATOM     17  C   UNL     1      -6.532  53.509  54.621  0.00  0.00    +0.000 C 
BRANCH   9  18
ATOM     18  C   UNL     1      -8.514  53.840  49.380  0.00  0.00    +0.000 C 
ATOM     19  O   UNL     1      -8.843  53.304  48.328  0.00  0.00    +0.000 OA
BRANCH  18  20
ATOM     20  O   UNL     1      -7.638  54.875  49.479  0.00  0.00    +0.000 OA
BRANCH  20  21
ATOM     21  C   UNL     1      -8.192  56.186  49.627  0.00  0.00    +0.000 C 
ATOM     22  C   UNL     1      -7.615  56.844  50.864  0.00  0.00    +0.000 C 
ENDBRANCH  20  21
ENDBRANCH  18  20
ENDBRANCH   9  18
ENDBRANCH   4   7
BRANCH   1  23
ATOM     23  S   UNL     1     -13.626  56.880  48.999  0.00  0.00    +0.000 S 
ATOM     24  O   UNL     1     -14.700  56.767  48.041  0.00  0.00    +0.000 OA
ATOM     25  O   UNL     1     -12.469  57.706  48.714  0.00  0.00    +0.000 OA
BRANCH  23  26
ATOM     26  C   UNL     1     -14.292  57.431  50.558  0.00  0.00    +0.000 A 
ATOM     27  C   UNL     1     -15.031  56.553  51.358  0.00  0.00    +0.000 A 
ATOM     28  C   UNL     1     -14.010  58.722  51.012  0.00  0.00    +0.000 A 
ATOM     29  C   UNL     1     -15.524  56.985  52.594  0.00  0.00    +0.000 A 
ATOM     30  C   UNL     1     -14.507  59.150  52.246  0.00  0.00    +0.000 A 
ATOM     31  C   UNL     1     -15.274  58.289  53.043  0.00  0.00    +0.000 A 
ATOM     32  C   UNL     1     -15.811  58.773  54.359  0.00  0.00    +0.000 C 
ENDBRANCH  23  26
ENDBRANCH   1  23
TORSDOF 6
ENDMDL
MODEL 9
REMARK VINA RESULT:      -6.3      3.877      7.594
REMARK  Name = 
REMARK  10 active torsions:
REMARK  status: ('A' for Active; 'I' for Inactive)
REMARK    1  A    between atoms: S_1  and  N_4
REMARK    2  A    between atoms: S_1  and  C_5
REMARK    3  A    between atoms: N_10  and  C_13
REMARK    4  A    between atoms: C_14  and  C_17
REMARK    5  A    between atoms: C_16  and  C_20
REMARK    6  A    between atoms: C_20  and  O_24
REMARK    7  A    between atoms: O_24  and  C_27
REMARK    8  A    between atoms: C_25  and  C_28
REMARK    9  A    between atoms: C_25  and  C_29
REMARK   10  A    between atoms: C_27  and  C_30
REMARK                            x       y       z     vdW  Elec       q    Type
REMARK                         _______ _______ _______ _____ _____    ______ ____
ROOT
ATOM      1  N   UNL     1      -7.993  55.940  50.603  0.00  0.00    +0.000 N 
ATOM      2  C   UNL     1      -8.475  55.135  49.577  0.00  0.00    +0.000 C 
ATOM      3  O   UNL     1      -8.810  53.976  49.777  0.00  0.00    +0.000 OA
ATOM      4  N   UNL     1      -8.437  55.736  48.333  0.00  0.00    +0.000 N 
ATOM      5  H   UNL     1      -7.745  56.867  50.384  0.00  0.00    +0.000 HD
ATOM      6  H   UNL     1      -8.137  56.668  48.226  0.00  0.00    +0.000 HD
ENDROOT
BRANCH   4   7
ATOM      7  C   UNL     1      -8.836  54.982  47.239  0.00  0.00    +0.000 A 
ATOM      8  S   UNL     1      -7.591  54.160  46.425  0.00  0.00    +0.000 S 
ATOM      9  C   UNL     1     -10.093  54.735  46.714  0.00  0.00    +0.000 A 
ATOM     10  C   UNL     1      -8.718  53.248  45.524  0.00  0.00    +0.000 A 
ATOM     11  C   UNL     1     -10.023  53.647  45.763  0.00  0.00    +0.000 A 
ATOM     12  C   UNL     1      -8.308  52.142  44.583  0.00  0.00    +0.000 C 
ATOM     13  C   UNL     1     -11.184  53.026  45.041  0.00  0.00    +0.000 C 
ATOM     14  C   UNL     1      -9.450  51.813  43.572  0.00  0.00    +0.000 C 
ATOM     15  C   UNL     1     -10.800  51.727  44.328  0.00  0.00    +0.000 C 
ATOM     16  C   UNL     1      -9.203  50.452  42.896  0.00  0.00    +0.000 C 
ATOM     17  C   UNL     1      -9.505  52.888  42.468  0.00  0.00    +0.000 C 
BRANCH   9  18
ATOM     18  C   UNL     1     -11.281  55.494  47.111  0.00  0.00    +0.000 C 
ATOM     19  O   UNL     1     -11.929  56.180  46.328  0.00  0.00    +0.000 OA
BRANCH  18  20
ATOM     20  O   UNL     1     -11.574  55.343  48.431  0.00  0.00    +0.000 OA
BRANCH  20  21
ATOM     21  C   UNL     1     -12.261  54.148  48.813  0.00  0.00    +0.000 C 
ATOM     22  C   UNL     1     -12.157  53.961  50.313  0.00  0.00    +0.000 C 
ENDBRANCH  20  21
ENDBRANCH  18  20
ENDBRANCH   9  18
ENDBRANCH   4   7
BRANCH   1  23
ATOM     23  S   UNL     1      -7.809  55.431  52.183  0.00  0.00    +0.000 S 
ATOM     24  O   UNL     1      -9.057  54.932  52.711  0.00  0.00    +0.000 OA
ATOM     25  O   UNL     1      -7.116  56.523  52.838  0.00  0.00    +0.000 OA
BRANCH  23  26
ATOM     26  C   UNL     1      -6.652  54.082  52.049  0.00  0.00    +0.000 A 
ATOM     27  C   UNL     1      -5.417  54.272  51.419  0.00  0.00    +0.000 A 
ATOM     28  C   UNL     1      -6.953  52.853  52.641  0.00  0.00    +0.000 A 
ATOM     29  C   UNL     1      -4.503  53.216  51.346  0.00  0.00    +0.000 A 
ATOM     30  C   UNL     1      -6.038  51.800  52.562  0.00  0.00    +0.000 A 
ATOM     31  C   UNL     1      -4.810  51.969  51.908  0.00  0.00    +0.000 A 
ATOM     32  C   UNL     1      -3.847  50.820  51.822  0.00  0.00    +0.000 C 
ENDBRANCH  23  26
ENDBRANCH   1  23
TORSDOF 6
ENDMDL
