MODEL 1
REMARK VINA RESULT:      -7.7      0.000      0.000
REMARK  Name = 
REMARK  9 active torsions:
REMARK  status: ('A' for Active; 'I' for Inactive)
REMARK    1  A    between atoms: S_1  and  N_4
REMARK    2  A    between atoms: S_1  and  C_5
REMARK    3  A    between atoms: N_10  and  C_13
REMARK    4  A    between atoms: C_16  and  C_19
REMARK    5  A    between atoms: C_19  and  O_23
REMARK    6  A    between atoms: O_23  and  C_26
REMARK    7  A    between atoms: C_24  and  C_27
REMARK    8  A    between atoms: C_24  and  C_28
REMARK    9  A    between atoms: C_26  and  C_29
REMARK                            x       y       z     vdW  Elec       q    Type
REMARK                         _______ _______ _______ _____ _____    ______ ____
ROOT
ATOM      1  C   UNL     1     -10.976  54.446  51.534  0.00  0.00    +0.000 A 
ATOM      2  S   UNL     1     -10.587  53.887  53.093  0.00  0.00    +0.000 S 
ATOM      3  C   UNL     1      -9.884  54.910  50.824  0.00  0.00    +0.000 A 
ATOM      4  C   UNL     1      -8.920  53.964  52.747  0.00  0.00    +0.000 A 
ATOM      5  C   UNL     1      -8.670  54.515  51.500  0.00  0.00    +0.000 A 
ATOM      6  C   UNL     1      -7.870  53.480  53.713  0.00  0.00    +0.000 C 
ATOM      7  C   UNL     1      -7.272  54.725  50.995  0.00  0.00    +0.000 C 
ATOM      8  C   UNL     1      -6.467  54.061  53.355  0.00  0.00    +0.000 C 
ATOM      9  C   UNL     1      -6.237  53.952  51.824  0.00  0.00    +0.000 C 
ATOM     10  C   UNL     1      -5.362  53.259  54.066  0.00  0.00    +0.000 C 
ATOM     11  C   UNL     1      -6.365  55.526  53.825  0.00  0.00    +0.000 C 
ENDROOT
BRANCH   1  15
ATOM     12  N   UNL     1     -14.464  55.255  51.232  0.00  0.00    +0.000 N 
ATOM     13  C   UNL     1     -13.124  55.421  51.553  0.00  0.00    +0.000 C 
ATOM     14  O   UNL     1     -12.718  56.464  52.042  0.00  0.00    +0.000 OA
ATOM     15  N   UNL     1     -12.319  54.357  51.210  0.00  0.00    +0.000 N 
ATOM     16  H   UNL     1     -14.775  54.382  50.897  0.00  0.00    +0.000 HD
ATOM     17  H   UNL     1     -12.685  53.565  50.751  0.00  0.00    +0.000 HD
BRANCH  12  18
ATOM     18  S   UNL     1     -15.568  56.506  51.404  0.00  0.00    +0.000 S 
ATOM     19  O   UNL     1     -15.706  56.792  52.819  0.00  0.00    +0.000 OA
ATOM     20  O   UNL     1     -16.730  56.088  50.640  0.00  0.00    +0.000 OA
BRANCH  18  21
ATOM     21  C   UNL     1     -14.802  57.898  50.539  0.00  0.00    +0.000 A 
ATOM     22  N   UNL     1     -14.776  59.062  51.231  0.00  0.00    +0.000 NA
ATOM     23  N   UNL     1     -14.347  57.674  49.290  0.00  0.00    +0.000 NA
ATOM     24  C   UNL     1     -14.199  60.084  50.574  0.00  0.00    +0.000 A 
ATOM     25  C   UNL     1     -13.820  58.751  48.683  0.00  0.00    +0.000 A 
ATOM     26  C   UNL     1     -13.710  59.988  49.287  0.00  0.00    +0.000 A 
ENDBRANCH  18  21
ENDBRANCH  12  18
ENDBRANCH   1  15
BRANCH   3  27
ATOM     27  C   UNL     1      -9.952  55.720  49.592  0.00  0.00    +0.000 C 
ATOM     28  O   UNL     1      -9.577  56.885  49.534  0.00  0.00    +0.000 OA
BRANCH  27  29
ATOM     29  O   UNL     1     -10.623  55.084  48.588  0.00  0.00    +0.000 OA
BRANCH  29  30
ATOM     30  C   UNL     1     -11.682  55.793  47.937  0.00  0.00    +0.000 C 
ATOM     31  C   UNL     1     -11.699  55.501  46.450  0.00  0.00    +0.000 C 
ENDBRANCH  29  30
ENDBRANCH  27  29
ENDBRANCH   3  27
TORSDOF 6
ENDMDL
MODEL 2
REMARK VINA RESULT:      -7.5      3.098      7.614
REMARK  Name = 
REMARK  9 active torsions:
REMARK  status: ('A' for Active; 'I' for Inactive)
REMARK    1  A    between atoms: S_1  and  N_4
REMARK    2  A    between atoms: S_1  and  C_5
REMARK    3  A    between atoms: N_10  and  C_13
REMARK    4  A    between atoms: C_16  and  C_19
REMARK    5  A    between atoms: C_19  and  O_23
REMARK    6  A    between atoms: O_23  and  C_26
REMARK    7  A    between atoms: C_24  and  C_27
REMARK    8  A    between atoms: C_24  and  C_28
REMARK    9  A    between atoms: C_26  and  C_29
REMARK                            x       y       z     vdW  Elec       q    Type
REMARK                         _______ _______ _______ _____ _____    ______ ____
ROOT
ATOM      1  C   UNL     1     -11.032  54.821  50.095  0.00  0.00    +0.000 A 
ATOM      2  S   UNL     1     -11.723  54.795  51.650  0.00  0.00    +0.000 S 
ATOM      3  C   UNL     1     -11.655  55.698  49.227  0.00  0.00    +0.000 A 
ATOM      4  C   UNL     1     -12.667  56.169  51.294  0.00  0.00    +0.000 A 
ATOM      5  C   UNL     1     -12.535  56.566  49.974  0.00  0.00    +0.000 A 
ATOM      6  C   UNL     1     -13.533  56.843  52.326  0.00  0.00    +0.000 C 
ATOM      7  C   UNL     1     -13.306  57.728  49.418  0.00  0.00    +0.000 C 
ATOM      8  C   UNL     1     -14.598  57.763  51.651  0.00  0.00    +0.000 C 
ATOM      9  C   UNL     1     -13.926  58.592  50.525  0.00  0.00    +0.000 C 
ATOM     10  C   UNL     1     -15.187  58.740  52.684  0.00  0.00    +0.000 C 
ATOM     11  C   UNL     1     -15.756  56.910  51.093  0.00  0.00    +0.000 C 
ENDROOT
BRANCH   1  15
ATOM     12  N   UNL     1      -7.670  53.554  50.003  0.00  0.00    +0.000 N 
ATOM     13  C   UNL     1      -8.706  54.452  50.224  0.00  0.00    +0.000 C 
ATOM     14  O   UNL     1      -8.491  55.556  50.701  0.00  0.00    +0.000 OA
ATOM     15  N   UNL     1      -9.958  53.962  49.928  0.00  0.00    +0.000 N 
ATOM     16  H   UNL     1      -7.863  52.697  49.560  0.00  0.00    +0.000 HD
ATOM     17  H   UNL     1     -10.085  53.038  49.612  0.00  0.00    +0.000 HD
BRANCH  12  18
ATOM     18  S   UNL     1      -6.096  53.899  50.472  0.00  0.00    +0.000 S 
ATOM     19  O   UNL     1      -5.764  55.224  49.987  0.00  0.00    +0.000 OA
ATOM     20  O   UNL     1      -5.316  52.756  50.031  0.00  0.00    +0.000 OA
BRANCH  18  21
ATOM     21  C   UNL     1      -6.154  53.872  52.279  0.00  0.00    +0.000 A 
ATOM     22  N   UNL     1      -5.490  54.882  52.892  0.00  0.00    +0.000 NA
ATOM     23  N   UNL     1      -6.823  52.857  52.861  0.00  0.00    +0.000 NA
ATOM     24  C   UNL     1      -5.547  54.848  54.235  0.00  0.00    +0.000 A 
ATOM     25  C   UNL     1      -6.803  52.869  54.205  0.00  0.00    +0.000 A 
ATOM     26  C   UNL     1      -6.185  53.855  54.949  0.00  0.00    +0.000 A 
ENDBRANCH  18  21
ENDBRANCH  12  18
ENDBRANCH   1  15
BRANCH   3  27
ATOM     27  C   UNL     1     -11.479  55.714  47.762  0.00  0.00    +0.000 C 
ATOM     28  O   UNL     1     -12.412  55.614  46.973  0.00  0.00    +0.000 OA
BRANCH  27  29
ATOM     29  O   UNL     1     -10.164  55.686  47.395  0.00  0.00    +0.000 OA
BRANCH  29  30
ATOM     30  C   UNL     1      -9.762  54.718  46.421  0.00  0.00    +0.000 C 
ATOM     31  C   UNL     1      -8.305  54.898  46.044  0.00  0.00    +0.000 C 
ENDBRANCH  29  30
ENDBRANCH  27  29
ENDBRANCH   3  27
TORSDOF 6
ENDMDL
MODEL 3
REMARK VINA RESULT:      -6.9      4.106      7.395
REMARK  Name = 
REMARK  9 active torsions:
REMARK  status: ('A' for Active; 'I' for Inactive)
REMARK    1  A    between atoms: S_1  and  N_4
REMARK    2  A    between atoms: S_1  and  C_5
REMARK    3  A    between atoms: N_10  and  C_13
REMARK    4  A    between atoms: C_16  and  C_19
REMARK    5  A    between atoms: C_19  and  O_23
REMARK    6  A    between atoms: O_23  and  C_26
REMARK    7  A    between atoms: C_24  and  C_27
REMARK    8  A    between atoms: C_24  and  C_28
REMARK    9  A    between atoms: C_26  and  C_29
REMARK                            x       y       z     vdW  Elec       q    Type
REMARK                         _______ _______ _______ _____ _____    ______ ____
ROOT
ATOM      1  C   UNL     1     -11.260  54.732  49.929  0.00  0.00    +0.000 A 
ATOM      2  S   UNL     1     -11.965  54.694  51.478  0.00  0.00    +0.000 S 
ATOM      3  C   UNL     1     -11.801  55.696  49.100  0.00  0.00    +0.000 A 
ATOM      4  C   UNL     1     -12.789  56.156  51.181  0.00  0.00    +0.000 A 
ATOM      5  C   UNL     1     -12.613  56.600  49.881  0.00  0.00    +0.000 A 
ATOM      6  C   UNL     1     -13.605  56.853  52.239  0.00  0.00    +0.000 C 
ATOM      7  C   UNL     1     -13.280  57.846  49.375  0.00  0.00    +0.000 C 
ATOM      8  C   UNL     1     -14.584  57.887  51.601  0.00  0.00    +0.000 C 
ATOM      9  C   UNL     1     -13.835  58.708  50.517  0.00  0.00    +0.000 C 
ATOM     10  C   UNL     1     -15.099  58.862  52.674  0.00  0.00    +0.000 C 
ATOM     11  C   UNL     1     -15.803  57.160  50.998  0.00  0.00    +0.000 C 
ENDROOT
BRANCH   1  15
ATOM     12  N   UNL     1      -9.593  51.653  49.118  0.00  0.00    +0.000 N 
ATOM     13  C   UNL     1     -10.638  52.556  49.264  0.00  0.00    +0.000 C 
ATOM     14  O   UNL     1     -11.777  52.259  48.937  0.00  0.00    +0.000 OA
ATOM     15  N   UNL     1     -10.260  53.796  49.729  0.00  0.00    +0.000 N 
ATOM     16  H   UNL     1      -8.698  51.896  49.447  0.00  0.00    +0.000 HD
ATOM     17  H   UNL     1      -9.316  54.008  49.911  0.00  0.00    +0.000 HD
BRANCH  12  18
ATOM     18  S   UNL     1      -9.823  50.157  48.396  0.00  0.00    +0.000 S 
ATOM     19  O   UNL     1     -10.923  49.497  49.071  0.00  0.00    +0.000 OA
ATOM     20  O   UNL     1      -8.509  49.538  48.392  0.00  0.00    +0.000 OA
BRANCH  18  21
ATOM     21  C   UNL     1     -10.261  50.549  46.686  0.00  0.00    +0.000 A 
ATOM     22  N   UNL     1      -9.275  51.125  45.956  0.00  0.00    +0.000 NA
ATOM     23  N   UNL     1     -11.517  50.262  46.288  0.00  0.00    +0.000 NA
ATOM     24  C   UNL     1      -9.618  51.406  44.686  0.00  0.00    +0.000 A 
ATOM     25  C   UNL     1     -11.796  50.608  45.020  0.00  0.00    +0.000 A 
ATOM     26  C   UNL     1     -10.874  51.176  44.164  0.00  0.00    +0.000 A 
ENDBRANCH  18  21
ENDBRANCH  12  18
ENDBRANCH   1  15
BRANCH   3  27
ATOM     27  C   UNL     1     -11.611  55.764  47.637  0.00  0.00    +0.000 C 
ATOM     28  O   UNL     1     -12.541  55.740  46.838  0.00  0.00    +0.000 OA
BRANCH  27  29
ATOM     29  O   UNL     1     -10.296  55.691  47.279  0.00  0.00    +0.000 OA
BRANCH  29  30
ATOM     30  C   UNL     1      -9.923  54.719  46.298  0.00  0.00    +0.000 C 
ATOM     31  C   UNL     1      -8.444  54.805  45.980  0.00  0.00    +0.000 C 
ENDBRANCH  29  30
ENDBRANCH  27  29
ENDBRANCH   3  27
TORSDOF 6
ENDMDL
MODEL 4
REMARK VINA RESULT:      -6.9      3.959      7.493
REMARK  Name = 
REMARK  9 active torsions:
REMARK  status: ('A' for Active; 'I' for Inactive)
REMARK    1  A    between atoms: S_1  and  N_4
REMARK    2  A    between atoms: S_1  and  C_5
REMARK    3  A    between atoms: N_10  and  C_13
REMARK    4  A    between atoms: C_16  and  C_19
REMARK    5  A    between atoms: C_19  and  O_23
REMARK    6  A    between atoms: O_23  and  C_26
REMARK    7  A    between atoms: C_24  and  C_27
REMARK    8  A    between atoms: C_24  and  C_28
REMARK    9  A    between atoms: C_26  and  C_29
REMARK                            x       y       z     vdW  Elec       q    Type
REMARK                         _______ _______ _______ _____ _____    ______ ____
ROOT
ATOM      1  C   UNL     1      -8.713  54.970  47.185  0.00  0.00    +0.000 A 
ATOM      2  S   UNL     1      -7.493  54.231  46.256  0.00  0.00    +0.000 S 
ATOM      3  C   UNL     1      -9.992  54.672  46.755  0.00  0.00    +0.000 A 
ATOM      4  C   UNL     1      -8.639  53.258  45.455  0.00  0.00    +0.000 A 
ATOM      5  C   UNL     1      -9.938  53.576  45.815  0.00  0.00    +0.000 A 
ATOM      6  C   UNL     1      -8.243  52.185  44.474  0.00  0.00    +0.000 C 
ATOM      7  C   UNL     1     -11.120  52.881  45.204  0.00  0.00    +0.000 C 
ATOM      8  C   UNL     1      -9.453  51.769  43.580  0.00  0.00    +0.000 C 
ATOM      9  C   UNL     1     -10.716  51.598  44.465  0.00  0.00    +0.000 C 
ATOM     10  C   UNL     1      -9.164  50.424  42.888  0.00  0.00    +0.000 C 
ATOM     11  C   UNL     1      -9.687  52.825  42.481  0.00  0.00    +0.000 C 
ENDROOT
BRANCH   1  15
ATOM     12  N   UNL     1      -7.645  56.004  50.457  0.00  0.00    +0.000 N 
ATOM     13  C   UNL     1      -8.080  55.153  49.450  0.00  0.00    +0.000 C 
ATOM     14  O   UNL     1      -8.232  53.958  49.657  0.00  0.00    +0.000 OA
ATOM     15  N   UNL     1      -8.247  55.758  48.225  0.00  0.00    +0.000 N 
ATOM     16  H   UNL     1      -7.591  56.971  50.280  0.00  0.00    +0.000 HD
ATOM     17  H   UNL     1      -8.043  56.712  48.092  0.00  0.00    +0.000 HD
BRANCH  12  18
ATOM     18  S   UNL     1      -7.211  55.422  51.970  0.00  0.00    +0.000 S 
ATOM     19  O   UNL     1      -7.016  56.559  52.848  0.00  0.00    +0.000 OA
ATOM     20  O   UNL     1      -6.108  54.513  51.718  0.00  0.00    +0.000 OA
BRANCH  18  21
ATOM     21  C   UNL     1      -8.636  54.440  52.496  0.00  0.00    +0.000 A 
ATOM     22  N   UNL     1      -8.342  53.203  52.962  0.00  0.00    +0.000 NA
ATOM     23  N   UNL     1      -9.855  55.001  52.364  0.00  0.00    +0.000 NA
ATOM     24  C   UNL     1      -9.414  52.489  53.352  0.00  0.00    +0.000 A 
ATOM     25  C   UNL     1     -10.878  54.213  52.738  0.00  0.00    +0.000 A 
ATOM     26  C   UNL     1     -10.713  52.944  53.254  0.00  0.00    +0.000 A 
ENDBRANCH  18  21
ENDBRANCH  12  18
ENDBRANCH   1  15
BRANCH   3  27
ATOM     27  C   UNL     1     -11.215  55.391  47.161  0.00  0.00    +0.000 C 
ATOM     28  O   UNL     1     -11.915  56.021  46.376  0.00  0.00    +0.000 OA
BRANCH  27  29
ATOM     29  O   UNL     1     -11.381  55.412  48.515  0.00  0.00    +0.000 OA
BRANCH  29  30
ATOM     30  C   UNL     1     -12.446  54.633  49.070  0.00  0.00    +0.000 C 
ATOM     31  C   UNL     1     -12.018  53.195  49.282  0.00  0.00    +0.000 C 
ENDBRANCH  29  30
ENDBRANCH  27  29
ENDBRANCH   3  27
TORSDOF 6
ENDMDL
MODEL 5
REMARK VINA RESULT:      -6.8      2.346      2.997
REMARK  Name = 
REMARK  9 active torsions:
REMARK  status: ('A' for Active; 'I' for Inactive)
REMARK    1  A    between atoms: S_1  and  N_4
REMARK    2  A    between atoms: S_1  and  C_5
REMARK    3  A    between atoms: N_10  and  C_13
REMARK    4  A    between atoms: C_16  and  C_19
REMARK    5  A    between atoms: C_19  and  O_23
REMARK    6  A    between atoms: O_23  and  C_26
REMARK    7  A    between atoms: C_24  and  C_27
REMARK    8  A    between atoms: C_24  and  C_28
REMARK    9  A    between atoms: C_26  and  C_29
REMARK                            x       y       z     vdW  Elec       q    Type
REMARK                         _______ _______ _______ _____ _____    ______ ____
ROOT
ATOM      1  C   UNL     1      -8.437  55.678  49.833  0.00  0.00    +0.000 A 
ATOM      2  S   UNL     1      -7.892  56.035  51.405  0.00  0.00    +0.000 S 
ATOM      3  C   UNL     1      -7.747  54.643  49.230  0.00  0.00    +0.000 A 
ATOM      4  C   UNL     1      -6.935  54.626  51.435  0.00  0.00    +0.000 A 
ATOM      5  C   UNL     1      -6.949  53.959  50.221  0.00  0.00    +0.000 A 
ATOM      6  C   UNL     1      -6.175  54.190  52.662  0.00  0.00    +0.000 C 
ATOM      7  C   UNL     1      -6.142  52.712  49.995  0.00  0.00    +0.000 C 
ATOM      8  C   UNL     1      -5.063  53.159  52.296  0.00  0.00    +0.000 C 
ATOM      9  C   UNL     1      -5.638  52.106  51.312  0.00  0.00    +0.000 C 
ATOM     10  C   UNL     1      -4.583  52.425  53.561  0.00  0.00    +0.000 C 
ATOM     11  C   UNL     1      -3.850  53.885  51.681  0.00  0.00    +0.000 C 
ENDROOT
BRANCH   1  15
ATOM     12  N   UNL     1     -11.753  56.792  49.009  0.00  0.00    +0.000 N 
ATOM     13  C   UNL     1     -10.755  55.961  49.501  0.00  0.00    +0.000 C 
ATOM     14  O   UNL     1     -11.029  54.898  50.036  0.00  0.00    +0.000 OA
ATOM     15  N   UNL     1      -9.482  56.473  49.391  0.00  0.00    +0.000 N 
ATOM     16  H   UNL     1     -11.502  57.613  48.527  0.00  0.00    +0.000 HD
ATOM     17  H   UNL     1      -9.320  57.368  49.015  0.00  0.00    +0.000 HD
BRANCH  12  18
ATOM     18  S   UNL     1     -13.378  56.428  49.215  0.00  0.00    +0.000 S 
ATOM     19  O   UNL     1     -13.485  55.015  49.520  0.00  0.00    +0.000 OA
ATOM     20  O   UNL     1     -14.033  56.960  48.034  0.00  0.00    +0.000 OA
BRANCH  18  21
ATOM     21  C   UNL     1     -13.882  57.431  50.633  0.00  0.00    +0.000 A 
ATOM     22  N   UNL     1     -13.700  56.850  51.844  0.00  0.00    +0.000 NA
ATOM     23  N   UNL     1     -14.409  58.645  50.375  0.00  0.00    +0.000 NA
ATOM     24  C   UNL     1     -14.077  57.613  52.886  0.00  0.00    +0.000 A 
ATOM     25  C   UNL     1     -14.798  59.330  51.463  0.00  0.00    +0.000 A 
ATOM     26  C   UNL     1     -14.644  58.864  52.753  0.00  0.00    +0.000 A 
ENDBRANCH  18  21
ENDBRANCH  12  18
ENDBRANCH   1  15
BRANCH   3  27
ATOM     27  C   UNL     1      -7.787  54.318  47.791  0.00  0.00    +0.000 C 
ATOM     28  O   UNL     1      -6.838  54.498  47.036  0.00  0.00    +0.000 OA
BRANCH  27  29
ATOM     29  O   UNL     1      -9.035  53.957  47.374  0.00  0.00    +0.000 OA
BRANCH  29  30
ATOM     30  C   UNL     1      -9.551  54.576  46.192  0.00  0.00    +0.000 C 
ATOM     31  C   UNL     1     -11.063  54.481  46.142  0.00  0.00    +0.000 C 
ENDBRANCH  29  30
ENDBRANCH  27  29
ENDBRANCH   3  27
TORSDOF 6
ENDMDL
MODEL 6
REMARK VINA RESULT:      -6.7      2.352      3.067
REMARK  Name = 
REMARK  9 active torsions:
REMARK  status: ('A' for Active; 'I' for Inactive)
REMARK    1  A    between atoms: S_1  and  N_4
REMARK    2  A    between atoms: S_1  and  C_5
REMARK    3  A    between atoms: N_10  and  C_13
REMARK    4  A    between atoms: C_16  and  C_19
REMARK    5  A    between atoms: C_19  and  O_23
REMARK    6  A    between atoms: O_23  and  C_26
REMARK    7  A    between atoms: C_24  and  C_27
REMARK    8  A    between atoms: C_24  and  C_28
REMARK    9  A    between atoms: C_26  and  C_29
REMARK                            x       y       z     vdW  Elec       q    Type
REMARK                         _______ _______ _______ _____ _____    ______ ____
ROOT
ATOM      1  C   UNL     1      -9.942  54.972  50.895  0.00  0.00    +0.000 A 
ATOM      2  S   UNL     1     -10.157  55.004  52.583  0.00  0.00    +0.000 S 
ATOM      3  C   UNL     1      -9.274  53.849  50.445  0.00  0.00    +0.000 A 
ATOM      4  C   UNL     1      -9.640  53.386  52.718  0.00  0.00    +0.000 A 
ATOM      5  C   UNL     1      -9.206  52.873  51.507  0.00  0.00    +0.000 A 
ATOM      6  C   UNL     1      -9.668  52.635  54.025  0.00  0.00    +0.000 C 
ATOM      7  C   UNL     1      -8.663  51.478  51.389  0.00  0.00    +0.000 C 
ATOM      8  C   UNL     1      -8.753  51.373  53.966  0.00  0.00    +0.000 C 
ATOM      9  C   UNL     1      -8.986  50.627  52.625  0.00  0.00    +0.000 C 
ATOM     10  C   UNL     1      -9.098  50.412  55.118  0.00  0.00    +0.000 C 
ATOM     11  C   UNL     1      -7.275  51.783  54.119  0.00  0.00    +0.000 C 
ENDROOT
BRANCH   1  15
ATOM     12  N   UNL     1     -12.273  57.206  49.318  0.00  0.00    +0.000 N 
ATOM     13  C   UNL     1     -11.821  56.098  50.022  0.00  0.00    +0.000 C 
ATOM     14  O   UNL     1     -12.604  55.270  50.462  0.00  0.00    +0.000 OA
ATOM     15  N   UNL     1     -10.460  56.069  50.228  0.00  0.00    +0.000 N 
ATOM     16  H   UNL     1     -11.617  57.825  48.921  0.00  0.00    +0.000 HD
ATOM     17  H   UNL     1      -9.879  56.799  49.914  0.00  0.00    +0.000 HD
BRANCH  12  18
ATOM     18  S   UNL     1     -13.911  57.514  49.124  0.00  0.00    +0.000 S 
ATOM     19  O   UNL     1     -14.519  56.343  48.523  0.00  0.00    +0.000 OA
ATOM     20  O   UNL     1     -13.972  58.790  48.433  0.00  0.00    +0.000 OA
BRANCH  18  21
ATOM     21  C   UNL     1     -14.520  57.761  50.809  0.00  0.00    +0.000 A 
ATOM     22  N   UNL     1     -15.250  56.737  51.313  0.00  0.00    +0.000 NA
ATOM     23  N   UNL     1     -14.221  58.931  51.409  0.00  0.00    +0.000 NA
ATOM     24  C   UNL     1     -15.691  56.937  52.569  0.00  0.00    +0.000 A 
ATOM     25  C   UNL     1     -14.729  59.073  52.645  0.00  0.00    +0.000 A 
ATOM     26  C   UNL     1     -15.467  58.096  53.283  0.00  0.00    +0.000 A 
ENDBRANCH  18  21
ENDBRANCH  12  18
ENDBRANCH   1  15
BRANCH   3  27
ATOM     27  C   UNL     1      -8.685  53.692  49.101  0.00  0.00    +0.000 C 
ATOM     28  O   UNL     1      -7.477  53.711  48.891  0.00  0.00    +0.000 OA
BRANCH  27  29
ATOM     29  O   UNL     1      -9.629  53.689  48.116  0.00  0.00    +0.000 OA
BRANCH  29  30
ATOM     30  C   UNL     1      -9.403  54.515  46.969  0.00  0.00    +0.000 C 
ATOM     31  C   UNL     1     -10.638  55.324  46.628  0.00  0.00    +0.000 C 
ENDBRANCH  29  30
ENDBRANCH  27  29
ENDBRANCH   3  27
TORSDOF 6
ENDMDL
MODEL 7
REMARK VINA RESULT:      -6.7      4.156      8.107
REMARK  Name = 
REMARK  9 active torsions:
REMARK  status: ('A' for Active; 'I' for Inactive)
REMARK    1  A    between atoms: S_1  and  N_4
REMARK    2  A    between atoms: S_1  and  C_5
REMARK    3  A    between atoms: N_10  and  C_13
REMARK    4  A    between atoms: C_16  and  C_19
REMARK    5  A    between atoms: C_19  and  O_23
REMARK    6  A    between atoms: O_23  and  C_26
REMARK    7  A    between atoms: C_24  and  C_27
REMARK    8  A    between atoms: C_24  and  C_28
REMARK    9  A    between atoms: C_26  and  C_29
REMARK                            x       y       z     vdW  Elec       q    Type
REMARK                         _______ _______ _______ _____ _____    ______ ____
ROOT
ATOM      1  C   UNL     1      -8.679  54.890  47.248  0.00  0.00    +0.000 A 
ATOM      2  S   UNL     1      -7.464  54.121  46.336  0.00  0.00    +0.000 S 
ATOM      3  C   UNL     1      -9.957  54.639  46.788  0.00  0.00    +0.000 A 
ATOM      4  C   UNL     1      -8.625  53.194  45.501  0.00  0.00    +0.000 A 
ATOM      5  C   UNL     1      -9.920  53.552  45.838  0.00  0.00    +0.000 A 
ATOM      6  C   UNL     1      -8.245  52.118  44.517  0.00  0.00    +0.000 C 
ATOM      7  C   UNL     1     -11.112  52.901  45.196  0.00  0.00    +0.000 C 
ATOM      8  C   UNL     1      -9.448  51.751  43.594  0.00  0.00    +0.000 C 
ATOM      9  C   UNL     1     -10.734  51.614  44.451  0.00  0.00    +0.000 C 
ATOM     10  C   UNL     1      -9.189  50.405  42.894  0.00  0.00    +0.000 C 
ATOM     11  C   UNL     1      -9.624  52.826  42.502  0.00  0.00    +0.000 C 
ENDROOT
BRANCH   1  15
ATOM     12  N   UNL     1      -7.799  55.912  50.579  0.00  0.00    +0.000 N 
ATOM     13  C   UNL     1      -8.251  55.085  49.559  0.00  0.00    +0.000 C 
ATOM     14  O   UNL     1      -8.591  53.934  49.786  0.00  0.00    +0.000 OA
ATOM     15  N   UNL     1      -8.209  55.652  48.305  0.00  0.00    +0.000 N 
ATOM     16  H   UNL     1      -7.591  56.854  50.379  0.00  0.00    +0.000 HD
ATOM     17  H   UNL     1      -7.859  56.561  48.165  0.00  0.00    +0.000 HD
BRANCH  12  18
ATOM     18  S   UNL     1      -7.602  55.345  52.145  0.00  0.00    +0.000 S 
ATOM     19  O   UNL     1      -8.855  54.748  52.567  0.00  0.00    +0.000 OA
ATOM     20  O   UNL     1      -7.058  56.470  52.885  0.00  0.00    +0.000 OA
BRANCH  18  21
ATOM     21  C   UNL     1      -6.308  54.089  52.005  0.00  0.00    +0.000 A 
ATOM     22  N   UNL     1      -5.180  54.493  51.372  0.00  0.00    +0.000 NA
ATOM     23  N   UNL     1      -6.573  52.869  52.514  0.00  0.00    +0.000 NA
ATOM     24  C   UNL     1      -4.227  53.548  51.282  0.00  0.00    +0.000 A 
ATOM     25  C   UNL     1      -5.590  51.968  52.350  0.00  0.00    +0.000 A 
ATOM     26  C   UNL     1      -4.382  52.259  51.747  0.00  0.00    +0.000 A 
ENDBRANCH  18  21
ENDBRANCH  12  18
ENDBRANCH   1  15
BRANCH   3  27
ATOM     27  C   UNL     1     -11.165  55.394  47.176  0.00  0.00    +0.000 C 
ATOM     28  O   UNL     1     -11.833  56.046  46.382  0.00  0.00    +0.000 OA
BRANCH  27  29
ATOM     29  O   UNL     1     -11.352  55.417  48.528  0.00  0.00    +0.000 OA
BRANCH  29  30
ATOM     30  C   UNL     1     -12.449  54.671  49.064  0.00  0.00    +0.000 C 
ATOM     31  C   UNL     1     -12.217  53.180  48.920  0.00  0.00    +0.000 C 
ENDBRANCH  29  30
ENDBRANCH  27  29
ENDBRANCH   3  27
TORSDOF 6
ENDMDL
MODEL 8
REMARK VINA RESULT:      -6.6      1.928      2.491
REMARK  Name = 
REMARK  9 active torsions:
REMARK  status: ('A' for Active; 'I' for Inactive)
REMARK    1  A    between atoms: S_1  and  N_4
REMARK    2  A    between atoms: S_1  and  C_5
REMARK    3  A    between atoms: N_10  and  C_13
REMARK    4  A    between atoms: C_16  and  C_19
REMARK    5  A    between atoms: C_19  and  O_23
REMARK    6  A    between atoms: O_23  and  C_26
REMARK    7  A    between atoms: C_24  and  C_27
REMARK    8  A    between atoms: C_24  and  C_28
REMARK    9  A    between atoms: C_26  and  C_29
REMARK                            x       y       z     vdW  Elec       q    Type
REMARK                         _______ _______ _______ _____ _____    ______ ____
ROOT
ATOM      1  C   UNL     1     -11.222  53.375  50.943  0.00  0.00    +0.000 A 
ATOM      2  S   UNL     1     -10.189  53.219  52.287  0.00  0.00    +0.000 S 
ATOM      3  C   UNL     1     -10.590  53.162  49.733  0.00  0.00    +0.000 A 
ATOM      4  C   UNL     1      -8.954  52.566  51.310  0.00  0.00    +0.000 A 
ATOM      5  C   UNL     1      -9.291  52.575  49.967  0.00  0.00    +0.000 A 
ATOM      6  C   UNL     1      -7.659  52.050  51.882  0.00  0.00    +0.000 C 
ATOM      7  C   UNL     1      -8.340  52.089  48.911  0.00  0.00    +0.000 C 
ATOM      8  C   UNL     1      -6.565  51.933  50.776  0.00  0.00    +0.000 C 
ATOM      9  C   UNL     1      -7.178  51.284  49.508  0.00  0.00    +0.000 C 
ATOM     10  C   UNL     1      -5.409  51.041  51.264  0.00  0.00    +0.000 C 
ATOM     11  C   UNL     1      -5.984  53.326  50.457  0.00  0.00    +0.000 C 
ENDROOT
BRANCH   1  15
ATOM     12  N   UNL     1     -14.157  55.274  51.777  0.00  0.00    +0.000 N 
ATOM     13  C   UNL     1     -12.836  55.025  51.428  0.00  0.00    +0.000 C 
ATOM     14  O   UNL     1     -12.052  55.942  51.234  0.00  0.00    +0.000 OA
ATOM     15  N   UNL     1     -12.532  53.693  51.259  0.00  0.00    +0.000 N 
ATOM     16  H   UNL     1     -14.750  54.517  51.988  0.00  0.00    +0.000 HD
ATOM     17  H   UNL     1     -13.219  52.994  51.358  0.00  0.00    +0.000 HD
BRANCH  12  18
ATOM     18  S   UNL     1     -14.764  56.836  51.850  0.00  0.00    +0.000 S 
ATOM     19  O   UNL     1     -13.997  57.570  52.837  0.00  0.00    +0.000 OA
ATOM     20  O   UNL     1     -16.196  56.672  52.030  0.00  0.00    +0.000 OA
BRANCH  18  21
ATOM     21  C   UNL     1     -14.482  57.502  50.192  0.00  0.00    +0.000 A 
ATOM     22  N   UNL     1     -14.534  56.592  49.189  0.00  0.00    +0.000 NA
ATOM     23  N   UNL     1     -14.227  58.822  50.092  0.00  0.00    +0.000 NA
ATOM     24  C   UNL     1     -14.327  57.106  47.964  0.00  0.00    +0.000 A 
ATOM     25  C   UNL     1     -13.991  59.254  48.841  0.00  0.00    +0.000 A 
ATOM     26  C   UNL     1     -14.040  58.435  47.731  0.00  0.00    +0.000 A 
ENDBRANCH  18  21
ENDBRANCH  12  18
ENDBRANCH   1  15
BRANCH   3  27
ATOM     27  C   UNL     1     -11.141  53.521  48.411  0.00  0.00    +0.000 C 
ATOM     28  O   UNL     1     -11.773  52.736  47.712  0.00  0.00    +0.000 OA
BRANCH  27  29
ATOM     29  O   UNL     1     -10.729  54.753  47.993  0.00  0.00    +0.000 OA
BRANCH  29  30
ATOM     30  C   UNL     1     -10.211  54.871  46.665  0.00  0.00    +0.000 C 
ATOM     31  C   UNL     1      -8.713  55.099  46.682  0.00  0.00    +0.000 C 
ENDBRANCH  29  30
ENDBRANCH  27  29
ENDBRANCH   3  27
TORSDOF 6
ENDMDL
MODEL 9
REMARK VINA RESULT:      -6.6      4.308      7.848
REMARK  Name = 
REMARK  9 active torsions:
REMARK  status: ('A' for Active; 'I' for Inactive)
REMARK    1  A    between atoms: S_1  and  N_4
REMARK    2  A    between atoms: S_1  and  C_5
REMARK    3  A    between atoms: N_10  and  C_13
REMARK    4  A    between atoms: C_16  and  C_19
REMARK    5  A    between atoms: C_19  and  O_23
REMARK    6  A    between atoms: O_23  and  C_26
REMARK    7  A    between atoms: C_24  and  C_27
REMARK    8  A    between atoms: C_24  and  C_28
REMARK    9  A    between atoms: C_26  and  C_29
REMARK                            x       y       z     vdW  Elec       q    Type
REMARK                         _______ _______ _______ _____ _____    ______ ____
ROOT
ATOM      1  C   UNL     1     -11.636  55.915  47.653  0.00  0.00    +0.000 A 
ATOM      2  S   UNL     1     -13.270  56.379  47.542  0.00  0.00    +0.000 S 
ATOM      3  C   UNL     1     -11.115  56.026  48.928  0.00  0.00    +0.000 A 
ATOM      4  C   UNL     1     -13.406  56.445  49.240  0.00  0.00    +0.000 A 
ATOM      5  C   UNL     1     -12.193  56.226  49.870  0.00  0.00    +0.000 A 
ATOM      6  C   UNL     1     -14.715  56.714  49.935  0.00  0.00    +0.000 C 
ATOM      7  C   UNL     1     -12.058  56.280  51.365  0.00  0.00    +0.000 C 
ATOM      8  C   UNL     1     -14.484  57.155  51.414  0.00  0.00    +0.000 C 
ATOM      9  C   UNL     1     -13.421  56.234  52.068  0.00  0.00    +0.000 C 
ATOM     10  C   UNL     1     -15.792  57.029  52.216  0.00  0.00    +0.000 C 
ATOM     11  C   UNL     1     -14.041  58.632  51.463  0.00  0.00    +0.000 C 
ENDROOT
BRANCH   1  15
ATOM     12  N   UNL     1     -10.497  53.802  44.979  0.00  0.00    +0.000 N 
ATOM     13  C   UNL     1     -11.109  54.155  46.174  0.00  0.00    +0.000 C 
ATOM     14  O   UNL     1     -11.676  53.319  46.862  0.00  0.00    +0.000 OA
ATOM     15  N   UNL     1     -11.073  55.502  46.457  0.00  0.00    +0.000 N 
ATOM     16  H   UNL     1      -9.994  54.483  44.476  0.00  0.00    +0.000 HD
ATOM     17  H   UNL     1     -10.664  56.146  45.834  0.00  0.00    +0.000 HD
BRANCH  12  18
ATOM     18  S   UNL     1     -10.594  52.241  44.372  0.00  0.00    +0.000 S 
ATOM     19  O   UNL     1     -10.121  52.263  43.001  0.00  0.00    +0.000 OA
ATOM     20  O   UNL     1     -11.952  51.813  44.656  0.00  0.00    +0.000 OA
BRANCH  18  21
ATOM     21  C   UNL     1      -9.475  51.284  45.422  0.00  0.00    +0.000 A 
ATOM     22  N   UNL     1      -8.158  51.554  45.257  0.00  0.00    +0.000 NA
ATOM     23  N   UNL     1     -10.030  50.381  46.255  0.00  0.00    +0.000 NA
ATOM     24  C   UNL     1      -7.341  50.836  46.049  0.00  0.00    +0.000 A 
ATOM     25  C   UNL     1      -9.150  49.675  46.984  0.00  0.00    +0.000 A 
ATOM     26  C   UNL     1      -7.784  49.871  46.930  0.00  0.00    +0.000 A 
ENDBRANCH  18  21
ENDBRANCH  12  18
ENDBRANCH   1  15
BRANCH   3  27
ATOM     27  C   UNL     1      -9.679  55.990  49.267  0.00  0.00    +0.000 C 
ATOM     28  O   UNL     1      -9.056  56.973  49.654  0.00  0.00    +0.000 OA
BRANCH  27  29
ATOM     29  O   UNL     1      -9.099  54.798  48.946  0.00  0.00    +0.000 OA
BRANCH  29  30
ATOM     30  C   UNL     1      -7.715  54.803  48.582  0.00  0.00    +0.000 C 
ATOM     31  C   UNL     1      -7.544  54.640  47.086  0.00  0.00    +0.000 C 
ENDBRANCH  29  30
ENDBRANCH  27  29
ENDBRANCH   3  27
TORSDOF 6
ENDMDL
