MODEL 1
REMARK VINA RESULT:      -7.5      0.000      0.000
REMARK  Name = 
REMARK  9 active torsions:
REMARK  status: ('A' for Active; 'I' for Inactive)
REMARK    1  A    between atoms: S_1  and  N_4
REMARK    2  A    between atoms: S_1  and  C_5
REMARK    3  A    between atoms: N_10  and  C_13
REMARK    4  A    between atoms: C_14  and  C_17
REMARK    5  A    between atoms: C_16  and  C_20
REMARK    6  A    between atoms: C_20  and  O_24
REMARK    7  A    between atoms: O_24  and  C_27
REMARK    8  A    between atoms: C_25  and  C_28
REMARK    9  A    between atoms: C_27  and  C_29
REMARK                            x       y       z     vdW  Elec       q    Type
REMARK                         _______ _______ _______ _____ _____    ______ ____
ROOT
ATOM      1  N   UNL     1     -10.606  56.084  48.521  0.00  0.00    +0.000 N 
ATOM      2  C   UNL     1      -9.710  55.526  49.429  0.00  0.00    +0.000 C 
ATOM      3  O   UNL     1     -10.040  54.623  50.186  0.00  0.00    +0.000 OA
ATOM      4  N   UNL     1      -8.477  56.154  49.465  0.00  0.00    +0.000 N 
ATOM      5  H   UNL     1     -10.285  56.815  47.945  0.00  0.00    +0.000 HD
ATOM      6  H   UNL     1      -8.260  56.889  48.847  0.00  0.00    +0.000 HD
ENDROOT
BRANCH   4   7
ATOM      7  C   UNL     1      -7.560  55.708  50.406  0.00  0.00    +0.000 A 
ATOM      8  S   UNL     1      -7.809  56.266  51.991  0.00  0.00    +0.000 S 
ATOM      9  C   UNL     1      -6.492  54.834  50.295  0.00  0.00    +0.000 A 
ATOM     10  C   UNL     1      -6.661  55.165  52.608  0.00  0.00    +0.000 A 
ATOM     11  C   UNL     1      -6.031  54.441  51.608  0.00  0.00    +0.000 A 
ATOM     12  C   UNL     1      -6.385  55.017  54.079  0.00  0.00    +0.000 C 
ATOM     13  C   UNL     1      -4.948  53.442  51.917  0.00  0.00    +0.000 C 
ATOM     14  C   UNL     1      -5.026  54.317  54.323  0.00  0.00    +0.000 C 
ATOM     15  C   UNL     1      -4.884  53.086  53.407  0.00  0.00    +0.000 C 
ATOM     16  C   UNL     1      -3.847  55.280  54.144  0.00  0.00    +0.000 C 
BRANCH   9  17
ATOM     17  C   UNL     1      -5.961  54.403  49.002  0.00  0.00    +0.000 C 
ATOM     18  O   UNL     1      -4.776  54.495  48.701  0.00  0.00    +0.000 OA
BRANCH  17  19
ATOM     19  O   UNL     1      -6.926  53.895  48.191  0.00  0.00    +0.000 OA
BRANCH  19  20
ATOM     20  C   UNL     1      -6.753  54.087  46.785  0.00  0.00    +0.000 C 
ATOM     21  C   UNL     1      -8.018  54.669  46.189  0.00  0.00    +0.000 C 
ENDBRANCH  19  20
ENDBRANCH  17  19
ENDBRANCH   9  17
ENDBRANCH   4   7
BRANCH   1  22
ATOM     22  S   UNL     1     -12.193  55.585  48.354  0.00  0.00    +0.000 S 
ATOM     23  O   UNL     1     -12.307  54.165  48.575  0.00  0.00    +0.000 OA
ATOM     24  O   UNL     1     -12.633  56.169  47.095  0.00  0.00    +0.000 OA
BRANCH  22  25
ATOM     25  C   UNL     1     -13.053  56.446  49.656  0.00  0.00    +0.000 A 
ATOM     26  C   UNL     1     -13.354  55.802  50.864  0.00  0.00    +0.000 A 
ATOM     27  C   UNL     1     -13.349  57.802  49.497  0.00  0.00    +0.000 A 
ATOM     28  C   UNL     1     -13.997  56.510  51.888  0.00  0.00    +0.000 A 
ATOM     29  C   UNL     1     -13.995  58.500  50.521  0.00  0.00    +0.000 A 
ATOM     30  C   UNL     1     -14.333  57.860  51.720  0.00  0.00    +0.000 A 
ATOM     31  C   UNL     1     -15.050  58.629  52.793  0.00  0.00    +0.000 C 
ENDBRANCH  22  25
ENDBRANCH   1  22
TORSDOF 6
ENDMDL
MODEL 2
REMARK VINA RESULT:      -7.4      2.272      7.646
REMARK  Name = 
REMARK  9 active torsions:
REMARK  status: ('A' for Active; 'I' for Inactive)
REMARK    1  A    between atoms: S_1  and  N_4
REMARK    2  A    between atoms: S_1  and  C_5
REMARK    3  A    between atoms: N_10  and  C_13
REMARK    4  A    between atoms: C_14  and  C_17
REMARK    5  A    between atoms: C_16  and  C_20
REMARK    6  A    between atoms: C_20  and  O_24
REMARK    7  A    between atoms: O_24  and  C_27
REMARK    8  A    between atoms: C_25  and  C_28
REMARK    9  A    between atoms: C_27  and  C_29
REMARK                            x       y       z     vdW  Elec       q    Type
REMARK                         _______ _______ _______ _____ _____    ______ ____
ROOT
ATOM      1  N   UNL     1      -9.298  53.441  47.771  0.00  0.00    +0.000 N 
ATOM      2  C   UNL     1     -10.033  54.480  48.338  0.00  0.00    +0.000 C 
ATOM      3  O   UNL     1      -9.635  55.637  48.315  0.00  0.00    +0.000 OA
ATOM      4  N   UNL     1     -11.171  54.065  49.008  0.00  0.00    +0.000 N 
ATOM      5  H   UNL     1      -9.665  52.530  47.829  0.00  0.00    +0.000 HD
ATOM      6  H   UNL     1     -11.446  53.120  49.014  0.00  0.00    +0.000 HD
ENDROOT
BRANCH   4   7
ATOM      7  C   UNL     1     -11.909  55.035  49.672  0.00  0.00    +0.000 A 
ATOM      8  S   UNL     1     -13.117  55.793  48.751  0.00  0.00    +0.000 S 
ATOM      9  C   UNL     1     -11.872  55.466  50.988  0.00  0.00    +0.000 A 
ATOM     10  C   UNL     1     -13.781  56.527  50.141  0.00  0.00    +0.000 A 
ATOM     11  C   UNL     1     -13.039  56.268  51.282  0.00  0.00    +0.000 A 
ATOM     12  C   UNL     1     -15.036  57.356  50.101  0.00  0.00    +0.000 C 
ATOM     13  C   UNL     1     -13.413  56.852  52.618  0.00  0.00    +0.000 C 
ATOM     14  C   UNL     1     -15.151  58.251  51.360  0.00  0.00    +0.000 C 
ATOM     15  C   UNL     1     -14.830  57.438  52.628  0.00  0.00    +0.000 C 
ATOM     16  C   UNL     1     -14.261  59.495  51.259  0.00  0.00    +0.000 C 
BRANCH   9  17
ATOM     17  C   UNL     1     -10.783  55.116  51.900  0.00  0.00    +0.000 C 
ATOM     18  O   UNL     1     -10.935  54.390  52.876  0.00  0.00    +0.000 OA
BRANCH  17  19
ATOM     19  O   UNL     1      -9.603  55.684  51.535  0.00  0.00    +0.000 OA
BRANCH  19  20
ATOM     20  C   UNL     1      -8.432  54.874  51.661  0.00  0.00    +0.000 C 
ATOM     21  C   UNL     1      -7.450  55.536  52.604  0.00  0.00    +0.000 C 
ENDBRANCH  19  20
ENDBRANCH  17  19
ENDBRANCH   9  17
ENDBRANCH   4   7
BRANCH   1  22
ATOM     22  S   UNL     1      -7.831  53.655  46.998  0.00  0.00    +0.000 S 
ATOM     23  O   UNL     1      -7.798  54.918  46.305  0.00  0.00    +0.000 OA
ATOM     24  O   UNL     1      -7.613  52.412  46.271  0.00  0.00    +0.000 OA
BRANCH  22  25
ATOM     25  C   UNL     1      -6.646  53.692  48.330  0.00  0.00    +0.000 A 
ATOM     26  C   UNL     1      -6.034  54.894  48.710  0.00  0.00    +0.000 A 
ATOM     27  C   UNL     1      -6.397  52.524  49.054  0.00  0.00    +0.000 A 
ATOM     28  C   UNL     1      -5.134  54.906  49.784  0.00  0.00    +0.000 A 
ATOM     29  C   UNL     1      -5.495  52.542  50.121  0.00  0.00    +0.000 A 
ATOM     30  C   UNL     1      -4.849  53.729  50.489  0.00  0.00    +0.000 A 
ATOM     31  C   UNL     1      -3.865  53.714  51.624  0.00  0.00    +0.000 C 
ENDBRANCH  22  25
ENDBRANCH   1  22
TORSDOF 6
ENDMDL
MODEL 3
REMARK VINA RESULT:      -7.2      2.105      3.280
REMARK  Name = 
REMARK  9 active torsions:
REMARK  status: ('A' for Active; 'I' for Inactive)
REMARK    1  A    between atoms: S_1  and  N_4
REMARK    2  A    between atoms: S_1  and  C_5
REMARK    3  A    between atoms: N_10  and  C_13
REMARK    4  A    between atoms: C_14  and  C_17
REMARK    5  A    between atoms: C_16  and  C_20
REMARK    6  A    between atoms: C_20  and  O_24
REMARK    7  A    between atoms: O_24  and  C_27
REMARK    8  A    between atoms: C_25  and  C_28
REMARK    9  A    between atoms: C_27  and  C_29
REMARK                            x       y       z     vdW  Elec       q    Type
REMARK                         _______ _______ _______ _____ _____    ______ ____
ROOT
ATOM      1  N   UNL     1     -11.216  56.781  49.638  0.00  0.00    +0.000 N 
ATOM      2  C   UNL     1     -10.208  55.840  49.832  0.00  0.00    +0.000 C 
ATOM      3  O   UNL     1     -10.443  54.639  49.839  0.00  0.00    +0.000 OA
ATOM      4  N   UNL     1      -8.970  56.389  50.118  0.00  0.00    +0.000 N 
ATOM      5  H   UNL     1     -10.967  57.734  49.652  0.00  0.00    +0.000 HD
ATOM      6  H   UNL     1      -8.830  57.363  50.117  0.00  0.00    +0.000 HD
ENDROOT
BRANCH   4   7
ATOM      7  C   UNL     1      -7.934  55.511  50.408  0.00  0.00    +0.000 A 
ATOM      8  S   UNL     1      -7.129  54.861  49.062  0.00  0.00    +0.000 S 
ATOM      9  C   UNL     1      -7.397  55.104  51.618  0.00  0.00    +0.000 A 
ATOM     10  C   UNL     1      -5.893  54.225  50.052  0.00  0.00    +0.000 A 
ATOM     11  C   UNL     1      -6.136  54.429  51.400  0.00  0.00    +0.000 A 
ATOM     12  C   UNL     1      -4.684  53.526  49.493  0.00  0.00    +0.000 C 
ATOM     13  C   UNL     1      -5.201  53.912  52.460  0.00  0.00    +0.000 C 
ATOM     14  C   UNL     1      -3.984  52.671  50.579  0.00  0.00    +0.000 C 
ATOM     15  C   UNL     1      -3.848  53.473  51.887  0.00  0.00    +0.000 C 
ATOM     16  C   UNL     1      -4.711  51.342  50.815  0.00  0.00    +0.000 C 
BRANCH   9  17
ATOM     17  C   UNL     1      -8.057  55.360  52.898  0.00  0.00    +0.000 C 
ATOM     18  O   UNL     1      -7.501  55.917  53.838  0.00  0.00    +0.000 OA
BRANCH  17  19
ATOM     19  O   UNL     1      -9.341  54.914  52.914  0.00  0.00    +0.000 OA
BRANCH  19  20
ATOM     20  C   UNL     1      -9.540  53.536  53.238  0.00  0.00    +0.000 C 
ATOM     21  C   UNL     1     -10.904  53.089  52.756  0.00  0.00    +0.000 C 
ENDBRANCH  19  20
ENDBRANCH  17  19
ENDBRANCH   9  17
ENDBRANCH   4   7
BRANCH   1  22
ATOM     22  S   UNL     1     -12.820  56.387  49.383  0.00  0.00    +0.000 S 
ATOM     23  O   UNL     1     -13.041  54.979  49.598  0.00  0.00    +0.000 OA
ATOM     24  O   UNL     1     -13.150  56.994  48.101  0.00  0.00    +0.000 OA
BRANCH  22  25
ATOM     25  C   UNL     1     -13.693  57.310  50.634  0.00  0.00    +0.000 A 
ATOM     26  C   UNL     1     -13.698  56.879  51.968  0.00  0.00    +0.000 A 
ATOM     27  C   UNL     1     -14.300  58.519  50.291  0.00  0.00    +0.000 A 
ATOM     28  C   UNL     1     -14.358  57.640  52.942  0.00  0.00    +0.000 A 
ATOM     29  C   UNL     1     -14.962  59.271  51.266  0.00  0.00    +0.000 A 
ATOM     30  C   UNL     1     -15.005  58.835  52.596  0.00  0.00    +0.000 A 
ATOM     31  C   UNL     1     -15.745  59.649  53.618  0.00  0.00    +0.000 C 
ENDBRANCH  22  25
ENDBRANCH   1  22
TORSDOF 6
ENDMDL
MODEL 4
REMARK VINA RESULT:      -7.2      3.591      7.484
REMARK  Name = 
REMARK  9 active torsions:
REMARK  status: ('A' for Active; 'I' for Inactive)
REMARK    1  A    between atoms: S_1  and  N_4
REMARK    2  A    between atoms: S_1  and  C_5
REMARK    3  A    between atoms: N_10  and  C_13
REMARK    4  A    between atoms: C_14  and  C_17
REMARK    5  A    between atoms: C_16  and  C_20
REMARK    6  A    between atoms: C_20  and  O_24
REMARK    7  A    between atoms: O_24  and  C_27
REMARK    8  A    between atoms: C_25  and  C_28
REMARK    9  A    between atoms: C_27  and  C_29
REMARK                            x       y       z     vdW  Elec       q    Type
REMARK                         _______ _______ _______ _____ _____    ______ ____
ROOT
ATOM      1  N   UNL     1     -11.200  54.299  45.580  0.00  0.00    +0.000 N 
ATOM      2  C   UNL     1     -11.738  54.642  46.818  0.00  0.00    +0.000 C 
ATOM      3  O   UNL     1     -12.186  53.796  47.581  0.00  0.00    +0.000 OA
ATOM      4  N   UNL     1     -11.815  56.005  47.042  0.00  0.00    +0.000 N 
ATOM      5  H   UNL     1     -10.864  55.025  45.005  0.00  0.00    +0.000 HD
ATOM      6  H   UNL     1     -11.455  56.651  46.393  0.00  0.00    +0.000 HD
ENDROOT
BRANCH   4   7
ATOM      7  C   UNL     1     -12.419  56.426  48.219  0.00  0.00    +0.000 A 
ATOM      8  S   UNL     1     -13.925  57.189  48.036  0.00  0.00    +0.000 S 
ATOM      9  C   UNL     1     -12.033  56.285  49.542  0.00  0.00    +0.000 A 
ATOM     10  C   UNL     1     -14.213  57.125  49.717  0.00  0.00    +0.000 A 
ATOM     11  C   UNL     1     -13.137  56.607  50.419  0.00  0.00    +0.000 A 
ATOM     12  C   UNL     1     -15.504  57.585  50.338  0.00  0.00    +0.000 C 
ATOM     13  C   UNL     1     -13.150  56.499  51.920  0.00  0.00    +0.000 C 
ATOM     14  C   UNL     1     -15.330  57.843  51.855  0.00  0.00    +0.000 C 
ATOM     15  C   UNL     1     -14.554  56.686  52.511  0.00  0.00    +0.000 C 
ATOM     16  C   UNL     1     -14.654  59.191  52.130  0.00  0.00    +0.000 C 
BRANCH   9  17
ATOM     17  C   UNL     1     -10.688  55.860  49.928  0.00  0.00    +0.000 C 
ATOM     18  O   UNL     1     -10.476  54.956  50.728  0.00  0.00    +0.000 OA
BRANCH  17  19
ATOM     19  O   UNL     1      -9.720  56.577  49.298  0.00  0.00    +0.000 OA
BRANCH  19  20
ATOM     20  C   UNL     1      -8.425  55.977  49.214  0.00  0.00    +0.000 C 
ATOM     21  C   UNL     1      -8.286  55.243  47.896  0.00  0.00    +0.000 C 
ENDBRANCH  19  20
ENDBRANCH  17  19
ENDBRANCH   9  17
ENDBRANCH   4   7
BRANCH   1  22
ATOM     22  S   UNL     1     -11.091  52.730  45.015  0.00  0.00    +0.000 S 
ATOM     23  O   UNL     1     -10.698  52.711  43.628  0.00  0.00    +0.000 OA
ATOM     24  O   UNL     1     -12.335  52.099  45.434  0.00  0.00    +0.000 OA
BRANCH  22  25
ATOM     25  C   UNL     1      -9.788  52.011  45.997  0.00  0.00    +0.000 A 
ATOM     26  C   UNL     1     -10.085  51.132  47.048  0.00  0.00    +0.000 A 
ATOM     27  C   UNL     1      -8.458  52.262  45.654  0.00  0.00    +0.000 A 
ATOM     28  C   UNL     1      -9.043  50.550  47.782  0.00  0.00    +0.000 A 
ATOM     29  C   UNL     1      -7.424  51.681  46.394  0.00  0.00    +0.000 A 
ATOM     30  C   UNL     1      -7.706  50.829  47.469  0.00  0.00    +0.000 A 
ATOM     31  C   UNL     1      -6.575  50.239  48.262  0.00  0.00    +0.000 C 
ENDBRANCH  22  25
ENDBRANCH   1  22
TORSDOF 6
ENDMDL
MODEL 5
REMARK VINA RESULT:      -7.2      4.160      7.677
REMARK  Name = 
REMARK  9 active torsions:
REMARK  status: ('A' for Active; 'I' for Inactive)
REMARK    1  A    between atoms: S_1  and  N_4
REMARK    2  A    between atoms: S_1  and  C_5
REMARK    3  A    between atoms: N_10  and  C_13
REMARK    4  A    between atoms: C_14  and  C_17
REMARK    5  A    between atoms: C_16  and  C_20
REMARK    6  A    between atoms: C_20  and  O_24
REMARK    7  A    between atoms: O_24  and  C_27
REMARK    8  A    between atoms: C_25  and  C_28
REMARK    9  A    between atoms: C_27  and  C_29
REMARK                            x       y       z     vdW  Elec       q    Type
REMARK                         _______ _______ _______ _____ _____    ______ ____
ROOT
ATOM      1  N   UNL     1      -9.669  51.755  48.736  0.00  0.00    +0.000 N 
ATOM      2  C   UNL     1     -10.736  52.613  48.991  0.00  0.00    +0.000 C 
ATOM      3  O   UNL     1     -11.841  52.428  48.500  0.00  0.00    +0.000 OA
ATOM      4  N   UNL     1     -10.398  53.724  49.744  0.00  0.00    +0.000 N 
ATOM      5  H   UNL     1      -8.801  51.960  49.152  0.00  0.00    +0.000 HD
ATOM      6  H   UNL     1      -9.491  53.840  50.107  0.00  0.00    +0.000 HD
ENDROOT
BRANCH   4   7
ATOM      7  C   UNL     1     -11.390  54.669  49.967  0.00  0.00    +0.000 A 
ATOM      8  S   UNL     1     -12.091  54.643  51.514  0.00  0.00    +0.000 S 
ATOM      9  C   UNL     1     -11.883  55.681  49.160  0.00  0.00    +0.000 A 
ATOM     10  C   UNL     1     -12.882  56.128  51.231  0.00  0.00    +0.000 A 
ATOM     11  C   UNL     1     -12.685  56.595  49.942  0.00  0.00    +0.000 A 
ATOM     12  C   UNL     1     -13.694  56.829  52.285  0.00  0.00    +0.000 C 
ATOM     13  C   UNL     1     -13.327  57.867  49.455  0.00  0.00    +0.000 C 
ATOM     14  C   UNL     1     -14.646  57.873  51.650  0.00  0.00    +0.000 C 
ATOM     15  C   UNL     1     -13.897  58.714  50.599  0.00  0.00    +0.000 C 
ATOM     16  C   UNL     1     -15.893  57.217  51.049  0.00  0.00    +0.000 C 
BRANCH   9  17
ATOM     17  C   UNL     1     -11.588  55.759  47.729  0.00  0.00    +0.000 C 
ATOM     18  O   UNL     1     -12.458  55.854  46.871  0.00  0.00    +0.000 OA
BRANCH  17  19
ATOM     19  O   UNL     1     -10.253  55.716  47.474  0.00  0.00    +0.000 OA
BRANCH  19  20
ATOM     20  C   UNL     1      -9.838  54.947  46.343  0.00  0.00    +0.000 C 
ATOM     21  C   UNL     1      -8.326  54.880  46.296  0.00  0.00    +0.000 C 
ENDBRANCH  19  20
ENDBRANCH  17  19
ENDBRANCH   9  17
ENDBRANCH   4   7
BRANCH   1  22
ATOM     22  S   UNL     1      -9.780  50.397  47.766  0.00  0.00    +0.000 S 
ATOM     23  O   UNL     1     -11.070  49.770  47.910  0.00  0.00    +0.000 OA
ATOM     24  O   UNL     1      -8.563  49.646  48.043  0.00  0.00    +0.000 OA
BRANCH  22  25
ATOM     25  C   UNL     1      -9.628  51.041  46.110  0.00  0.00    +0.000 A 
ATOM     26  C   UNL     1     -10.762  51.448  45.393  0.00  0.00    +0.000 A 
ATOM     27  C   UNL     1      -8.357  51.219  45.562  0.00  0.00    +0.000 A 
ATOM     28  C   UNL     1     -10.616  51.985  44.108  0.00  0.00    +0.000 A 
ATOM     29  C   UNL     1      -8.218  51.752  44.277  0.00  0.00    +0.000 A 
ATOM     30  C   UNL     1      -9.344  52.130  43.535  0.00  0.00    +0.000 A 
ATOM     31  C   UNL     1      -9.168  52.676  42.147  0.00  0.00    +0.000 C 
ENDBRANCH  22  25
ENDBRANCH   1  22
TORSDOF 6
ENDMDL
MODEL 6
REMARK VINA RESULT:      -6.9      2.719      3.919
REMARK  Name = 
REMARK  9 active torsions:
REMARK  status: ('A' for Active; 'I' for Inactive)
REMARK    1  A    between atoms: S_1  and  N_4
REMARK    2  A    between atoms: S_1  and  C_5
REMARK    3  A    between atoms: N_10  and  C_13
REMARK    4  A    between atoms: C_14  and  C_17
REMARK    5  A    between atoms: C_16  and  C_20
REMARK    6  A    between atoms: C_20  and  O_24
REMARK    7  A    between atoms: O_24  and  C_27
REMARK    8  A    between atoms: C_25  and  C_28
REMARK    9  A    between atoms: C_27  and  C_29
REMARK                            x       y       z     vdW  Elec       q    Type
REMARK                         _______ _______ _______ _____ _____    ______ ____
ROOT
ATOM      1  N   UNL     1     -12.244  55.215  51.196  0.00  0.00    +0.000 N 
ATOM      2  C   UNL     1     -10.863  55.117  51.351  0.00  0.00    +0.000 C 
ATOM      3  O   UNL     1     -10.089  55.634  50.557  0.00  0.00    +0.000 OA
ATOM      4  N   UNL     1     -10.469  54.305  52.401  0.00  0.00    +0.000 N 
ATOM      5  H   UNL     1     -12.817  54.770  51.862  0.00  0.00    +0.000 HD
ATOM      6  H   UNL     1     -11.128  53.897  53.007  0.00  0.00    +0.000 HD
ENDROOT
BRANCH   4   7
ATOM      7  C   UNL     1      -9.108  54.090  52.565  0.00  0.00    +0.000 A 
ATOM      8  S   UNL     1      -8.345  55.080  53.715  0.00  0.00    +0.000 S 
ATOM      9  C   UNL     1      -8.256  53.163  51.989  0.00  0.00    +0.000 A 
ATOM     10  C   UNL     1      -6.926  54.134  53.655  0.00  0.00    +0.000 A 
ATOM     11  C   UNL     1      -7.001  53.128  52.706  0.00  0.00    +0.000 A 
ATOM     12  C   UNL     1      -5.742  54.387  54.548  0.00  0.00    +0.000 C 
ATOM     13  C   UNL     1      -5.846  52.198  52.447  0.00  0.00    +0.000 C 
ATOM     14  C   UNL     1      -4.468  53.710  53.987  0.00  0.00    +0.000 C 
ATOM     15  C   UNL     1      -4.776  52.268  53.544  0.00  0.00    +0.000 C 
ATOM     16  C   UNL     1      -3.847  54.521  52.844  0.00  0.00    +0.000 C 
BRANCH   9  17
ATOM     17  C   UNL     1      -8.637  52.361  50.826  0.00  0.00    +0.000 C 
ATOM     18  O   UNL     1      -9.693  51.742  50.759  0.00  0.00    +0.000 OA
BRANCH  17  19
ATOM     19  O   UNL     1      -7.694  52.389  49.848  0.00  0.00    +0.000 OA
BRANCH  19  20
ATOM     20  C   UNL     1      -7.580  53.601  49.098  0.00  0.00    +0.000 C 
ATOM     21  C   UNL     1      -8.253  53.434  47.751  0.00  0.00    +0.000 C 
ENDBRANCH  19  20
ENDBRANCH  17  19
ENDBRANCH   9  17
ENDBRANCH   4   7
BRANCH   1  22
ATOM     22  S   UNL     1     -12.983  56.044  49.947  0.00  0.00    +0.000 S 
ATOM     23  O   UNL     1     -12.479  57.392  49.859  0.00  0.00    +0.000 OA
ATOM     24  O   UNL     1     -14.407  55.804  50.135  0.00  0.00    +0.000 OA
BRANCH  22  25
ATOM     25  C   UNL     1     -12.493  55.145  48.487  0.00  0.00    +0.000 A 
ATOM     26  C   UNL     1     -12.129  55.825  47.316  0.00  0.00    +0.000 A 
ATOM     27  C   UNL     1     -12.389  53.754  48.546  0.00  0.00    +0.000 A 
ATOM     28  C   UNL     1     -11.712  55.099  46.193  0.00  0.00    +0.000 A 
ATOM     29  C   UNL     1     -11.976  53.036  47.420  0.00  0.00    +0.000 A 
ATOM     30  C   UNL     1     -11.643  53.699  46.232  0.00  0.00    +0.000 A 
ATOM     31  C   UNL     1     -11.227  52.901  45.030  0.00  0.00    +0.000 C 
ENDBRANCH  22  25
ENDBRANCH   1  22
TORSDOF 6
ENDMDL
MODEL 7
REMARK VINA RESULT:      -6.8      1.904      7.401
REMARK  Name = 
REMARK  9 active torsions:
REMARK  status: ('A' for Active; 'I' for Inactive)
REMARK    1  A    between atoms: S_1  and  N_4
REMARK    2  A    between atoms: S_1  and  C_5
REMARK    3  A    between atoms: N_10  and  C_13
REMARK    4  A    between atoms: C_14  and  C_17
REMARK    5  A    between atoms: C_16  and  C_20
REMARK    6  A    between atoms: C_20  and  O_24
REMARK    7  A    between atoms: O_24  and  C_27
REMARK    8  A    between atoms: C_25  and  C_28
REMARK    9  A    between atoms: C_27  and  C_29
REMARK                            x       y       z     vdW  Elec       q    Type
REMARK                         _______ _______ _______ _____ _____    ______ ____
ROOT
ATOM      1  N   UNL     1      -8.677  53.452  48.777  0.00  0.00    +0.000 N 
ATOM      2  C   UNL     1      -9.544  54.425  49.266  0.00  0.00    +0.000 C 
ATOM      3  O   UNL     1      -9.134  55.415  49.856  0.00  0.00    +0.000 OA
ATOM      4  N   UNL     1     -10.885  54.112  49.118  0.00  0.00    +0.000 N 
ATOM      5  H   UNL     1      -9.066  52.673  48.319  0.00  0.00    +0.000 HD
ATOM      6  H   UNL     1     -11.170  53.296  48.649  0.00  0.00    +0.000 HD
ENDROOT
BRANCH   4   7
ATOM      7  C   UNL     1     -11.810  54.995  49.658  0.00  0.00    +0.000 A 
ATOM      8  S   UNL     1     -12.071  54.850  51.329  0.00  0.00    +0.000 S 
ATOM      9  C   UNL     1     -12.532  56.025  49.078  0.00  0.00    +0.000 A 
ATOM     10  C   UNL     1     -12.954  56.308  51.365  0.00  0.00    +0.000 A 
ATOM     11  C   UNL     1     -13.124  56.855  50.104  0.00  0.00    +0.000 A 
ATOM     12  C   UNL     1     -13.477  56.911  52.640  0.00  0.00    +0.000 C 
ATOM     13  C   UNL     1     -13.912  58.120  49.889  0.00  0.00    +0.000 C 
ATOM     14  C   UNL     1     -14.596  57.941  52.351  0.00  0.00    +0.000 C 
ATOM     15  C   UNL     1     -14.182  58.874  51.197  0.00  0.00    +0.000 C 
ATOM     16  C   UNL     1     -15.938  57.260  52.059  0.00  0.00    +0.000 C 
BRANCH   9  17
ATOM     17  C   UNL     1     -12.633  56.196  47.629  0.00  0.00    +0.000 C 
ATOM     18  O   UNL     1     -13.612  56.689  47.080  0.00  0.00    +0.000 OA
BRANCH  17  19
ATOM     19  O   UNL     1     -11.526  55.750  46.979  0.00  0.00    +0.000 OA
BRANCH  19  20
ATOM     20  C   UNL     1     -11.738  54.855  45.884  0.00  0.00    +0.000 C 
ATOM     21  C   UNL     1     -10.469  54.078  45.605  0.00  0.00    +0.000 C 
ENDBRANCH  19  20
ENDBRANCH  17  19
ENDBRANCH   9  17
ENDBRANCH   4   7
BRANCH   1  22
ATOM     22  S   UNL     1      -7.013  53.531  48.924  0.00  0.00    +0.000 S 
ATOM     23  O   UNL     1      -6.507  54.752  48.348  0.00  0.00    +0.000 OA
ATOM     24  O   UNL     1      -6.538  52.241  48.443  0.00  0.00    +0.000 OA
BRANCH  22  25
ATOM     25  C   UNL     1      -6.739  53.563  50.685  0.00  0.00    +0.000 A 
ATOM     26  C   UNL     1      -7.418  52.675  51.531  0.00  0.00    +0.000 A 
ATOM     27  C   UNL     1      -5.773  54.423  51.209  0.00  0.00    +0.000 A 
ATOM     28  C   UNL     1      -7.159  52.692  52.908  0.00  0.00    +0.000 A 
ATOM     29  C   UNL     1      -5.523  54.439  52.584  0.00  0.00    +0.000 A 
ATOM     30  C   UNL     1      -6.219  53.582  53.446  0.00  0.00    +0.000 A 
ATOM     31  C   UNL     1      -5.948  53.638  54.923  0.00  0.00    +0.000 C 
ENDBRANCH  22  25
ENDBRANCH   1  22
TORSDOF 6
ENDMDL
MODEL 8
REMARK VINA RESULT:      -6.8      3.918      6.434
REMARK  Name = 
REMARK  9 active torsions:
REMARK  status: ('A' for Active; 'I' for Inactive)
REMARK    1  A    between atoms: S_1  and  N_4
REMARK    2  A    between atoms: S_1  and  C_5
REMARK    3  A    between atoms: N_10  and  C_13
REMARK    4  A    between atoms: C_14  and  C_17
REMARK    5  A    between atoms: C_16  and  C_20
REMARK    6  A    between atoms: C_20  and  O_24
REMARK    7  A    between atoms: O_24  and  C_27
REMARK    8  A    between atoms: C_25  and  C_28
REMARK    9  A    between atoms: C_27  and  C_29
REMARK                            x       y       z     vdW  Elec       q    Type
REMARK                         _______ _______ _______ _____ _____    ______ ____
ROOT
ATOM      1  N   UNL     1     -12.139  55.145  48.996  0.00  0.00    +0.000 N 
ATOM      2  C   UNL     1     -11.510  54.239  48.146  0.00  0.00    +0.000 C 
ATOM      3  O   UNL     1     -10.825  53.321  48.577  0.00  0.00    +0.000 OA
ATOM      4  N   UNL     1     -11.643  54.540  46.801  0.00  0.00    +0.000 N 
ATOM      5  H   UNL     1     -12.670  55.868  48.590  0.00  0.00    +0.000 HD
ATOM      6  H   UNL     1     -12.193  55.299  46.499  0.00  0.00    +0.000 HD
ENDROOT
BRANCH   4   7
ATOM      7  C   UNL     1     -10.972  53.731  45.896  0.00  0.00    +0.000 A 
ATOM      8  S   UNL     1     -11.911  52.528  45.152  0.00  0.00    +0.000 S 
ATOM      9  C   UNL     1      -9.663  53.761  45.443  0.00  0.00    +0.000 A 
ATOM     10  C   UNL     1     -10.670  52.186  44.033  0.00  0.00    +0.000 A 
ATOM     11  C   UNL     1      -9.520  52.918  44.277  0.00  0.00    +0.000 A 
ATOM     12  C   UNL     1     -10.837  51.195  42.913  0.00  0.00    +0.000 C 
ATOM     13  C   UNL     1      -8.280  52.745  43.442  0.00  0.00    +0.000 C 
ATOM     14  C   UNL     1      -9.462  50.750  42.356  0.00  0.00    +0.000 C 
ATOM     15  C   UNL     1      -8.547  51.971  42.145  0.00  0.00    +0.000 C 
ATOM     16  C   UNL     1      -8.793  49.703  43.254  0.00  0.00    +0.000 C 
BRANCH   9  17
ATOM     17  C   UNL     1      -8.624  54.561  46.093  0.00  0.00    +0.000 C 
ATOM     18  O   UNL     1      -8.334  55.698  45.736  0.00  0.00    +0.000 OA
BRANCH  17  19
ATOM     19  O   UNL     1      -8.034  53.900  47.123  0.00  0.00    +0.000 OA
BRANCH  19  20
ATOM     20  C   UNL     1      -6.756  53.313  46.864  0.00  0.00    +0.000 C 
ATOM     21  C   UNL     1      -6.865  51.804  46.922  0.00  0.00    +0.000 C 
ENDBRANCH  19  20
ENDBRANCH  17  19
ENDBRANCH   9  17
ENDBRANCH   4   7
BRANCH   1  22
ATOM     22  S   UNL     1     -12.046  55.074  50.664  0.00  0.00    +0.000 S 
ATOM     23  O   UNL     1     -10.702  55.342  51.113  0.00  0.00    +0.000 OA
ATOM     24  O   UNL     1     -12.701  53.822  51.017  0.00  0.00    +0.000 OA
BRANCH  22  25
ATOM     25  C   UNL     1     -13.115  56.392  51.209  0.00  0.00    +0.000 A 
ATOM     26  C   UNL     1     -13.935  57.073  50.297  0.00  0.00    +0.000 A 
ATOM     27  C   UNL     1     -13.196  56.685  52.571  0.00  0.00    +0.000 A 
ATOM     28  C   UNL     1     -14.794  58.080  50.754  0.00  0.00    +0.000 A 
ATOM     29  C   UNL     1     -14.052  57.695  53.020  0.00  0.00    +0.000 A 
ATOM     30  C   UNL     1     -14.851  58.407  52.116  0.00  0.00    +0.000 A 
ATOM     31  C   UNL     1     -15.743  59.504  52.623  0.00  0.00    +0.000 C 
ENDBRANCH  22  25
ENDBRANCH   1  22
TORSDOF 6
ENDMDL
MODEL 9
REMARK VINA RESULT:      -6.7      2.486      7.791
REMARK  Name = 
REMARK  9 active torsions:
REMARK  status: ('A' for Active; 'I' for Inactive)
REMARK    1  A    between atoms: S_1  and  N_4
REMARK    2  A    between atoms: S_1  and  C_5
REMARK    3  A    between atoms: N_10  and  C_13
REMARK    4  A    between atoms: C_14  and  C_17
REMARK    5  A    between atoms: C_16  and  C_20
REMARK    6  A    between atoms: C_20  and  O_24
REMARK    7  A    between atoms: O_24  and  C_27
REMARK    8  A    between atoms: C_25  and  C_28
REMARK    9  A    between atoms: C_27  and  C_29
REMARK                            x       y       z     vdW  Elec       q    Type
REMARK                         _______ _______ _______ _____ _____    ______ ____
ROOT
ATOM      1  N   UNL     1      -8.760  52.508  48.820  0.00  0.00    +0.000 N 
ATOM      2  C   UNL     1      -9.589  53.601  49.060  0.00  0.00    +0.000 C 
ATOM      3  O   UNL     1      -9.293  54.728  48.687  0.00  0.00    +0.000 OA
ATOM      4  N   UNL     1     -10.697  53.308  49.837  0.00  0.00    +0.000 N 
ATOM      5  H   UNL     1      -9.047  51.627  49.153  0.00  0.00    +0.000 HD
ATOM      6  H   UNL     1     -10.889  52.388  50.129  0.00  0.00    +0.000 HD
ENDROOT
BRANCH   4   7
ATOM      7  C   UNL     1     -11.526  54.364  50.190  0.00  0.00    +0.000 A 
ATOM      8  S   UNL     1     -12.717  54.771  49.051  0.00  0.00    +0.000 S 
ATOM      9  C   UNL     1     -11.590  55.125  51.346  0.00  0.00    +0.000 A 
ATOM     10  C   UNL     1     -13.501  55.794  50.169  0.00  0.00    +0.000 A 
ATOM     11  C   UNL     1     -12.815  55.894  51.368  0.00  0.00    +0.000 A 
ATOM     12  C   UNL     1     -14.796  56.496  49.859  0.00  0.00    +0.000 C 
ATOM     13  C   UNL     1     -13.298  56.778  52.486  0.00  0.00    +0.000 C 
ATOM     14  C   UNL     1     -15.034  57.678  50.831  0.00  0.00    +0.000 C 
ATOM     15  C   UNL     1     -14.744  57.247  52.281  0.00  0.00    +0.000 C 
ATOM     16  C   UNL     1     -14.210  58.911  50.444  0.00  0.00    +0.000 C 
BRANCH   9  17
ATOM     17  C   UNL     1     -10.539  55.100  52.363  0.00  0.00    +0.000 C 
ATOM     18  O   UNL     1     -10.715  54.669  53.497  0.00  0.00    +0.000 OA
BRANCH  17  19
ATOM     19  O   UNL     1      -9.364  55.604  51.902  0.00  0.00    +0.000 OA
BRANCH  19  20
ATOM     20  C   UNL     1      -8.174  54.896  52.261  0.00  0.00    +0.000 C 
ATOM     21  C   UNL     1      -7.013  55.390  51.423  0.00  0.00    +0.000 C 
ENDBRANCH  19  20
ENDBRANCH  17  19
ENDBRANCH   9  17
ENDBRANCH   4   7
BRANCH   1  22
ATOM     22  S   UNL     1      -7.306  52.607  48.000  0.00  0.00    +0.000 S 
ATOM     23  O   UNL     1      -6.488  51.450  48.269  0.00  0.00    +0.000 OA
ATOM     24  O   UNL     1      -6.807  53.943  48.293  0.00  0.00    +0.000 OA
BRANCH  22  25
ATOM     25  C   UNL     1      -7.782  52.595  46.282  0.00  0.00    +0.000 A 
ATOM     26  C   UNL     1      -7.990  51.385  45.606  0.00  0.00    +0.000 A 
ATOM     27  C   UNL     1      -8.032  53.806  45.635  0.00  0.00    +0.000 A 
ATOM     28  C   UNL     1      -8.400  51.400  44.266  0.00  0.00    +0.000 A 
ATOM     29  C   UNL     1      -8.436  53.814  44.297  0.00  0.00    +0.000 A 
ATOM     30  C   UNL     1      -8.614  52.614  43.598  0.00  0.00    +0.000 A 
ATOM     31  C   UNL     1      -9.025  52.652  42.154  0.00  0.00    +0.000 C 
ENDBRANCH  22  25
ENDBRANCH   1  22
TORSDOF 6
ENDMDL
