MODEL 1
REMARK VINA RESULT:      -7.6      0.000      0.000
REMARK  Name = 
REMARK  10 active torsions:
REMARK  status: ('A' for Active; 'I' for Inactive)
REMARK    1  A    between atoms: S_1  and  N_4
REMARK    2  A    between atoms: S_1  and  C_5
REMARK    3  A    between atoms: N_10  and  C_13
REMARK    4  A    between atoms: C_14  and  C_17
REMARK    5  A    between atoms: C_16  and  C_20
REMARK    6  A    between atoms: C_20  and  O_24
REMARK    7  A    between atoms: O_24  and  C_27
REMARK    8  A    between atoms: C_25  and  C_28
REMARK    9  A    between atoms: C_25  and  C_29
REMARK   10  A    between atoms: C_27  and  C_30
REMARK                            x       y       z     vdW  Elec       q    Type
REMARK                         _______ _______ _______ _____ _____    ______ ____
ROOT
ATOM      1  N   UNL     1      -8.007  53.249  49.600  0.00  0.00    +0.000 N 
ATOM      2  C   UNL     1      -9.135  54.089  49.728  0.00  0.00    +0.000 C 
ATOM      3  O   UNL     1      -9.168  55.176  49.140  0.00  0.00    +0.000 OA
ATOM      4  N   UNL     1     -10.121  53.694  50.589  0.00  0.00    +0.000 N 
ATOM      5  H   UNL     1      -7.978  52.408  50.112  0.00  0.00    +0.000 HD
ATOM      6  H   UNL     1     -10.078  52.821  51.040  0.00  0.00    +0.000 HD
ENDROOT
BRANCH   4   7
ATOM      7  C   UNL     1     -11.197  54.569  50.810  0.00  0.00    +0.000 A 
ATOM      8  S   UNL     1     -11.352  55.274  52.359  0.00  0.00    +0.000 S 
ATOM      9  C   UNL     1     -12.199  54.977  49.951  0.00  0.00    +0.000 A 
ATOM     10  C   UNL     1     -12.628  56.305  51.845  0.00  0.00    +0.000 A 
ATOM     11  C   UNL     1     -12.959  56.065  50.520  0.00  0.00    +0.000 A 
ATOM     12  C   UNL     1     -13.323  57.337  52.729  0.00  0.00    +0.000 C 
ATOM     13  C   UNL     1     -14.074  56.803  49.839  0.00  0.00    +0.000 C 
ATOM     14  C   UNL     1     -14.704  57.776  52.117  0.00  0.00    +0.000 C 
ATOM     15  C   UNL     1     -14.524  58.039  50.605  0.00  0.00    +0.000 C 
ATOM     16  C   UNL     1     -15.237  59.090  52.727  0.00  0.00    +0.000 C 
ATOM     17  C   UNL     1     -15.769  56.688  52.370  0.00  0.00    +0.000 C 
BRANCH   9  18
ATOM     18  C   UNL     1     -12.462  54.348  48.664  0.00  0.00    +0.000 C 
ATOM     19  O   UNL     1     -12.529  53.122  48.508  0.00  0.00    +0.000 OA
BRANCH  18  20
ATOM     20  O   UNL     1     -12.631  55.261  47.679  0.00  0.00    +0.000 OA
BRANCH  20  21
ATOM     21  C   UNL     1     -11.533  55.461  46.792  0.00  0.00    +0.000 C 
ATOM     22  C   UNL     1     -11.612  54.480  45.651  0.00  0.00    +0.000 C 
ENDBRANCH  20  21
ENDBRANCH  18  20
ENDBRANCH   9  18
ENDBRANCH   4   7
BRANCH   1  23
ATOM     23  S   UNL     1      -6.700  53.642  48.589  0.00  0.00    +0.000 S 
ATOM     24  O   UNL     1      -5.632  52.696  48.830  0.00  0.00    +0.000 OA
ATOM     25  O   UNL     1      -6.451  55.060  48.738  0.00  0.00    +0.000 OA
BRANCH  23  26
ATOM     26  C   UNL     1      -7.295  53.386  46.915  0.00  0.00    +0.000 A 
ATOM     27  C   UNL     1      -7.641  52.126  46.423  0.00  0.00    +0.000 A 
ATOM     28  C   UNL     1      -7.515  54.522  46.123  0.00  0.00    +0.000 A 
ATOM     29  C   UNL     1      -8.139  52.007  45.113  0.00  0.00    +0.000 A 
ATOM     30  C   UNL     1      -8.003  54.400  44.823  0.00  0.00    +0.000 A 
ATOM     31  C   UNL     1      -8.303  53.138  44.301  0.00  0.00    +0.000 A 
ATOM     32  C   UNL     1      -8.793  53.016  42.883  0.00  0.00    +0.000 C 
ENDBRANCH  23  26
ENDBRANCH   1  23
TORSDOF 6
ENDMDL
MODEL 2
REMARK VINA RESULT:      -7.4      2.506      4.016
REMARK  Name = 
REMARK  10 active torsions:
REMARK  status: ('A' for Active; 'I' for Inactive)
REMARK    1  A    between atoms: S_1  and  N_4
REMARK    2  A    between atoms: S_1  and  C_5
REMARK    3  A    between atoms: N_10  and  C_13
REMARK    4  A    between atoms: C_14  and  C_17
REMARK    5  A    between atoms: C_16  and  C_20
REMARK    6  A    between atoms: C_20  and  O_24
REMARK    7  A    between atoms: O_24  and  C_27
REMARK    8  A    between atoms: C_25  and  C_28
REMARK    9  A    between atoms: C_25  and  C_29
REMARK   10  A    between atoms: C_27  and  C_30
REMARK                            x       y       z     vdW  Elec       q    Type
REMARK                         _______ _______ _______ _____ _____    ______ ____
ROOT
ATOM      1  N   UNL     1      -8.228  53.267  49.076  0.00  0.00    +0.000 N 
ATOM      2  C   UNL     1      -9.238  54.219  49.334  0.00  0.00    +0.000 C 
ATOM      3  O   UNL     1      -8.967  55.426  49.329  0.00  0.00    +0.000 OA
ATOM      4  N   UNL     1     -10.475  53.750  49.675  0.00  0.00    +0.000 N 
ATOM      5  H   UNL     1      -8.451  52.309  49.130  0.00  0.00    +0.000 HD
ATOM      6  H   UNL     1     -10.671  52.786  49.664  0.00  0.00    +0.000 HD
ENDROOT
BRANCH   4   7
ATOM      7  C   UNL     1     -11.460  54.682  50.040  0.00  0.00    +0.000 A 
ATOM      8  S   UNL     1     -11.807  54.873  51.702  0.00  0.00    +0.000 S 
ATOM      9  C   UNL     1     -12.234  55.510  49.249  0.00  0.00    +0.000 A 
ATOM     10  C   UNL     1     -12.836  56.220  51.410  0.00  0.00    +0.000 A 
ATOM     11  C   UNL     1     -12.948  56.475  50.052  0.00  0.00    +0.000 A 
ATOM     12  C   UNL     1     -13.550  57.021  52.495  0.00  0.00    +0.000 C 
ATOM     13  C   UNL     1     -13.824  57.573  49.525  0.00  0.00    +0.000 C 
ATOM     14  C   UNL     1     -14.734  57.865  51.896  0.00  0.00    +0.000 C 
ATOM     15  C   UNL     1     -14.253  58.560  50.602  0.00  0.00    +0.000 C 
ATOM     16  C   UNL     1     -15.206  58.988  52.843  0.00  0.00    +0.000 C 
ATOM     17  C   UNL     1     -15.951  56.956  51.619  0.00  0.00    +0.000 C 
BRANCH   9  18
ATOM     18  C   UNL     1     -12.334  55.379  47.802  0.00  0.00    +0.000 C 
ATOM     19  O   UNL     1     -12.626  56.319  47.052  0.00  0.00    +0.000 OA
BRANCH  18  20
ATOM     20  O   UNL     1     -12.062  54.119  47.389  0.00  0.00    +0.000 OA
BRANCH  20  21
ATOM     21  C   UNL     1     -11.731  53.951  46.012  0.00  0.00    +0.000 C 
ATOM     22  C   UNL     1     -10.235  53.973  45.839  0.00  0.00    +0.000 C 
ENDBRANCH  20  21
ENDBRANCH  18  20
ENDBRANCH   9  18
ENDBRANCH   4   7
BRANCH   1  23
ATOM     23  S   UNL     1      -6.640  53.721  48.676  0.00  0.00    +0.000 S 
ATOM     24  O   UNL     1      -6.686  54.997  47.996  0.00  0.00    +0.000 OA
ATOM     25  O   UNL     1      -6.017  52.585  48.031  0.00  0.00    +0.000 OA
BRANCH  23  26
ATOM     26  C   UNL     1      -5.802  53.962  50.245  0.00  0.00    +0.000 A 
ATOM     27  C   UNL     1      -6.448  54.468  51.374  0.00  0.00    +0.000 A 
ATOM     28  C   UNL     1      -4.476  53.519  50.346  0.00  0.00    +0.000 A 
ATOM     29  C   UNL     1      -5.736  54.592  52.581  0.00  0.00    +0.000 A 
ATOM     30  C   UNL     1      -3.771  53.649  51.542  0.00  0.00    +0.000 A 
ATOM     31  C   UNL     1      -4.392  54.203  52.665  0.00  0.00    +0.000 A 
ATOM     32  C   UNL     1      -3.609  54.374  53.940  0.00  0.00    +0.000 C 
ENDBRANCH  23  26
ENDBRANCH   1  23
TORSDOF 6
ENDMDL
MODEL 3
REMARK VINA RESULT:      -7.4      2.940      8.146
REMARK  Name = 
REMARK  10 active torsions:
REMARK  status: ('A' for Active; 'I' for Inactive)
REMARK    1  A    between atoms: S_1  and  N_4
REMARK    2  A    between atoms: S_1  and  C_5
REMARK    3  A    between atoms: N_10  and  C_13
REMARK    4  A    between atoms: C_14  and  C_17
REMARK    5  A    between atoms: C_16  and  C_20
REMARK    6  A    between atoms: C_20  and  O_24
REMARK    7  A    between atoms: O_24  and  C_27
REMARK    8  A    between atoms: C_25  and  C_28
REMARK    9  A    between atoms: C_25  and  C_29
REMARK   10  A    between atoms: C_27  and  C_30
REMARK                            x       y       z     vdW  Elec       q    Type
REMARK                         _______ _______ _______ _____ _____    ______ ____
ROOT
ATOM      1  N   UNL     1     -11.656  56.942  49.087  0.00  0.00    +0.000 N 
ATOM      2  C   UNL     1     -10.644  56.049  49.501  0.00  0.00    +0.000 C 
ATOM      3  O   UNL     1     -10.944  54.938  49.954  0.00  0.00    +0.000 OA
ATOM      4  N   UNL     1      -9.353  56.499  49.467  0.00  0.00    +0.000 N 
ATOM      5  H   UNL     1     -11.401  57.840  48.772  0.00  0.00    +0.000 HD
ATOM      6  H   UNL     1      -9.136  57.384  49.095  0.00  0.00    +0.000 HD
ENDROOT
BRANCH   4   7
ATOM      7  C   UNL     1      -8.347  55.663  49.977  0.00  0.00    +0.000 A 
ATOM      8  S   UNL     1      -7.861  55.892  51.600  0.00  0.00    +0.000 S 
ATOM      9  C   UNL     1      -7.647  54.641  49.365  0.00  0.00    +0.000 A 
ATOM     10  C   UNL     1      -6.869  54.488  51.579  0.00  0.00    +0.000 A 
ATOM     11  C   UNL     1      -6.873  53.893  50.327  0.00  0.00    +0.000 A 
ATOM     12  C   UNL     1      -6.070  53.969  52.772  0.00  0.00    +0.000 C 
ATOM     13  C   UNL     1      -6.051  52.674  50.029  0.00  0.00    +0.000 C 
ATOM     14  C   UNL     1      -4.945  52.969  52.315  0.00  0.00    +0.000 C 
ATOM     15  C   UNL     1      -5.539  51.982  51.284  0.00  0.00    +0.000 C 
ATOM     16  C   UNL     1      -4.401  52.111  53.476  0.00  0.00    +0.000 C 
ATOM     17  C   UNL     1      -3.751  53.745  51.719  0.00  0.00    +0.000 C 
BRANCH   9  18
ATOM     18  C   UNL     1      -7.669  54.398  47.929  0.00  0.00    +0.000 C 
ATOM     19  O   UNL     1      -6.683  54.552  47.198  0.00  0.00    +0.000 OA
BRANCH  18  20
ATOM     20  O   UNL     1      -8.885  53.981  47.505  0.00  0.00    +0.000 OA
BRANCH  20  21
ATOM     21  C   UNL     1      -9.358  54.523  46.274  0.00  0.00    +0.000 C 
ATOM     22  C   UNL     1     -10.865  54.538  46.267  0.00  0.00    +0.000 C 
ENDBRANCH  20  21
ENDBRANCH  18  20
ENDBRANCH   9  18
ENDBRANCH   4   7
BRANCH   1  23
ATOM     23  S   UNL     1     -13.301  56.515  49.113  0.00  0.00    +0.000 S 
ATOM     24  O   UNL     1     -13.402  55.091  49.344  0.00  0.00    +0.000 OA
ATOM     25  O   UNL     1     -13.916  57.098  47.940  0.00  0.00    +0.000 OA
BRANCH  23  26
ATOM     26  C   UNL     1     -13.990  57.355  50.543  0.00  0.00    +0.000 A 
ATOM     27  C   UNL     1     -13.871  56.854  51.840  0.00  0.00    +0.000 A 
ATOM     28  C   UNL     1     -14.571  58.614  50.337  0.00  0.00    +0.000 A 
ATOM     29  C   UNL     1     -14.402  57.588  52.917  0.00  0.00    +0.000 A 
ATOM     30  C   UNL     1     -15.102  59.336  51.405  0.00  0.00    +0.000 A 
ATOM     31  C   UNL     1     -15.036  58.819  52.703  0.00  0.00    +0.000 A 
ATOM     32  C   UNL     1     -15.647  59.590  53.843  0.00  0.00    +0.000 C 
ENDBRANCH  23  26
ENDBRANCH   1  23
TORSDOF 6
ENDMDL
MODEL 4
REMARK VINA RESULT:      -7.2      2.730      8.837
REMARK  Name = 
REMARK  10 active torsions:
REMARK  status: ('A' for Active; 'I' for Inactive)
REMARK    1  A    between atoms: S_1  and  N_4
REMARK    2  A    between atoms: S_1  and  C_5
REMARK    3  A    between atoms: N_10  and  C_13
REMARK    4  A    between atoms: C_14  and  C_17
REMARK    5  A    between atoms: C_16  and  C_20
REMARK    6  A    between atoms: C_20  and  O_24
REMARK    7  A    between atoms: O_24  and  C_27
REMARK    8  A    between atoms: C_25  and  C_28
REMARK    9  A    between atoms: C_25  and  C_29
REMARK   10  A    between atoms: C_27  and  C_30
REMARK                            x       y       z     vdW  Elec       q    Type
REMARK                         _______ _______ _______ _____ _____    ______ ____
ROOT
ATOM      1  N   UNL     1     -11.386  56.786  49.264  0.00  0.00    +0.000 N 
ATOM      2  C   UNL     1     -10.385  55.811  49.064  0.00  0.00    +0.000 C 
ATOM      3  O   UNL     1     -10.698  54.627  48.891  0.00  0.00    +0.000 OA
ATOM      4  N   UNL     1      -9.083  56.214  49.164  0.00  0.00    +0.000 N 
ATOM      5  H   UNL     1     -11.117  57.715  49.447  0.00  0.00    +0.000 HD
ATOM      6  H   UNL     1      -8.856  57.163  49.294  0.00  0.00    +0.000 HD
ENDROOT
BRANCH   4   7
ATOM      7  C   UNL     1      -8.078  55.237  49.075  0.00  0.00    +0.000 A 
ATOM      8  S   UNL     1      -7.639  54.678  47.521  0.00  0.00    +0.000 S 
ATOM      9  C   UNL     1      -7.349  54.621  50.074  0.00  0.00    +0.000 A 
ATOM     10  C   UNL     1      -6.318  53.767  48.140  0.00  0.00    +0.000 A 
ATOM     11  C   UNL     1      -6.258  53.853  49.522  0.00  0.00    +0.000 A 
ATOM     12  C   UNL     1      -5.347  52.953  47.288  0.00  0.00    +0.000 C 
ATOM     13  C   UNL     1      -5.221  53.113  50.315  0.00  0.00    +0.000 C 
ATOM     14  C   UNL     1      -4.562  51.905  48.160  0.00  0.00    +0.000 C 
ATOM     15  C   UNL     1      -4.077  52.593  49.457  0.00  0.00    +0.000 C 
ATOM     16  C   UNL     1      -3.300  51.366  47.454  0.00  0.00    +0.000 C 
ATOM     17  C   UNL     1      -5.465  50.693  48.478  0.00  0.00    +0.000 C 
BRANCH   9  18
ATOM     18  C   UNL     1      -7.685  54.712  51.488  0.00  0.00    +0.000 C 
ATOM     19  O   UNL     1      -6.917  55.175  52.342  0.00  0.00    +0.000 OA
BRANCH  18  20
ATOM     20  O   UNL     1      -8.928  54.241  51.745  0.00  0.00    +0.000 OA
BRANCH  20  21
ATOM     21  C   UNL     1      -9.548  54.683  52.950  0.00  0.00    +0.000 C 
ATOM     22  C   UNL     1     -10.992  55.023  52.688  0.00  0.00    +0.000 C 
ENDBRANCH  20  21
ENDBRANCH  18  20
ENDBRANCH   9  18
ENDBRANCH   4   7
BRANCH   1  23
ATOM     23  S   UNL     1     -13.041  56.405  49.200  0.00  0.00    +0.000 S 
ATOM     24  O   UNL     1     -13.208  55.017  49.571  0.00  0.00    +0.000 OA
ATOM     25  O   UNL     1     -13.542  56.873  47.925  0.00  0.00    +0.000 OA
BRANCH  23  26
ATOM     26  C   UNL     1     -13.813  57.412  50.470  0.00  0.00    +0.000 A 
ATOM     27  C   UNL     1     -14.435  58.630  50.191  0.00  0.00    +0.000 A 
ATOM     28  C   UNL     1     -13.875  56.884  51.767  0.00  0.00    +0.000 A 
ATOM     29  C   UNL     1     -15.055  59.345  51.233  0.00  0.00    +0.000 A 
ATOM     30  C   UNL     1     -14.484  57.598  52.798  0.00  0.00    +0.000 A 
ATOM     31  C   UNL     1     -15.064  58.843  52.542  0.00  0.00    +0.000 A 
ATOM     32  C   UNL     1     -15.685  59.623  53.670  0.00  0.00    +0.000 C 
ENDBRANCH  23  26
ENDBRANCH   1  23
TORSDOF 6
ENDMDL
MODEL 5
REMARK VINA RESULT:      -7.2      2.986      4.913
REMARK  Name = 
REMARK  10 active torsions:
REMARK  status: ('A' for Active; 'I' for Inactive)
REMARK    1  A    between atoms: S_1  and  N_4
REMARK    2  A    between atoms: S_1  and  C_5
REMARK    3  A    between atoms: N_10  and  C_13
REMARK    4  A    between atoms: C_14  and  C_17
REMARK    5  A    between atoms: C_16  and  C_20
REMARK    6  A    between atoms: C_20  and  O_24
REMARK    7  A    between atoms: O_24  and  C_27
REMARK    8  A    between atoms: C_25  and  C_28
REMARK    9  A    between atoms: C_25  and  C_29
REMARK   10  A    between atoms: C_27  and  C_30
REMARK                            x       y       z     vdW  Elec       q    Type
REMARK                         _______ _______ _______ _____ _____    ______ ____
ROOT
ATOM      1  N   UNL     1      -8.416  52.446  49.960  0.00  0.00    +0.000 N 
ATOM      2  C   UNL     1      -9.281  53.533  50.215  0.00  0.00    +0.000 C 
ATOM      3  O   UNL     1      -8.996  54.359  51.090  0.00  0.00    +0.000 OA
ATOM      4  N   UNL     1     -10.463  53.572  49.530  0.00  0.00    +0.000 N 
ATOM      5  H   UNL     1      -8.681  51.772  49.293  0.00  0.00    +0.000 HD
ATOM      6  H   UNL     1     -10.666  52.909  48.832  0.00  0.00    +0.000 HD
ENDROOT
BRANCH   4   7
ATOM      7  C   UNL     1     -11.381  54.586  49.850  0.00  0.00    +0.000 A 
ATOM      8  S   UNL     1     -12.091  54.563  51.404  0.00  0.00    +0.000 S 
ATOM      9  C   UNL     1     -11.830  55.648  49.089  0.00  0.00    +0.000 A 
ATOM     10  C   UNL     1     -12.840  56.092  51.167  0.00  0.00    +0.000 A 
ATOM     11  C   UNL     1     -12.589  56.578  49.893  0.00  0.00    +0.000 A 
ATOM     12  C   UNL     1     -13.688  56.818  52.209  0.00  0.00    +0.000 C 
ATOM     13  C   UNL     1     -13.166  57.878  49.415  0.00  0.00    +0.000 C 
ATOM     14  C   UNL     1     -14.576  57.934  51.547  0.00  0.00    +0.000 C 
ATOM     15  C   UNL     1     -13.713  58.736  50.547  0.00  0.00    +0.000 C 
ATOM     16  C   UNL     1     -15.116  58.953  52.571  0.00  0.00    +0.000 C 
ATOM     17  C   UNL     1     -15.795  57.298  50.844  0.00  0.00    +0.000 C 
BRANCH   9  18
ATOM     18  C   UNL     1     -11.594  55.770  47.657  0.00  0.00    +0.000 C 
ATOM     19  O   UNL     1     -12.503  55.886  46.825  0.00  0.00    +0.000 OA
BRANCH  18  20
ATOM     20  O   UNL     1     -10.274  55.749  47.359  0.00  0.00    +0.000 OA
BRANCH  20  21
ATOM     21  C   UNL     1      -9.857  54.831  46.350  0.00  0.00    +0.000 C 
ATOM     22  C   UNL     1      -8.355  54.712  46.356  0.00  0.00    +0.000 C 
ENDBRANCH  20  21
ENDBRANCH  18  20
ENDBRANCH   9  18
ENDBRANCH   4   7
BRANCH   1  23
ATOM     23  S   UNL     1      -6.933  52.264  50.770  0.00  0.00    +0.000 S 
ATOM     24  O   UNL     1      -6.320  53.568  50.901  0.00  0.00    +0.000 OA
ATOM     25  O   UNL     1      -6.213  51.193  50.115  0.00  0.00    +0.000 OA
BRANCH  23  26
ATOM     26  C   UNL     1      -7.355  51.686  52.416  0.00  0.00    +0.000 A 
ATOM     27  C   UNL     1      -6.735  52.174  53.568  0.00  0.00    +0.000 A 
ATOM     28  C   UNL     1      -8.424  50.787  52.534  0.00  0.00    +0.000 A 
ATOM     29  C   UNL     1      -7.146  51.702  54.828  0.00  0.00    +0.000 A 
ATOM     30  C   UNL     1      -8.825  50.317  53.784  0.00  0.00    +0.000 A 
ATOM     31  C   UNL     1      -8.176  50.759  54.940  0.00  0.00    +0.000 A 
ATOM     32  C   UNL     1      -8.592  50.215  56.282  0.00  0.00    +0.000 C 
ENDBRANCH  23  26
ENDBRANCH   1  23
TORSDOF 6
ENDMDL
MODEL 6
REMARK VINA RESULT:      -7.0      3.578      9.063
REMARK  Name = 
REMARK  10 active torsions:
REMARK  status: ('A' for Active; 'I' for Inactive)
REMARK    1  A    between atoms: S_1  and  N_4
REMARK    2  A    between atoms: S_1  and  C_5
REMARK    3  A    between atoms: N_10  and  C_13
REMARK    4  A    between atoms: C_14  and  C_17
REMARK    5  A    between atoms: C_16  and  C_20
REMARK    6  A    between atoms: C_20  and  O_24
REMARK    7  A    between atoms: O_24  and  C_27
REMARK    8  A    between atoms: C_25  and  C_28
REMARK    9  A    between atoms: C_25  and  C_29
REMARK   10  A    between atoms: C_27  and  C_30
REMARK                            x       y       z     vdW  Elec       q    Type
REMARK                         _______ _______ _______ _____ _____    ______ ____
ROOT
ATOM      1  N   UNL     1     -11.958  55.232  50.985  0.00  0.00    +0.000 N 
ATOM      2  C   UNL     1     -10.603  54.871  50.823  0.00  0.00    +0.000 C 
ATOM      3  O   UNL     1      -9.953  55.314  49.869  0.00  0.00    +0.000 OA
ATOM      4  N   UNL     1     -10.085  53.956  51.697  0.00  0.00    +0.000 N 
ATOM      5  H   UNL     1     -12.473  54.834  51.724  0.00  0.00    +0.000 HD
ATOM      6  H   UNL     1     -10.617  53.623  52.454  0.00  0.00    +0.000 HD
ENDROOT
BRANCH   4   7
ATOM      7  C   UNL     1      -8.772  53.506  51.483  0.00  0.00    +0.000 A 
ATOM      8  S   UNL     1      -8.558  51.996  50.714  0.00  0.00    +0.000 S 
ATOM      9  C   UNL     1      -7.567  54.101  51.805  0.00  0.00    +0.000 A 
ATOM     10  C   UNL     1      -6.856  52.212  50.596  0.00  0.00    +0.000 A 
ATOM     11  C   UNL     1      -6.463  53.401  51.191  0.00  0.00    +0.000 A 
ATOM     12  C   UNL     1      -5.895  51.221  49.943  0.00  0.00    +0.000 C 
ATOM     13  C   UNL     1      -5.021  53.809  51.264  0.00  0.00    +0.000 C 
ATOM     14  C   UNL     1      -4.411  51.484  50.393  0.00  0.00    +0.000 C 
ATOM     15  C   UNL     1      -4.128  53.002  50.332  0.00  0.00    +0.000 C 
ATOM     16  C   UNL     1      -3.378  50.811  49.465  0.00  0.00    +0.000 C 
ATOM     17  C   UNL     1      -4.180  50.931  51.816  0.00  0.00    +0.000 C 
BRANCH   9  18
ATOM     18  C   UNL     1      -7.448  55.256  52.684  0.00  0.00    +0.000 C 
ATOM     19  O   UNL     1      -7.222  56.402  52.276  0.00  0.00    +0.000 OA
BRANCH  18  20
ATOM     20  O   UNL     1      -7.624  54.921  53.984  0.00  0.00    +0.000 OA
BRANCH  20  21
ATOM     21  C   UNL     1      -6.446  54.729  54.764  0.00  0.00    +0.000 C 
ATOM     22  C   UNL     1      -6.152  53.257  54.892  0.00  0.00    +0.000 C 
ENDBRANCH  20  21
ENDBRANCH  18  20
ENDBRANCH   9  18
ENDBRANCH   4   7
BRANCH   1  23
ATOM     23  S   UNL     1     -12.729  56.333  49.945  0.00  0.00    +0.000 S 
ATOM     24  O   UNL     1     -13.664  55.604  49.116  0.00  0.00    +0.000 OA
ATOM     25  O   UNL     1     -11.696  57.138  49.327  0.00  0.00    +0.000 OA
BRANCH  23  26
ATOM     26  C   UNL     1     -13.675  57.421  51.016  0.00  0.00    +0.000 A 
ATOM     27  C   UNL     1     -14.294  58.582  50.551  0.00  0.00    +0.000 A 
ATOM     28  C   UNL     1     -13.875  57.012  52.341  0.00  0.00    +0.000 A 
ATOM     29  C   UNL     1     -15.053  59.365  51.441  0.00  0.00    +0.000 A 
ATOM     30  C   UNL     1     -14.622  57.793  53.222  0.00  0.00    +0.000 A 
ATOM     31  C   UNL     1     -15.203  58.986  52.782  0.00  0.00    +0.000 A 
ATOM     32  C   UNL     1     -15.976  59.840  53.752  0.00  0.00    +0.000 C 
ENDBRANCH  23  26
ENDBRANCH   1  23
TORSDOF 6
ENDMDL
MODEL 7
REMARK VINA RESULT:      -6.9      2.719      4.112
REMARK  Name = 
REMARK  10 active torsions:
REMARK  status: ('A' for Active; 'I' for Inactive)
REMARK    1  A    between atoms: S_1  and  N_4
REMARK    2  A    between atoms: S_1  and  C_5
REMARK    3  A    between atoms: N_10  and  C_13
REMARK    4  A    between atoms: C_14  and  C_17
REMARK    5  A    between atoms: C_16  and  C_20
REMARK    6  A    between atoms: C_20  and  O_24
REMARK    7  A    between atoms: O_24  and  C_27
REMARK    8  A    between atoms: C_25  and  C_28
REMARK    9  A    between atoms: C_25  and  C_29
REMARK   10  A    between atoms: C_27  and  C_30
REMARK                            x       y       z     vdW  Elec       q    Type
REMARK                         _______ _______ _______ _____ _____    ______ ____
ROOT
ATOM      1  N   UNL     1     -10.927  53.970  44.967  0.00  0.00    +0.000 N 
ATOM      2  C   UNL     1     -11.388  54.339  46.250  0.00  0.00    +0.000 C 
ATOM      3  O   UNL     1     -11.772  53.472  47.043  0.00  0.00    +0.000 OA
ATOM      4  N   UNL     1     -11.475  55.674  46.529  0.00  0.00    +0.000 N 
ATOM      5  H   UNL     1     -10.669  54.676  44.331  0.00  0.00    +0.000 HD
ATOM      6  H   UNL     1     -11.155  56.347  45.886  0.00  0.00    +0.000 HD
ENDROOT
BRANCH   4   7
ATOM      7  C   UNL     1     -12.032  56.059  47.759  0.00  0.00    +0.000 A 
ATOM      8  S   UNL     1     -13.673  56.534  47.782  0.00  0.00    +0.000 S 
ATOM      9  C   UNL     1     -11.455  56.123  49.013  0.00  0.00    +0.000 A 
ATOM     10  C   UNL     1     -13.702  56.621  49.499  0.00  0.00    +0.000 A 
ATOM     11  C   UNL     1     -12.453  56.343  50.032  0.00  0.00    +0.000 A 
ATOM     12  C   UNL     1     -14.931  56.977  50.332  0.00  0.00    +0.000 C 
ATOM     13  C   UNL     1     -12.197  56.394  51.510  0.00  0.00    +0.000 C 
ATOM     14  C   UNL     1     -14.528  57.406  51.790  0.00  0.00    +0.000 C 
ATOM     15  C   UNL     1     -13.476  56.413  52.335  0.00  0.00    +0.000 C 
ATOM     16  C   UNL     1     -15.715  57.366  52.775  0.00  0.00    +0.000 C 
ATOM     17  C   UNL     1     -13.981  58.850  51.789  0.00  0.00    +0.000 C 
BRANCH   9  18
ATOM     18  C   UNL     1     -10.020  56.025  49.245  0.00  0.00    +0.000 C 
ATOM     19  O   UNL     1      -9.322  56.981  49.606  0.00  0.00    +0.000 OA
BRANCH  18  20
ATOM     20  O   UNL     1      -9.558  54.771  49.027  0.00  0.00    +0.000 OA
BRANCH  20  21
ATOM     21  C   UNL     1      -9.511  53.898  50.153  0.00  0.00    +0.000 C 
ATOM     22  C   UNL     1      -9.700  52.473  49.703  0.00  0.00    +0.000 C 
ENDBRANCH  20  21
ENDBRANCH  18  20
ENDBRANCH   9  18
ENDBRANCH   4   7
BRANCH   1  23
ATOM     23  S   UNL     1     -10.805  52.345  44.485  0.00  0.00    +0.000 S 
ATOM     24  O   UNL     1     -10.249  52.302  43.150  0.00  0.00    +0.000 OA
ATOM     25  O   UNL     1     -12.083  51.719  44.751  0.00  0.00    +0.000 OA
BRANCH  23  26
ATOM     26  C   UNL     1      -9.612  51.603  45.603  0.00  0.00    +0.000 A 
ATOM     27  C   UNL     1      -9.872  50.428  46.310  0.00  0.00    +0.000 A 
ATOM     28  C   UNL     1      -8.338  52.184  45.671  0.00  0.00    +0.000 A 
ATOM     29  C   UNL     1      -8.873  49.883  47.138  0.00  0.00    +0.000 A 
ATOM     30  C   UNL     1      -7.353  51.646  46.497  0.00  0.00    +0.000 A 
ATOM     31  C   UNL     1      -7.619  50.499  47.251  0.00  0.00    +0.000 A 
ATOM     32  C   UNL     1      -6.560  49.948  48.168  0.00  0.00    +0.000 C 
ENDBRANCH  23  26
ENDBRANCH   1  23
TORSDOF 6
ENDMDL
MODEL 8
REMARK VINA RESULT:      -6.7      2.558      4.030
REMARK  Name = 
REMARK  10 active torsions:
REMARK  status: ('A' for Active; 'I' for Inactive)
REMARK    1  A    between atoms: S_1  and  N_4
REMARK    2  A    between atoms: S_1  and  C_5
REMARK    3  A    between atoms: N_10  and  C_13
REMARK    4  A    between atoms: C_14  and  C_17
REMARK    5  A    between atoms: C_16  and  C_20
REMARK    6  A    between atoms: C_20  and  O_24
REMARK    7  A    between atoms: O_24  and  C_27
REMARK    8  A    between atoms: C_25  and  C_28
REMARK    9  A    between atoms: C_25  and  C_29
REMARK   10  A    between atoms: C_27  and  C_30
REMARK                            x       y       z     vdW  Elec       q    Type
REMARK                         _______ _______ _______ _____ _____    ______ ____
ROOT
ATOM      1  N   UNL     1      -9.281  53.191  47.346  0.00  0.00    +0.000 N 
ATOM      2  C   UNL     1     -10.010  54.238  47.951  0.00  0.00    +0.000 C 
ATOM      3  O   UNL     1      -9.460  55.319  48.191  0.00  0.00    +0.000 OA
ATOM      4  N   UNL     1     -11.295  53.972  48.334  0.00  0.00    +0.000 N 
ATOM      5  H   UNL     1      -9.722  52.322  47.204  0.00  0.00    +0.000 HD
ATOM      6  H   UNL     1     -11.716  53.108  48.126  0.00  0.00    +0.000 HD
ENDROOT
BRANCH   4   7
ATOM      7  C   UNL     1     -11.997  54.967  49.034  0.00  0.00    +0.000 A 
ATOM      8  S   UNL     1     -12.899  56.100  48.126  0.00  0.00    +0.000 S 
ATOM      9  C   UNL     1     -12.088  55.200  50.393  0.00  0.00    +0.000 A 
ATOM     10  C   UNL     1     -13.603  56.783  49.538  0.00  0.00    +0.000 A 
ATOM     11  C   UNL     1     -13.105  56.183  50.684  0.00  0.00    +0.000 A 
ATOM     12  C   UNL     1     -14.627  57.916  49.540  0.00  0.00    +0.000 C 
ATOM     13  C   UNL     1     -13.525  56.626  52.054  0.00  0.00    +0.000 C 
ATOM     14  C   UNL     1     -14.722  58.599  50.954  0.00  0.00    +0.000 C 
ATOM     15  C   UNL     1     -14.771  57.500  52.040  0.00  0.00    +0.000 C 
ATOM     16  C   UNL     1     -16.004  59.439  51.126  0.00  0.00    +0.000 C 
ATOM     17  C   UNL     1     -13.520  59.543  51.171  0.00  0.00    +0.000 C 
BRANCH   9  18
ATOM     18  C   UNL     1     -11.228  54.559  51.378  0.00  0.00    +0.000 C 
ATOM     19  O   UNL     1     -11.365  53.383  51.739  0.00  0.00    +0.000 OA
BRANCH  18  20
ATOM     20  O   UNL     1     -10.270  55.398  51.836  0.00  0.00    +0.000 OA
BRANCH  20  21
ATOM     21  C   UNL     1      -8.917  54.968  51.695  0.00  0.00    +0.000 C 
ATOM     22  C   UNL     1      -8.048  56.135  51.305  0.00  0.00    +0.000 C 
ENDBRANCH  20  21
ENDBRANCH  18  20
ENDBRANCH   9  18
ENDBRANCH   4   7
BRANCH   1  23
ATOM     23  S   UNL     1      -7.666  53.384  46.854  0.00  0.00    +0.000 S 
ATOM     24  O   UNL     1      -7.555  54.625  46.119  0.00  0.00    +0.000 OA
ATOM     25  O   UNL     1      -7.252  52.143  46.236  0.00  0.00    +0.000 OA
BRANCH  23  26
ATOM     26  C   UNL     1      -6.722  53.558  48.372  0.00  0.00    +0.000 A 
ATOM     27  C   UNL     1      -6.784  52.624  49.408  0.00  0.00    +0.000 A 
ATOM     28  C   UNL     1      -5.814  54.623  48.452  0.00  0.00    +0.000 A 
ATOM     29  C   UNL     1      -5.984  52.806  50.551  0.00  0.00    +0.000 A 
ATOM     30  C   UNL     1      -5.027  54.803  49.589  0.00  0.00    +0.000 A 
ATOM     31  C   UNL     1      -5.119  53.904  50.656  0.00  0.00    +0.000 A 
ATOM     32  C   UNL     1      -4.293  54.131  51.894  0.00  0.00    +0.000 C 
ENDBRANCH  23  26
ENDBRANCH   1  23
TORSDOF 6
ENDMDL
MODEL 9
REMARK VINA RESULT:      -6.5      2.864      4.193
REMARK  Name = 
REMARK  10 active torsions:
REMARK  status: ('A' for Active; 'I' for Inactive)
REMARK    1  A    between atoms: S_1  and  N_4
REMARK    2  A    between atoms: S_1  and  C_5
REMARK    3  A    between atoms: N_10  and  C_13
REMARK    4  A    between atoms: C_14  and  C_17
REMARK    5  A    between atoms: C_16  and  C_20
REMARK    6  A    between atoms: C_20  and  O_24
REMARK    7  A    between atoms: O_24  and  C_27
REMARK    8  A    between atoms: C_25  and  C_28
REMARK    9  A    between atoms: C_25  and  C_29
REMARK   10  A    between atoms: C_27  and  C_30
REMARK                            x       y       z     vdW  Elec       q    Type
REMARK                         _______ _______ _______ _____ _____    ______ ____
ROOT
ATOM      1  N   UNL     1      -7.610  52.013  48.966  0.00  0.00    +0.000 N 
ATOM      2  C   UNL     1      -8.609  53.009  48.907  0.00  0.00    +0.000 C 
ATOM      3  O   UNL     1      -8.315  54.163  48.573  0.00  0.00    +0.000 OA
ATOM      4  N   UNL     1      -9.866  52.666  49.319  0.00  0.00    +0.000 N 
ATOM      5  H   UNL     1      -7.853  51.111  49.279  0.00  0.00    +0.000 HD
ATOM      6  H   UNL     1     -10.080  51.740  49.573  0.00  0.00    +0.000 HD
ENDROOT
BRANCH   4   7
ATOM      7  C   UNL     1     -10.844  53.673  49.369  0.00  0.00    +0.000 A 
ATOM      8  S   UNL     1     -11.232  54.338  50.895  0.00  0.00    +0.000 S 
ATOM      9  C   UNL     1     -11.582  54.244  48.350  0.00  0.00    +0.000 A 
ATOM     10  C   UNL     1     -12.229  55.552  50.196  0.00  0.00    +0.000 A 
ATOM     11  C   UNL     1     -12.301  55.406  48.819  0.00  0.00    +0.000 A 
ATOM     12  C   UNL     1     -12.959  56.639  50.982  0.00  0.00    +0.000 C 
ATOM     13  C   UNL     1     -13.143  56.313  47.971  0.00  0.00    +0.000 C 
ATOM     14  C   UNL     1     -14.112  57.284  50.129  0.00  0.00    +0.000 C 
ATOM     15  C   UNL     1     -13.584  57.572  48.705  0.00  0.00    +0.000 C 
ATOM     16  C   UNL     1     -14.590  58.637  50.697  0.00  0.00    +0.000 C 
ATOM     17  C   UNL     1     -15.336  56.344  50.088  0.00  0.00    +0.000 C 
BRANCH   9  18
ATOM     18  C   UNL     1     -11.645  53.702  47.000  0.00  0.00    +0.000 C 
ATOM     19  O   UNL     1     -12.363  52.745  46.685  0.00  0.00    +0.000 OA
BRANCH  18  20
ATOM     20  O   UNL     1     -10.837  54.374  46.147  0.00  0.00    +0.000 OA
BRANCH  20  21
ATOM     21  C   UNL     1     -10.205  53.609  45.123  0.00  0.00    +0.000 C 
ATOM     22  C   UNL     1      -8.726  53.896  45.110  0.00  0.00    +0.000 C 
ENDBRANCH  20  21
ENDBRANCH  18  20
ENDBRANCH   9  18
ENDBRANCH   4   7
BRANCH   1  23
ATOM     23  S   UNL     1      -6.001  52.321  48.514  0.00  0.00    +0.000 S 
ATOM     24  O   UNL     1      -5.991  53.425  47.579  0.00  0.00    +0.000 OA
ATOM     25  O   UNL     1      -5.408  51.055  48.139  0.00  0.00    +0.000 OA
BRANCH  23  26
ATOM     26  C   UNL     1      -5.178  52.864  50.015  0.00  0.00    +0.000 A 
ATOM     27  C   UNL     1      -4.076  52.197  50.553  0.00  0.00    +0.000 A 
ATOM     28  C   UNL     1      -5.609  54.066  50.592  0.00  0.00    +0.000 A 
ATOM     29  C   UNL     1      -3.458  52.704  51.710  0.00  0.00    +0.000 A 
ATOM     30  C   UNL     1      -4.999  54.563  51.743  0.00  0.00    +0.000 A 
ATOM     31  C   UNL     1      -3.928  53.875  52.321  0.00  0.00    +0.000 A 
ATOM     32  C   UNL     1      -3.300  54.400  53.585  0.00  0.00    +0.000 C 
ENDBRANCH  23  26
ENDBRANCH   1  23
TORSDOF 6
ENDMDL
