MODEL 1
REMARK VINA RESULT:      -7.8      0.000      0.000
REMARK  Name = 
REMARK  9 active torsions:
REMARK  status: ('A' for Active; 'I' for Inactive)
REMARK    1  A    between atoms: S_1  and  N_4
REMARK    2  A    between atoms: S_1  and  C_5
REMARK    3  A    between atoms: N_10  and  C_13
REMARK    4  A    between atoms: C_16  and  C_19
REMARK    5  A    between atoms: C_19  and  O_23
REMARK    6  A    between atoms: O_23  and  C_26
REMARK    7  A    between atoms: C_24  and  C_27
REMARK    8  A    between atoms: C_24  and  C_28
REMARK    9  A    between atoms: C_26  and  C_29
REMARK                            x       y       z     vdW  Elec       q    Type
REMARK                         _______ _______ _______ _____ _____    ______ ____
ROOT
ATOM      1  C   UNL     1     -11.022  54.247  51.648  0.00  0.00    +0.000 A 
ATOM      2  S   UNL     1     -10.529  53.593  53.147  0.00  0.00    +0.000 S 
ATOM      3  C   UNL     1      -9.961  54.779  50.936  0.00  0.00    +0.000 A 
ATOM      4  C   UNL     1      -8.866  53.812  52.777  0.00  0.00    +0.000 A 
ATOM      5  C   UNL     1      -8.699  54.427  51.549  0.00  0.00    +0.000 A 
ATOM      6  C   UNL     1      -7.720  53.395  53.691  0.00  0.00    +0.000 C 
ATOM      7  C   UNL     1      -7.340  54.773  51.011  0.00  0.00    +0.000 C 
ATOM      8  C   UNL     1      -6.384  54.124  53.298  0.00  0.00    +0.000 C 
ATOM      9  C   UNL     1      -6.214  54.071  51.761  0.00  0.00    +0.000 C 
ATOM     10  C   UNL     1      -5.139  53.442  53.903  0.00  0.00    +0.000 C 
ATOM     11  C   UNL     1      -6.402  55.582  53.803  0.00  0.00    +0.000 C 
ENDROOT
BRANCH   1  15
ATOM     12  N   UNL     1     -14.516  55.191  51.194  0.00  0.00    +0.000 N 
ATOM     13  C   UNL     1     -13.178  55.268  51.608  0.00  0.00    +0.000 C 
ATOM     14  O   UNL     1     -12.732  56.293  52.113  0.00  0.00    +0.000 OA
ATOM     15  N   UNL     1     -12.377  54.168  51.317  0.00  0.00    +0.000 N 
ATOM     16  H   UNL     1     -14.836  54.368  50.757  0.00  0.00    +0.000 HD
ATOM     17  H   UNL     1     -12.752  53.363  50.894  0.00  0.00    +0.000 HD
BRANCH  12  18
ATOM     18  S   UNL     1     -15.595  56.473  51.424  0.00  0.00    +0.000 S 
ATOM     19  O   UNL     1     -15.651  56.790  52.836  0.00  0.00    +0.000 OA
ATOM     20  O   UNL     1     -16.809  56.119  50.717  0.00  0.00    +0.000 OA
BRANCH  18  21
ATOM     21  C   UNL     1     -14.884  57.874  50.561  0.00  0.00    +0.000 A 
ATOM     22  C   UNL     1     -14.688  59.121  51.184  0.00  0.00    +0.000 A 
ATOM     23  C   UNL     1     -14.379  57.660  49.272  0.00  0.00    +0.000 A 
ATOM     24  C   UNL     1     -14.040  60.146  50.484  0.00  0.00    +0.000 A 
ATOM     25  C   UNL     1     -13.741  58.693  48.573  0.00  0.00    +0.000 A 
ATOM     26  C   UNL     1     -13.568  59.938  49.193  0.00  0.00    +0.000 A 
ENDBRANCH  18  21
ENDBRANCH  12  18
ENDBRANCH   1  15
BRANCH   3  27
ATOM     27  C   UNL     1     -10.135  55.603  49.744  0.00  0.00    +0.000 C 
ATOM     28  O   UNL     1      -9.795  56.779  49.675  0.00  0.00    +0.000 OA
BRANCH  27  29
ATOM     29  O   UNL     1     -10.711  54.903  48.734  0.00  0.00    +0.000 OA
BRANCH  29  30
ATOM     30  C   UNL     1     -11.690  55.580  47.952  0.00  0.00    +0.000 C 
ATOM     31  C   UNL     1     -11.576  55.150  46.506  0.00  0.00    +0.000 C 
ENDBRANCH  29  30
ENDBRANCH  27  29
ENDBRANCH   3  27
TORSDOF 6
ENDMDL
MODEL 2
REMARK VINA RESULT:      -7.4      2.600      7.675
REMARK  Name = 
REMARK  9 active torsions:
REMARK  status: ('A' for Active; 'I' for Inactive)
REMARK    1  A    between atoms: S_1  and  N_4
REMARK    2  A    between atoms: S_1  and  C_5
REMARK    3  A    between atoms: N_10  and  C_13
REMARK    4  A    between atoms: C_16  and  C_19
REMARK    5  A    between atoms: C_19  and  O_23
REMARK    6  A    between atoms: O_23  and  C_26
REMARK    7  A    between atoms: C_24  and  C_27
REMARK    8  A    between atoms: C_24  and  C_28
REMARK    9  A    between atoms: C_26  and  C_29
REMARK                            x       y       z     vdW  Elec       q    Type
REMARK                         _______ _______ _______ _____ _____    ______ ____
ROOT
ATOM      1  C   UNL     1     -11.053  54.815  50.183  0.00  0.00    +0.000 A 
ATOM      2  S   UNL     1     -11.653  54.876  51.783  0.00  0.00    +0.000 S 
ATOM      3  C   UNL     1     -11.710  55.700  49.346  0.00  0.00    +0.000 A 
ATOM      4  C   UNL     1     -12.645  56.234  51.435  0.00  0.00    +0.000 A 
ATOM      5  C   UNL     1     -12.558  56.596  50.102  0.00  0.00    +0.000 A 
ATOM      6  C   UNL     1     -13.523  56.942  52.461  0.00  0.00    +0.000 C 
ATOM      7  C   UNL     1     -13.364  57.727  49.531  0.00  0.00    +0.000 C 
ATOM      8  C   UNL     1     -14.623  57.818  51.760  0.00  0.00    +0.000 C 
ATOM      9  C   UNL     1     -13.972  58.618  50.607  0.00  0.00    +0.000 C 
ATOM     10  C   UNL     1     -15.250  58.855  52.716  0.00  0.00    +0.000 C 
ATOM     11  C   UNL     1     -15.767  56.924  51.237  0.00  0.00    +0.000 C 
ENDROOT
BRANCH   1  15
ATOM     12  N   UNL     1      -7.698  53.396  50.015  0.00  0.00    +0.000 N 
ATOM     13  C   UNL     1      -8.717  54.337  50.223  0.00  0.00    +0.000 C 
ATOM     14  O   UNL     1      -8.476  55.424  50.741  0.00  0.00    +0.000 OA
ATOM     15  N   UNL     1     -10.009  53.927  49.913  0.00  0.00    +0.000 N 
ATOM     16  H   UNL     1      -7.928  52.518  49.632  0.00  0.00    +0.000 HD
ATOM     17  H   UNL     1     -10.182  53.044  49.515  0.00  0.00    +0.000 HD
BRANCH  12  18
ATOM     18  S   UNL     1      -6.085  53.728  50.402  0.00  0.00    +0.000 S 
ATOM     19  O   UNL     1      -5.754  55.055  49.928  0.00  0.00    +0.000 OA
ATOM     20  O   UNL     1      -5.313  52.589  49.951  0.00  0.00    +0.000 OA
BRANCH  18  21
ATOM     21  C   UNL     1      -6.002  53.733  52.192  0.00  0.00    +0.000 A 
ATOM     22  C   UNL     1      -5.283  54.708  52.910  0.00  0.00    +0.000 A 
ATOM     23  C   UNL     1      -6.802  52.816  52.887  0.00  0.00    +0.000 A 
ATOM     24  C   UNL     1      -5.336  54.713  54.309  0.00  0.00    +0.000 A 
ATOM     25  C   UNL     1      -6.842  52.819  54.287  0.00  0.00    +0.000 A 
ATOM     26  C   UNL     1      -6.108  53.781  54.995  0.00  0.00    +0.000 A 
ENDBRANCH  18  21
ENDBRANCH  12  18
ENDBRANCH   1  15
BRANCH   3  27
ATOM     27  C   UNL     1     -11.559  55.684  47.894  0.00  0.00    +0.000 C 
ATOM     28  O   UNL     1     -12.503  55.625  47.114  0.00  0.00    +0.000 OA
BRANCH  27  29
ATOM     29  O   UNL     1     -10.254  55.746  47.528  0.00  0.00    +0.000 OA
BRANCH  29  30
ATOM     30  C   UNL     1      -9.836  54.888  46.471  0.00  0.00    +0.000 C 
ATOM     31  C   UNL     1      -8.337  54.988  46.294  0.00  0.00    +0.000 C 
ENDBRANCH  29  30
ENDBRANCH  27  29
ENDBRANCH   3  27
TORSDOF 6
ENDMDL
MODEL 3
REMARK VINA RESULT:      -7.1      2.373      3.061
REMARK  Name = 
REMARK  9 active torsions:
REMARK  status: ('A' for Active; 'I' for Inactive)
REMARK    1  A    between atoms: S_1  and  N_4
REMARK    2  A    between atoms: S_1  and  C_5
REMARK    3  A    between atoms: N_10  and  C_13
REMARK    4  A    between atoms: C_16  and  C_19
REMARK    5  A    between atoms: C_19  and  O_23
REMARK    6  A    between atoms: O_23  and  C_26
REMARK    7  A    between atoms: C_24  and  C_27
REMARK    8  A    between atoms: C_24  and  C_28
REMARK    9  A    between atoms: C_26  and  C_29
REMARK                            x       y       z     vdW  Elec       q    Type
REMARK                         _______ _______ _______ _____ _____    ______ ____
ROOT
ATOM      1  C   UNL     1      -8.454  55.717  49.912  0.00  0.00    +0.000 A 
ATOM      2  S   UNL     1      -7.971  55.948  51.535  0.00  0.00    +0.000 S 
ATOM      3  C   UNL     1      -7.748  54.698  49.297  0.00  0.00    +0.000 A 
ATOM      4  C   UNL     1      -6.969  54.553  51.510  0.00  0.00    +0.000 A 
ATOM      5  C   UNL     1      -6.965  53.956  50.261  0.00  0.00    +0.000 A 
ATOM      6  C   UNL     1      -6.173  54.044  52.706  0.00  0.00    +0.000 C 
ATOM      7  C   UNL     1      -6.132  52.743  49.962  0.00  0.00    +0.000 C 
ATOM      8  C   UNL     1      -5.034  53.059  52.255  0.00  0.00    +0.000 C 
ATOM      9  C   UNL     1      -5.610  52.062  51.222  0.00  0.00    +0.000 C 
ATOM     10  C   UNL     1      -4.488  52.214  53.425  0.00  0.00    +0.000 C 
ATOM     11  C   UNL     1      -3.848  53.848  51.663  0.00  0.00    +0.000 C 
ENDROOT
BRANCH   1  15
ATOM     12  N   UNL     1     -11.780  56.963  49.081  0.00  0.00    +0.000 N 
ATOM     13  C   UNL     1     -10.778  56.083  49.519  0.00  0.00    +0.000 C 
ATOM     14  O   UNL     1     -11.065  55.015  50.051  0.00  0.00    +0.000 OA
ATOM     15  N   UNL     1      -9.468  56.538  49.413  0.00  0.00    +0.000 N 
ATOM     16  H   UNL     1     -11.521  57.829  48.692  0.00  0.00    +0.000 HD
ATOM     17  H   UNL     1      -9.263  57.408  48.999  0.00  0.00    +0.000 HD
BRANCH  12  18
ATOM     18  S   UNL     1     -13.422  56.574  49.202  0.00  0.00    +0.000 S 
ATOM     19  O   UNL     1     -13.550  55.149  49.429  0.00  0.00    +0.000 OA
ATOM     20  O   UNL     1     -14.072  57.182  48.060  0.00  0.00    +0.000 OA
BRANCH  18  21
ATOM     21  C   UNL     1     -14.023  57.431  50.657  0.00  0.00    +0.000 A 
ATOM     22  C   UNL     1     -13.800  56.950  51.961  0.00  0.00    +0.000 A 
ATOM     23  C   UNL     1     -14.605  58.693  50.478  0.00  0.00    +0.000 A 
ATOM     24  C   UNL     1     -14.212  57.716  53.058  0.00  0.00    +0.000 A 
ATOM     25  C   UNL     1     -15.026  59.449  51.579  0.00  0.00    +0.000 A 
ATOM     26  C   UNL     1     -14.818  58.954  52.874  0.00  0.00    +0.000 A 
ENDBRANCH  18  21
ENDBRANCH  12  18
ENDBRANCH   1  15
BRANCH   3  27
ATOM     27  C   UNL     1      -7.797  54.451  47.859  0.00  0.00    +0.000 C 
ATOM     28  O   UNL     1      -6.836  54.605  47.112  0.00  0.00    +0.000 OA
BRANCH  27  29
ATOM     29  O   UNL     1      -9.026  54.033  47.466  0.00  0.00    +0.000 OA
BRANCH  29  30
ATOM     30  C   UNL     1      -9.474  54.457  46.182  0.00  0.00    +0.000 C 
ATOM     31  C   UNL     1     -10.980  54.602  46.189  0.00  0.00    +0.000 C 
ENDBRANCH  29  30
ENDBRANCH  27  29
ENDBRANCH   3  27
TORSDOF 6
ENDMDL
MODEL 4
REMARK VINA RESULT:      -7.0      4.051      7.515
REMARK  Name = 
REMARK  9 active torsions:
REMARK  status: ('A' for Active; 'I' for Inactive)
REMARK    1  A    between atoms: S_1  and  N_4
REMARK    2  A    between atoms: S_1  and  C_5
REMARK    3  A    between atoms: N_10  and  C_13
REMARK    4  A    between atoms: C_16  and  C_19
REMARK    5  A    between atoms: C_19  and  O_23
REMARK    6  A    between atoms: O_23  and  C_26
REMARK    7  A    between atoms: C_24  and  C_27
REMARK    8  A    between atoms: C_24  and  C_28
REMARK    9  A    between atoms: C_26  and  C_29
REMARK                            x       y       z     vdW  Elec       q    Type
REMARK                         _______ _______ _______ _____ _____    ______ ____
ROOT
ATOM      1  C   UNL     1      -8.685  54.952  47.294  0.00  0.00    +0.000 A 
ATOM      2  S   UNL     1      -7.461  54.167  46.396  0.00  0.00    +0.000 S 
ATOM      3  C   UNL     1      -9.953  54.634  46.837  0.00  0.00    +0.000 A 
ATOM      4  C   UNL     1      -8.604  53.223  45.528  0.00  0.00    +0.000 A 
ATOM      5  C   UNL     1      -9.901  53.548  45.883  0.00  0.00    +0.000 A 
ATOM      6  C   UNL     1      -8.237  52.172  44.487  0.00  0.00    +0.000 C 
ATOM      7  C   UNL     1     -11.090  52.897  45.235  0.00  0.00    +0.000 C 
ATOM      8  C   UNL     1      -9.465  51.827  43.569  0.00  0.00    +0.000 C 
ATOM      9  C   UNL     1     -10.720  51.642  44.454  0.00  0.00    +0.000 C 
ATOM     10  C   UNL     1      -9.271  50.505  42.797  0.00  0.00    +0.000 C 
ATOM     11  C   UNL     1      -9.682  52.942  42.525  0.00  0.00    +0.000 C 
ENDROOT
BRANCH   1  15
ATOM     12  N   UNL     1      -7.557  56.031  50.590  0.00  0.00    +0.000 N 
ATOM     13  C   UNL     1      -8.028  55.185  49.575  0.00  0.00    +0.000 C 
ATOM     14  O   UNL     1      -8.107  53.973  49.750  0.00  0.00    +0.000 OA
ATOM     15  N   UNL     1      -8.290  55.782  48.346  0.00  0.00    +0.000 N 
ATOM     16  H   UNL     1      -7.469  56.995  50.408  0.00  0.00    +0.000 HD
ATOM     17  H   UNL     1      -8.202  56.754  48.222  0.00  0.00    +0.000 HD
BRANCH  12  18
ATOM     18  S   UNL     1      -7.138  55.441  52.118  0.00  0.00    +0.000 S 
ATOM     19  O   UNL     1      -6.978  56.560  53.025  0.00  0.00    +0.000 OA
ATOM     20  O   UNL     1      -6.040  54.518  51.915  0.00  0.00    +0.000 OA
BRANCH  18  21
ATOM     21  C   UNL     1      -8.538  54.467  52.669  0.00  0.00    +0.000 A 
ATOM     22  C   UNL     1      -9.864  54.928  52.564  0.00  0.00    +0.000 A 
ATOM     23  C   UNL     1      -8.296  53.149  53.081  0.00  0.00    +0.000 A 
ATOM     24  C   UNL     1     -10.919  54.080  52.924  0.00  0.00    +0.000 A 
ATOM     25  C   UNL     1      -9.355  52.310  53.450  0.00  0.00    +0.000 A 
ATOM     26  C   UNL     1     -10.672  52.783  53.361  0.00  0.00    +0.000 A 
ENDBRANCH  18  21
ENDBRANCH  12  18
ENDBRANCH   1  15
BRANCH   3  27
ATOM     27  C   UNL     1     -11.155  55.341  47.267  0.00  0.00    +0.000 C 
ATOM     28  O   UNL     1     -11.859  56.003  46.513  0.00  0.00    +0.000 OA
BRANCH  27  29
ATOM     29  O   UNL     1     -11.387  55.169  48.593  0.00  0.00    +0.000 OA
BRANCH  29  30
ATOM     30  C   UNL     1     -12.375  54.210  48.958  0.00  0.00    +0.000 C 
ATOM     31  C   UNL     1     -11.706  52.966  49.499  0.00  0.00    +0.000 C 
ENDBRANCH  29  30
ENDBRANCH  27  29
ENDBRANCH   3  27
TORSDOF 6
ENDMDL
MODEL 5
REMARK VINA RESULT:      -7.0      2.536      3.836
REMARK  Name = 
REMARK  9 active torsions:
REMARK  status: ('A' for Active; 'I' for Inactive)
REMARK    1  A    between atoms: S_1  and  N_4
REMARK    2  A    between atoms: S_1  and  C_5
REMARK    3  A    between atoms: N_10  and  C_13
REMARK    4  A    between atoms: C_16  and  C_19
REMARK    5  A    between atoms: C_19  and  O_23
REMARK    6  A    between atoms: O_23  and  C_26
REMARK    7  A    between atoms: C_24  and  C_27
REMARK    8  A    between atoms: C_24  and  C_28
REMARK    9  A    between atoms: C_26  and  C_29
REMARK                            x       y       z     vdW  Elec       q    Type
REMARK                         _______ _______ _______ _____ _____    ______ ____
ROOT
ATOM      1  C   UNL     1     -11.332  53.429  50.029  0.00  0.00    +0.000 A 
ATOM      2  S   UNL     1     -10.841  54.013  48.500  0.00  0.00    +0.000 S 
ATOM      3  C   UNL     1     -10.334  52.702  50.656  0.00  0.00    +0.000 A 
ATOM      4  C   UNL     1      -9.222  53.494  48.742  0.00  0.00    +0.000 A 
ATOM      5  C   UNL     1      -9.078  52.835  49.951  0.00  0.00    +0.000 A 
ATOM      6  C   UNL     1      -8.090  53.716  47.746  0.00  0.00    +0.000 C 
ATOM      7  C   UNL     1      -7.767  52.242  50.382  0.00  0.00    +0.000 C 
ATOM      8  C   UNL     1      -6.882  52.752  48.033  0.00  0.00    +0.000 C 
ATOM      9  C   UNL     1      -6.592  52.746  49.553  0.00  0.00    +0.000 C 
ATOM     10  C   UNL     1      -5.582  53.212  47.339  0.00  0.00    +0.000 C 
ATOM     11  C   UNL     1      -7.197  51.331  47.523  0.00  0.00    +0.000 C 
ENDROOT
BRANCH   1  15
ATOM     12  N   UNL     1     -14.141  55.306  51.405  0.00  0.00    +0.000 N 
ATOM     13  C   UNL     1     -12.820  54.987  51.052  0.00  0.00    +0.000 C 
ATOM     14  O   UNL     1     -11.918  55.809  51.178  0.00  0.00    +0.000 OA
ATOM     15  N   UNL     1     -12.622  53.743  50.462  0.00  0.00    +0.000 N 
ATOM     16  H   UNL     1     -14.850  54.639  51.258  0.00  0.00    +0.000 HD
ATOM     17  H   UNL     1     -13.365  53.106  50.354  0.00  0.00    +0.000 HD
BRANCH  12  18
ATOM     18  S   UNL     1     -14.546  56.804  52.076  0.00  0.00    +0.000 S 
ATOM     19  O   UNL     1     -13.539  57.168  53.051  0.00  0.00    +0.000 OA
ATOM     20  O   UNL     1     -15.935  56.711  52.477  0.00  0.00    +0.000 OA
BRANCH  18  21
ATOM     21  C   UNL     1     -14.474  57.982  50.727  0.00  0.00    +0.000 A 
ATOM     22  C   UNL     1     -14.488  59.373  50.940  0.00  0.00    +0.000 A 
ATOM     23  C   UNL     1     -14.250  57.484  49.436  0.00  0.00    +0.000 A 
ATOM     24  C   UNL     1     -14.333  60.239  49.851  0.00  0.00    +0.000 A 
ATOM     25  C   UNL     1     -14.107  58.356  48.349  0.00  0.00    +0.000 A 
ATOM     26  C   UNL     1     -14.142  59.740  48.567  0.00  0.00    +0.000 A 
ENDBRANCH  18  21
ENDBRANCH  12  18
ENDBRANCH   1  15
BRANCH   3  27
ATOM     27  C   UNL     1     -10.565  51.901  51.854  0.00  0.00    +0.000 C 
ATOM     28  O   UNL     1     -10.517  50.676  51.870  0.00  0.00    +0.000 OA
BRANCH  27  29
ATOM     29  O   UNL     1     -10.832  52.681  52.931  0.00  0.00    +0.000 OA
BRANCH  29  30
ATOM     30  C   UNL     1      -9.716  53.185  53.659  0.00  0.00    +0.000 C 
ATOM     31  C   UNL     1      -9.642  54.689  53.505  0.00  0.00    +0.000 C 
ENDBRANCH  29  30
ENDBRANCH  27  29
ENDBRANCH   3  27
TORSDOF 6
ENDMDL
MODEL 6
REMARK VINA RESULT:      -7.0      3.251      7.386
REMARK  Name = 
REMARK  9 active torsions:
REMARK  status: ('A' for Active; 'I' for Inactive)
REMARK    1  A    between atoms: S_1  and  N_4
REMARK    2  A    between atoms: S_1  and  C_5
REMARK    3  A    between atoms: N_10  and  C_13
REMARK    4  A    between atoms: C_16  and  C_19
REMARK    5  A    between atoms: C_19  and  O_23
REMARK    6  A    between atoms: O_23  and  C_26
REMARK    7  A    between atoms: C_24  and  C_27
REMARK    8  A    between atoms: C_24  and  C_28
REMARK    9  A    between atoms: C_26  and  C_29
REMARK                            x       y       z     vdW  Elec       q    Type
REMARK                         _______ _______ _______ _____ _____    ______ ____
ROOT
ATOM      1  C   UNL     1     -11.219  54.417  50.792  0.00  0.00    +0.000 A 
ATOM      2  S   UNL     1     -11.376  55.142  52.332  0.00  0.00    +0.000 S 
ATOM      3  C   UNL     1     -12.194  54.850  49.910  0.00  0.00    +0.000 A 
ATOM      4  C   UNL     1     -12.609  56.206  51.784  0.00  0.00    +0.000 A 
ATOM      5  C   UNL     1     -12.930  55.967  50.459  0.00  0.00    +0.000 A 
ATOM      6  C   UNL     1     -13.275  57.268  52.651  0.00  0.00    +0.000 C 
ATOM      7  C   UNL     1     -14.012  56.734  49.753  0.00  0.00    +0.000 C 
ATOM      8  C   UNL     1     -14.635  57.744  52.023  0.00  0.00    +0.000 C 
ATOM      9  C   UNL     1     -14.434  57.988  50.508  0.00  0.00    +0.000 C 
ATOM     10  C   UNL     1     -15.127  59.078  52.622  0.00  0.00    +0.000 C 
ATOM     11  C   UNL     1     -15.737  56.693  52.273  0.00  0.00    +0.000 C 
ENDROOT
BRANCH   1  15
ATOM     12  N   UNL     1      -8.053  53.014  49.648  0.00  0.00    +0.000 N 
ATOM     13  C   UNL     1      -9.132  53.905  49.759  0.00  0.00    +0.000 C 
ATOM     14  O   UNL     1      -9.102  55.002  49.211  0.00  0.00    +0.000 OA
ATOM     15  N   UNL     1     -10.169  53.516  50.601  0.00  0.00    +0.000 N 
ATOM     16  H   UNL     1      -8.089  52.156  50.130  0.00  0.00    +0.000 HD
ATOM     17  H   UNL     1     -10.163  52.638  51.046  0.00  0.00    +0.000 HD
BRANCH  12  18
ATOM     18  S   UNL     1      -6.693  53.374  48.710  0.00  0.00    +0.000 S 
ATOM     19  O   UNL     1      -5.721  52.312  48.866  0.00  0.00    +0.000 OA
ATOM     20  O   UNL     1      -6.325  54.738  49.028  0.00  0.00    +0.000 OA
BRANCH  18  21
ATOM     21  C   UNL     1      -7.257  53.374  47.008  0.00  0.00    +0.000 A 
ATOM     22  C   UNL     1      -7.717  52.209  46.367  0.00  0.00    +0.000 A 
ATOM     23  C   UNL     1      -7.374  54.611  46.359  0.00  0.00    +0.000 A 
ATOM     24  C   UNL     1      -8.233  52.294  45.068  0.00  0.00    +0.000 A 
ATOM     25  C   UNL     1      -7.881  54.688  45.055  0.00  0.00    +0.000 A 
ATOM     26  C   UNL     1      -8.318  53.519  44.416  0.00  0.00    +0.000 A 
ENDBRANCH  18  21
ENDBRANCH  12  18
ENDBRANCH   1  15
BRANCH   3  27
ATOM     27  C   UNL     1     -12.432  54.220  48.615  0.00  0.00    +0.000 C 
ATOM     28  O   UNL     1     -12.561  53.010  48.463  0.00  0.00    +0.000 OA
BRANCH  27  29
ATOM     29  O   UNL     1     -12.494  55.137  47.617  0.00  0.00    +0.000 OA
BRANCH  29  30
ATOM     30  C   UNL     1     -11.390  55.194  46.720  0.00  0.00    +0.000 C 
ATOM     31  C   UNL     1     -11.678  54.348  45.499  0.00  0.00    +0.000 C 
ENDBRANCH  29  30
ENDBRANCH  27  29
ENDBRANCH   3  27
TORSDOF 6
ENDMDL
MODEL 7
REMARK VINA RESULT:      -6.9      1.553      2.066
REMARK  Name = 
REMARK  9 active torsions:
REMARK  status: ('A' for Active; 'I' for Inactive)
REMARK    1  A    between atoms: S_1  and  N_4
REMARK    2  A    between atoms: S_1  and  C_5
REMARK    3  A    between atoms: N_10  and  C_13
REMARK    4  A    between atoms: C_16  and  C_19
REMARK    5  A    between atoms: C_19  and  O_23
REMARK    6  A    between atoms: O_23  and  C_26
REMARK    7  A    between atoms: C_24  and  C_27
REMARK    8  A    between atoms: C_24  and  C_28
REMARK    9  A    between atoms: C_26  and  C_29
REMARK                            x       y       z     vdW  Elec       q    Type
REMARK                         _______ _______ _______ _____ _____    ______ ____
ROOT
ATOM      1  C   UNL     1     -11.161  53.362  51.255  0.00  0.00    +0.000 A 
ATOM      2  S   UNL     1     -10.335  53.299  52.750  0.00  0.00    +0.000 S 
ATOM      3  C   UNL     1     -10.341  53.029  50.191  0.00  0.00    +0.000 A 
ATOM      4  C   UNL     1      -8.934  52.617  52.027  0.00  0.00    +0.000 A 
ATOM      5  C   UNL     1      -9.081  52.494  50.657  0.00  0.00    +0.000 A 
ATOM      6  C   UNL     1      -7.681  52.211  52.795  0.00  0.00    +0.000 C 
ATOM      7  C   UNL     1      -7.980  51.965  49.782  0.00  0.00    +0.000 C 
ATOM      8  C   UNL     1      -6.447  52.061  51.833  0.00  0.00    +0.000 C 
ATOM      9  C   UNL     1      -6.881  51.269  50.577  0.00  0.00    +0.000 C 
ATOM     10  C   UNL     1      -5.291  51.268  52.476  0.00  0.00    +0.000 C 
ATOM     11  C   UNL     1      -5.895  53.450  51.449  0.00  0.00    +0.000 C 
ENDROOT
BRANCH   1  15
ATOM     12  N   UNL     1     -14.192  55.357  51.632  0.00  0.00    +0.000 N 
ATOM     13  C   UNL     1     -12.836  55.002  51.700  0.00  0.00    +0.000 C 
ATOM     14  O   UNL     1     -11.984  55.822  52.029  0.00  0.00    +0.000 OA
ATOM     15  N   UNL     1     -12.512  53.718  51.273  0.00  0.00    +0.000 N 
ATOM     16  H   UNL     1     -14.847  54.688  51.328  0.00  0.00    +0.000 HD
ATOM     17  H   UNL     1     -13.210  53.082  50.995  0.00  0.00    +0.000 HD
BRANCH  12  18
ATOM     18  S   UNL     1     -14.730  56.902  52.059  0.00  0.00    +0.000 S 
ATOM     19  O   UNL     1     -13.925  57.390  53.160  0.00  0.00    +0.000 OA
ATOM     20  O   UNL     1     -16.168  56.810  52.205  0.00  0.00    +0.000 OA
BRANCH  18  21
ATOM     21  C   UNL     1     -14.420  57.942  50.632  0.00  0.00    +0.000 A 
ATOM     22  C   UNL     1     -14.207  57.412  49.346  0.00  0.00    +0.000 A 
ATOM     23  C   UNL     1     -14.542  59.329  50.796  0.00  0.00    +0.000 A 
ATOM     24  C   UNL     1     -14.066  58.281  48.257  0.00  0.00    +0.000 A 
ATOM     25  C   UNL     1     -14.389  60.193  49.704  0.00  0.00    +0.000 A 
ATOM     26  C   UNL     1     -14.157  59.658  48.429  0.00  0.00    +0.000 A 
ENDBRANCH  18  21
ENDBRANCH  12  18
ENDBRANCH   1  15
BRANCH   3  27
ATOM     27  C   UNL     1     -10.726  53.229  48.797  0.00  0.00    +0.000 C 
ATOM     28  O   UNL     1     -10.819  52.319  47.981  0.00  0.00    +0.000 OA
BRANCH  27  29
ATOM     29  O   UNL     1     -10.967  54.537  48.529  0.00  0.00    +0.000 OA
BRANCH  29  30
ATOM     30  C   UNL     1     -12.163  54.844  47.820  0.00  0.00    +0.000 C 
ATOM     31  C   UNL     1     -11.843  55.725  46.633  0.00  0.00    +0.000 C 
ENDBRANCH  29  30
ENDBRANCH  27  29
ENDBRANCH   3  27
TORSDOF 6
ENDMDL
MODEL 8
REMARK VINA RESULT:      -6.9      3.669      6.130
REMARK  Name = 
REMARK  9 active torsions:
REMARK  status: ('A' for Active; 'I' for Inactive)
REMARK    1  A    between atoms: S_1  and  N_4
REMARK    2  A    between atoms: S_1  and  C_5
REMARK    3  A    between atoms: N_10  and  C_13
REMARK    4  A    between atoms: C_16  and  C_19
REMARK    5  A    between atoms: C_19  and  O_23
REMARK    6  A    between atoms: O_23  and  C_26
REMARK    7  A    between atoms: C_24  and  C_27
REMARK    8  A    between atoms: C_24  and  C_28
REMARK    9  A    between atoms: C_26  and  C_29
REMARK                            x       y       z     vdW  Elec       q    Type
REMARK                         _______ _______ _______ _____ _____    ______ ____
ROOT
ATOM      1  C   UNL     1     -10.563  54.226  47.439  0.00  0.00    +0.000 A 
ATOM      2  S   UNL     1      -9.437  54.784  46.280  0.00  0.00    +0.000 S 
ATOM      3  C   UNL     1     -10.969  52.926  47.188  0.00  0.00    +0.000 A 
ATOM      4  C   UNL     1      -9.309  53.233  45.553  0.00  0.00    +0.000 A 
ATOM      5  C   UNL     1     -10.157  52.321  46.156  0.00  0.00    +0.000 A 
ATOM      6  C   UNL     1      -8.389  52.905  44.383  0.00  0.00    +0.000 C 
ATOM      7  C   UNL     1     -10.269  50.901  45.676  0.00  0.00    +0.000 C 
ATOM      8  C   UNL     1      -8.826  51.575  43.670  0.00  0.00    +0.000 C 
ATOM      9  C   UNL     1      -9.131  50.504  44.744  0.00  0.00    +0.000 C 
ATOM     10  C   UNL     1      -7.714  50.993  42.772  0.00  0.00    +0.000 C 
ATOM     11  C   UNL     1     -10.056  51.827  42.774  0.00  0.00    +0.000 C 
ENDROOT
BRANCH   1  15
ATOM     12  N   UNL     1     -12.357  56.797  49.302  0.00  0.00    +0.000 N 
ATOM     13  C   UNL     1     -11.964  55.989  48.225  0.00  0.00    +0.000 C 
ATOM     14  O   UNL     1     -12.578  56.011  47.162  0.00  0.00    +0.000 OA
ATOM     15  N   UNL     1     -10.923  55.098  48.468  0.00  0.00    +0.000 N 
ATOM     16  H   UNL     1     -11.868  56.730  50.154  0.00  0.00    +0.000 HD
ATOM     17  H   UNL     1     -10.457  55.084  49.335  0.00  0.00    +0.000 HD
BRANCH  12  18
ATOM     18  S   UNL     1     -13.645  57.885  49.175  0.00  0.00    +0.000 S 
ATOM     19  O   UNL     1     -14.592  57.379  48.204  0.00  0.00    +0.000 OA
ATOM     20  O   UNL     1     -13.058  59.197  48.992  0.00  0.00    +0.000 OA
BRANCH  18  21
ATOM     21  C   UNL     1     -14.440  57.894  50.782  0.00  0.00    +0.000 A 
ATOM     22  C   UNL     1     -15.052  56.750  51.326  0.00  0.00    +0.000 A 
ATOM     23  C   UNL     1     -14.310  59.047  51.569  0.00  0.00    +0.000 A 
ATOM     24  C   UNL     1     -15.570  56.797  52.626  0.00  0.00    +0.000 A 
ATOM     25  C   UNL     1     -14.841  59.092  52.864  0.00  0.00    +0.000 A 
ATOM     26  C   UNL     1     -15.467  57.953  53.392  0.00  0.00    +0.000 A 
ENDBRANCH  18  21
ENDBRANCH  12  18
ENDBRANCH   1  15
BRANCH   3  27
ATOM     27  C   UNL     1     -12.090  52.296  47.879  0.00  0.00    +0.000 C 
ATOM     28  O   UNL     1     -12.908  51.571  47.323  0.00  0.00    +0.000 OA
BRANCH  27  29
ATOM     29  O   UNL     1     -12.104  52.612  49.198  0.00  0.00    +0.000 OA
BRANCH  29  30
ATOM     30  C   UNL     1     -11.692  51.599  50.111  0.00  0.00    +0.000 C 
ATOM     31  C   UNL     1     -10.399  52.010  50.781  0.00  0.00    +0.000 C 
ENDBRANCH  29  30
ENDBRANCH  27  29
ENDBRANCH   3  27
TORSDOF 6
ENDMDL
MODEL 9
REMARK VINA RESULT:      -6.7      3.644      8.155
REMARK  Name = 
REMARK  9 active torsions:
REMARK  status: ('A' for Active; 'I' for Inactive)
REMARK    1  A    between atoms: S_1  and  N_4
REMARK    2  A    between atoms: S_1  and  C_5
REMARK    3  A    between atoms: N_10  and  C_13
REMARK    4  A    between atoms: C_16  and  C_19
REMARK    5  A    between atoms: C_19  and  O_23
REMARK    6  A    between atoms: O_23  and  C_26
REMARK    7  A    between atoms: C_24  and  C_27
REMARK    8  A    between atoms: C_24  and  C_28
REMARK    9  A    between atoms: C_26  and  C_29
REMARK                            x       y       z     vdW  Elec       q    Type
REMARK                         _______ _______ _______ _____ _____    ______ ____
ROOT
ATOM      1  C   UNL     1      -8.654  54.873  47.292  0.00  0.00    +0.000 A 
ATOM      2  S   UNL     1      -7.432  54.049  46.426  0.00  0.00    +0.000 S 
ATOM      3  C   UNL     1      -9.918  54.592  46.804  0.00  0.00    +0.000 A 
ATOM      4  C   UNL     1      -8.580  53.139  45.530  0.00  0.00    +0.000 A 
ATOM      5  C   UNL     1      -9.876  53.503  45.853  0.00  0.00    +0.000 A 
ATOM      6  C   UNL     1      -8.220  52.075  44.500  0.00  0.00    +0.000 C 
ATOM      7  C   UNL     1     -11.067  52.887  45.176  0.00  0.00    +0.000 C 
ATOM      8  C   UNL     1      -9.434  51.766  43.551  0.00  0.00    +0.000 C 
ATOM      9  C   UNL     1     -10.716  51.620  44.405  0.00  0.00    +0.000 C 
ATOM     10  C   UNL     1      -9.262  50.438  42.786  0.00  0.00    +0.000 C 
ATOM     11  C   UNL     1      -9.592  52.885  42.501  0.00  0.00    +0.000 C 
ENDROOT
BRANCH   1  15
ATOM     12  N   UNL     1      -7.736  55.949  50.654  0.00  0.00    +0.000 N 
ATOM     13  C   UNL     1      -8.210  55.125  49.622  0.00  0.00    +0.000 C 
ATOM     14  O   UNL     1      -8.473  53.944  49.827  0.00  0.00    +0.000 OA
ATOM     15  N   UNL     1      -8.260  55.692  48.352  0.00  0.00    +0.000 N 
ATOM     16  H   UNL     1      -7.498  56.882  50.450  0.00  0.00    +0.000 HD
ATOM     17  H   UNL     1      -8.027  56.637  48.207  0.00  0.00    +0.000 HD
BRANCH  12  18
ATOM     18  S   UNL     1      -7.563  55.382  52.238  0.00  0.00    +0.000 S 
ATOM     19  O   UNL     1      -8.812  54.782  52.660  0.00  0.00    +0.000 OA
ATOM     20  O   UNL     1      -6.993  56.472  53.003  0.00  0.00    +0.000 OA
BRANCH  18  21
ATOM     21  C   UNL     1      -6.317  54.094  52.165  0.00  0.00    +0.000 A 
ATOM     22  C   UNL     1      -6.559  52.786  52.624  0.00  0.00    +0.000 A 
ATOM     23  C   UNL     1      -5.121  54.380  51.493  0.00  0.00    +0.000 A 
ATOM     24  C   UNL     1      -5.578  51.802  52.451  0.00  0.00    +0.000 A 
ATOM     25  C   UNL     1      -4.139  53.394  51.333  0.00  0.00    +0.000 A 
ATOM     26  C   UNL     1      -4.379  52.098  51.811  0.00  0.00    +0.000 A 
ENDBRANCH  18  21
ENDBRANCH  12  18
ENDBRANCH   1  15
BRANCH   3  27
ATOM     27  C   UNL     1     -11.109  55.336  47.204  0.00  0.00    +0.000 C 
ATOM     28  O   UNL     1     -11.726  56.083  46.453  0.00  0.00    +0.000 OA
BRANCH  27  29
ATOM     29  O   UNL     1     -11.439  55.091  48.497  0.00  0.00    +0.000 OA
BRANCH  29  30
ATOM     30  C   UNL     1     -11.749  56.218  49.311  0.00  0.00    +0.000 C 
ATOM     31  C   UNL     1     -11.701  55.823  50.771  0.00  0.00    +0.000 C 
ENDBRANCH  29  30
ENDBRANCH  27  29
ENDBRANCH   3  27
TORSDOF 6
ENDMDL
