MODEL 1
REMARK VINA RESULT:      -7.4      0.000      0.000
REMARK  Name = 
REMARK  11 active torsions:
REMARK  status: ('A' for Active; 'I' for Inactive)
REMARK    1  A    between atoms: S_1  and  N_4
REMARK    2  A    between atoms: S_1  and  C_5
REMARK    3  A    between atoms: C_7  and  O_11
REMARK    4  A    between atoms: N_10  and  C_14
REMARK    5  A    between atoms: O_11  and  C_15
REMARK    6  A    between atoms: C_18  and  C_24
REMARK    7  A    between atoms: C_24  and  O_28
REMARK    8  A    between atoms: O_28  and  C_31
REMARK    9  A    between atoms: C_29  and  C_32
REMARK   10  A    between atoms: C_29  and  C_33
REMARK   11  A    between atoms: C_31  and  C_34
REMARK                            x       y       z     vdW  Elec       q    Type
REMARK                         _______ _______ _______ _____ _____    ______ ____
ROOT
ATOM      1  N   UNL     1      -8.003  53.172  49.824  0.00  0.00    +0.000 N 
ATOM      2  C   UNL     1      -8.758  54.276  50.191  0.00  0.00    +0.000 C 
ATOM      3  O   UNL     1      -8.223  55.321  50.518  0.00  0.00    +0.000 OA
ATOM      4  N   UNL     1     -10.100  53.977  50.235  0.00  0.00    +0.000 N 
ATOM      5  H   UNL     1      -8.492  52.362  49.552  0.00  0.00    +0.000 HD
ATOM      6  H   UNL     1     -10.358  53.040  50.076  0.00  0.00    +0.000 HD
ENDROOT
BRANCH   4   7
ATOM      7  C   UNL     1     -11.125  54.886  50.485  0.00  0.00    +0.000 A 
ATOM      8  S   UNL     1     -11.596  55.199  52.088  0.00  0.00    +0.000 S 
ATOM      9  C   UNL     1     -11.813  55.670  49.564  0.00  0.00    +0.000 A 
ATOM     10  C   UNL     1     -12.706  56.381  51.618  0.00  0.00    +0.000 A 
ATOM     11  C   UNL     1     -12.705  56.589  50.253  0.00  0.00    +0.000 A 
ATOM     12  C   UNL     1     -13.542  57.117  52.626  0.00  0.00    +0.000 C 
ATOM     13  C   UNL     1     -13.582  57.640  49.631  0.00  0.00    +0.000 C 
ATOM     14  C   UNL     1     -14.696  57.897  51.936  0.00  0.00    +0.000 C 
ATOM     15  C   UNL     1     -14.149  58.610  50.673  0.00  0.00    +0.000 C 
ATOM     16  C   UNL     1     -15.246  58.965  52.893  0.00  0.00    +0.000 C 
ATOM     17  C   UNL     1     -15.846  56.936  51.572  0.00  0.00    +0.000 C 
BRANCH   9  18
ATOM     18  C   UNL     1     -11.633  55.567  48.109  0.00  0.00    +0.000 C 
ATOM     19  O   UNL     1     -12.562  55.364  47.334  0.00  0.00    +0.000 OA
BRANCH  18  20
ATOM     20  O   UNL     1     -10.329  55.700  47.742  0.00  0.00    +0.000 OA
BRANCH  20  21
ATOM     21  C   UNL     1      -9.832  54.951  46.627  0.00  0.00    +0.000 C 
ATOM     22  C   UNL     1      -8.320  55.055  46.576  0.00  0.00    +0.000 C 
ENDBRANCH  20  21
ENDBRANCH  18  20
ENDBRANCH   9  18
ENDBRANCH   4   7
BRANCH   1  23
ATOM     23  S   UNL     1      -6.335  53.099  49.806  0.00  0.00    +0.000 S 
ATOM     24  O   UNL     1      -5.817  54.089  48.906  0.00  0.00    +0.000 OA
ATOM     25  O   UNL     1      -6.102  51.684  49.602  0.00  0.00    +0.000 OA
BRANCH  23  26
ATOM     26  C   UNL     1      -5.792  53.471  51.472  0.00  0.00    +0.000 A 
ATOM     27  C   UNL     1      -6.449  52.942  52.598  0.00  0.00    +0.000 A 
ATOM     28  C   UNL     1      -4.622  54.230  51.648  0.00  0.00    +0.000 A 
ATOM     29  C   UNL     1      -5.890  53.150  53.871  0.00  0.00    +0.000 A 
ATOM     30  C   UNL     1      -4.063  54.401  52.914  0.00  0.00    +0.000 A 
ATOM     31  C   UNL     1      -4.698  53.864  54.028  0.00  0.00    +0.000 A 
BRANCH  27  32
ATOM     32  O   UNL     1      -7.456  52.021  52.540  0.00  0.00    +0.000 OA
BRANCH  32  33
ATOM     33  C   UNL     1      -8.642  52.311  53.275  0.00  0.00    +0.000 C 
ATOM     34  F   UNL     1      -8.845  53.627  53.436  0.00  0.00    +0.000 F 
ATOM     35  F   UNL     1      -9.692  51.796  52.599  0.00  0.00    +0.000 F 
ATOM     36  F   UNL     1      -8.604  51.731  54.494  0.00  0.00    +0.000 F 
ENDBRANCH  32  33
ENDBRANCH  27  32
ENDBRANCH  23  26
ENDBRANCH   1  23
TORSDOF 8
ENDMDL
MODEL 2
REMARK VINA RESULT:      -7.0      3.660      8.827
REMARK  Name = 
REMARK  11 active torsions:
REMARK  status: ('A' for Active; 'I' for Inactive)
REMARK    1  A    between atoms: S_1  and  N_4
REMARK    2  A    between atoms: S_1  and  C_5
REMARK    3  A    between atoms: C_7  and  O_11
REMARK    4  A    between atoms: N_10  and  C_14
REMARK    5  A    between atoms: O_11  and  C_15
REMARK    6  A    between atoms: C_18  and  C_24
REMARK    7  A    between atoms: C_24  and  O_28
REMARK    8  A    between atoms: O_28  and  C_31
REMARK    9  A    between atoms: C_29  and  C_32
REMARK   10  A    between atoms: C_29  and  C_33
REMARK   11  A    between atoms: C_31  and  C_34
REMARK                            x       y       z     vdW  Elec       q    Type
REMARK                         _______ _______ _______ _____ _____    ______ ____
ROOT
ATOM      1  N   UNL     1     -11.635  55.957  50.204  0.00  0.00    +0.000 N 
ATOM      2  C   UNL     1     -10.627  55.011  50.316  0.00  0.00    +0.000 C 
ATOM      3  O   UNL     1     -10.633  54.191  51.217  0.00  0.00    +0.000 OA
ATOM      4  N   UNL     1      -9.635  55.219  49.384  0.00  0.00    +0.000 N 
ATOM      5  H   UNL     1     -11.584  56.581  49.444  0.00  0.00    +0.000 HD
ATOM      6  H   UNL     1      -9.713  56.017  48.814  0.00  0.00    +0.000 HD
ENDROOT
BRANCH   4   7
ATOM      7  C   UNL     1      -8.531  54.395  49.180  0.00  0.00    +0.000 A 
ATOM      8  S   UNL     1      -8.608  53.165  48.008  0.00  0.00    +0.000 S 
ATOM      9  C   UNL     1      -7.279  54.481  49.781  0.00  0.00    +0.000 A 
ATOM     10  C   UNL     1      -6.998  52.720  48.251  0.00  0.00    +0.000 A 
ATOM     11  C   UNL     1      -6.366  53.520  49.182  0.00  0.00    +0.000 A 
ATOM     12  C   UNL     1      -6.370  51.596  47.476  0.00  0.00    +0.000 C 
ATOM     13  C   UNL     1      -4.910  53.329  49.505  0.00  0.00    +0.000 C 
ATOM     14  C   UNL     1      -5.012  51.174  48.103  0.00  0.00    +0.000 C 
ATOM     15  C   UNL     1      -4.202  52.442  48.475  0.00  0.00    +0.000 C 
ATOM     16  C   UNL     1      -4.197  50.364  47.082  0.00  0.00    +0.000 C 
ATOM     17  C   UNL     1      -5.249  50.288  49.343  0.00  0.00    +0.000 C 
BRANCH   9  18
ATOM     18  C   UNL     1      -6.955  55.427  50.859  0.00  0.00    +0.000 C 
ATOM     19  O   UNL     1      -7.040  56.644  50.727  0.00  0.00    +0.000 OA
BRANCH  18  20
ATOM     20  O   UNL     1      -6.537  54.795  51.989  0.00  0.00    +0.000 OA
BRANCH  20  21
ATOM     21  C   UNL     1      -7.503  54.382  52.963  0.00  0.00    +0.000 C 
ATOM     22  C   UNL     1      -7.576  55.411  54.076  0.00  0.00    +0.000 C 
ENDBRANCH  20  21
ENDBRANCH  18  20
ENDBRANCH   9  18
ENDBRANCH   4   7
BRANCH   1  23
ATOM     23  S   UNL     1     -12.927  56.127  51.248  0.00  0.00    +0.000 S 
ATOM     24  O   UNL     1     -12.457  56.112  52.604  0.00  0.00    +0.000 OA
ATOM     25  O   UNL     1     -13.847  55.127  50.746  0.00  0.00    +0.000 OA
BRANCH  23  26
ATOM     26  C   UNL     1     -13.662  57.721  50.893  0.00  0.00    +0.000 A 
ATOM     27  C   UNL     1     -13.507  58.344  49.640  0.00  0.00    +0.000 A 
ATOM     28  C   UNL     1     -14.495  58.312  51.859  0.00  0.00    +0.000 A 
ATOM     29  C   UNL     1     -14.226  59.521  49.372  0.00  0.00    +0.000 A 
ATOM     30  C   UNL     1     -15.226  59.462  51.567  0.00  0.00    +0.000 A 
ATOM     31  C   UNL     1     -15.091  60.071  50.324  0.00  0.00    +0.000 A 
BRANCH  27  32
ATOM     32  O   UNL     1     -12.905  57.761  48.561  0.00  0.00    +0.000 OA
BRANCH  32  33
ATOM     33  C   UNL     1     -13.761  57.203  47.566  0.00  0.00    +0.000 C 
ATOM     34  F   UNL     1     -13.155  56.259  46.830  0.00  0.00    +0.000 F 
ATOM     35  F   UNL     1     -14.821  56.645  48.189  0.00  0.00    +0.000 F 
ATOM     36  F   UNL     1     -14.221  58.164  46.736  0.00  0.00    +0.000 F 
ENDBRANCH  32  33
ENDBRANCH  27  32
ENDBRANCH  23  26
ENDBRANCH   1  23
TORSDOF 8
ENDMDL
MODEL 3
REMARK VINA RESULT:      -7.0      1.664      2.066
REMARK  Name = 
REMARK  11 active torsions:
REMARK  status: ('A' for Active; 'I' for Inactive)
REMARK    1  A    between atoms: S_1  and  N_4
REMARK    2  A    between atoms: S_1  and  C_5
REMARK    3  A    between atoms: C_7  and  O_11
REMARK    4  A    between atoms: N_10  and  C_14
REMARK    5  A    between atoms: O_11  and  C_15
REMARK    6  A    between atoms: C_18  and  C_24
REMARK    7  A    between atoms: C_24  and  O_28
REMARK    8  A    between atoms: O_28  and  C_31
REMARK    9  A    between atoms: C_29  and  C_32
REMARK   10  A    between atoms: C_29  and  C_33
REMARK   11  A    between atoms: C_31  and  C_34
REMARK                            x       y       z     vdW  Elec       q    Type
REMARK                         _______ _______ _______ _____ _____    ______ ____
ROOT
ATOM      1  N   UNL     1      -7.457  53.455  50.262  0.00  0.00    +0.000 N 
ATOM      2  C   UNL     1      -8.327  54.525  50.402  0.00  0.00    +0.000 C 
ATOM      3  O   UNL     1      -7.912  55.669  50.456  0.00  0.00    +0.000 OA
ATOM      4  N   UNL     1      -9.624  54.100  50.580  0.00  0.00    +0.000 N 
ATOM      5  H   UNL     1      -7.854  52.556  50.206  0.00  0.00    +0.000 HD
ATOM      6  H   UNL     1      -9.774  53.130  50.652  0.00  0.00    +0.000 HD
ENDROOT
BRANCH   4   7
ATOM      7  C   UNL     1     -10.743  54.926  50.664  0.00  0.00    +0.000 A 
ATOM      8  S   UNL     1     -11.410  55.280  52.187  0.00  0.00    +0.000 S 
ATOM      9  C   UNL     1     -11.389  55.595  49.629  0.00  0.00    +0.000 A 
ATOM     10  C   UNL     1     -12.558  56.330  51.531  0.00  0.00    +0.000 A 
ATOM     11  C   UNL     1     -12.425  56.466  50.163  0.00  0.00    +0.000 A 
ATOM     12  C   UNL     1     -13.557  57.041  52.399  0.00  0.00    +0.000 C 
ATOM     13  C   UNL     1     -13.313  57.399  49.390  0.00  0.00    +0.000 C 
ATOM     14  C   UNL     1     -14.690  57.676  51.545  0.00  0.00    +0.000 C 
ATOM     15  C   UNL     1     -14.070  58.368  50.304  0.00  0.00    +0.000 C 
ATOM     16  C   UNL     1     -15.429  58.740  52.372  0.00  0.00    +0.000 C 
ATOM     17  C   UNL     1     -15.709  56.598  51.124  0.00  0.00    +0.000 C 
BRANCH   9  18
ATOM     18  C   UNL     1     -11.043  55.432  48.210  0.00  0.00    +0.000 C 
ATOM     19  O   UNL     1      -9.982  55.822  47.733  0.00  0.00    +0.000 OA
BRANCH  18  20
ATOM     20  O   UNL     1     -12.037  54.826  47.505  0.00  0.00    +0.000 OA
BRANCH  20  21
ATOM     21  C   UNL     1     -11.796  53.548  46.906  0.00  0.00    +0.000 C 
ATOM     22  C   UNL     1     -11.713  53.698  45.399  0.00  0.00    +0.000 C 
ENDBRANCH  20  21
ENDBRANCH  18  20
ENDBRANCH   9  18
ENDBRANCH   4   7
BRANCH   1  23
ATOM     23  S   UNL     1      -5.792  53.562  50.180  0.00  0.00    +0.000 S 
ATOM     24  O   UNL     1      -5.386  54.926  50.362  0.00  0.00    +0.000 OA
ATOM     25  O   UNL     1      -5.508  52.835  48.960  0.00  0.00    +0.000 OA
BRANCH  23  26
ATOM     26  C   UNL     1      -5.152  52.568  51.526  0.00  0.00    +0.000 A 
ATOM     27  C   UNL     1      -5.610  52.730  52.847  0.00  0.00    +0.000 A 
ATOM     28  C   UNL     1      -4.242  51.538  51.232  0.00  0.00    +0.000 A 
ATOM     29  C   UNL     1      -5.179  51.826  53.832  0.00  0.00    +0.000 A 
ATOM     30  C   UNL     1      -3.848  50.630  52.214  0.00  0.00    +0.000 A 
ATOM     31  C   UNL     1      -4.313  50.774  53.516  0.00  0.00    +0.000 A 
BRANCH  27  32
ATOM     32  O   UNL     1      -6.646  53.545  53.207  0.00  0.00    +0.000 OA
BRANCH  32  33
ATOM     33  C   UNL     1      -6.311  54.758  53.878  0.00  0.00    +0.000 C 
ATOM     34  F   UNL     1      -5.094  55.216  53.548  0.00  0.00    +0.000 F 
ATOM     35  F   UNL     1      -7.226  55.692  53.539  0.00  0.00    +0.000 F 
ATOM     36  F   UNL     1      -6.358  54.594  55.218  0.00  0.00    +0.000 F 
ENDBRANCH  32  33
ENDBRANCH  27  32
ENDBRANCH  23  26
ENDBRANCH   1  23
TORSDOF 8
ENDMDL
MODEL 4
REMARK VINA RESULT:      -7.0      2.848      6.274
REMARK  Name = 
REMARK  11 active torsions:
REMARK  status: ('A' for Active; 'I' for Inactive)
REMARK    1  A    between atoms: S_1  and  N_4
REMARK    2  A    between atoms: S_1  and  C_5
REMARK    3  A    between atoms: C_7  and  O_11
REMARK    4  A    between atoms: N_10  and  C_14
REMARK    5  A    between atoms: O_11  and  C_15
REMARK    6  A    between atoms: C_18  and  C_24
REMARK    7  A    between atoms: C_24  and  O_28
REMARK    8  A    between atoms: O_28  and  C_31
REMARK    9  A    between atoms: C_29  and  C_32
REMARK   10  A    between atoms: C_29  and  C_33
REMARK   11  A    between atoms: C_31  and  C_34
REMARK                            x       y       z     vdW  Elec       q    Type
REMARK                         _______ _______ _______ _____ _____    ______ ____
ROOT
ATOM      1  N   UNL     1      -9.703  54.234  51.305  0.00  0.00    +0.000 N 
ATOM      2  C   UNL     1      -9.856  53.483  50.149  0.00  0.00    +0.000 C 
ATOM      3  O   UNL     1     -10.357  52.372  50.184  0.00  0.00    +0.000 OA
ATOM      4  N   UNL     1      -9.282  54.105  49.064  0.00  0.00    +0.000 N 
ATOM      5  H   UNL     1      -9.309  55.130  51.210  0.00  0.00    +0.000 HD
ATOM      6  H   UNL     1      -8.791  54.940  49.233  0.00  0.00    +0.000 HD
ENDROOT
BRANCH   4   7
ATOM      7  C   UNL     1      -9.338  53.653  47.748  0.00  0.00    +0.000 A 
ATOM      8  S   UNL     1      -8.156  52.570  47.182  0.00  0.00    +0.000 S 
ATOM      9  C   UNL     1     -10.316  53.922  46.795  0.00  0.00    +0.000 A 
ATOM     10  C   UNL     1      -8.902  52.416  45.675  0.00  0.00    +0.000 A 
ATOM     11  C   UNL     1     -10.075  53.139  45.593  0.00  0.00    +0.000 A 
ATOM     12  C   UNL     1      -8.324  51.539  44.601  0.00  0.00    +0.000 C 
ATOM     13  C   UNL     1     -10.925  53.094  44.354  0.00  0.00    +0.000 C 
ATOM     14  C   UNL     1      -8.996  51.819  43.227  0.00  0.00    +0.000 C 
ATOM     15  C   UNL     1     -10.528  51.945  43.422  0.00  0.00    +0.000 C 
ATOM     16  C   UNL     1      -8.726  50.648  42.269  0.00  0.00    +0.000 C 
ATOM     17  C   UNL     1      -8.413  53.101  42.600  0.00  0.00    +0.000 C 
BRANCH   9  18
ATOM     18  C   UNL     1     -11.427  54.860  47.008  0.00  0.00    +0.000 C 
ATOM     19  O   UNL     1     -11.664  55.797  46.253  0.00  0.00    +0.000 OA
BRANCH  18  20
ATOM     20  O   UNL     1     -12.131  54.575  48.138  0.00  0.00    +0.000 OA
BRANCH  20  21
ATOM     21  C   UNL     1     -12.920  55.600  48.753  0.00  0.00    +0.000 C 
ATOM     22  C   UNL     1     -12.039  56.460  49.638  0.00  0.00    +0.000 C 
ENDBRANCH  20  21
ENDBRANCH  18  20
ENDBRANCH   9  18
ENDBRANCH   4   7
BRANCH   1  23
ATOM     23  S   UNL     1     -10.129  53.745  52.844  0.00  0.00    +0.000 S 
ATOM     24  O   UNL     1     -11.239  52.837  52.773  0.00  0.00    +0.000 OA
ATOM     25  O   UNL     1     -10.221  55.010  53.542  0.00  0.00    +0.000 OA
BRANCH  23  26
ATOM     26  C   UNL     1      -8.707  52.891  53.519  0.00  0.00    +0.000 A 
ATOM     27  C   UNL     1      -7.399  53.374  53.333  0.00  0.00    +0.000 A 
ATOM     28  C   UNL     1      -8.918  51.766  54.335  0.00  0.00    +0.000 A 
ATOM     29  C   UNL     1      -6.339  52.745  54.008  0.00  0.00    +0.000 A 
ATOM     30  C   UNL     1      -7.861  51.172  55.022  0.00  0.00    +0.000 A 
ATOM     31  C   UNL     1      -6.568  51.658  54.857  0.00  0.00    +0.000 A 
BRANCH  27  32
ATOM     32  O   UNL     1      -7.096  54.571  52.747  0.00  0.00    +0.000 OA
BRANCH  32  33
ATOM     33  C   UNL     1      -6.790  55.658  53.617  0.00  0.00    +0.000 C 
ATOM     34  F   UNL     1      -5.492  55.705  53.953  0.00  0.00    +0.000 F 
ATOM     35  F   UNL     1      -7.109  56.807  52.982  0.00  0.00    +0.000 F 
ATOM     36  F   UNL     1      -7.523  55.589  54.749  0.00  0.00    +0.000 F 
ENDBRANCH  32  33
ENDBRANCH  27  32
ENDBRANCH  23  26
ENDBRANCH   1  23
TORSDOF 8
ENDMDL
MODEL 5
REMARK VINA RESULT:      -6.9      3.911      5.303
REMARK  Name = 
REMARK  11 active torsions:
REMARK  status: ('A' for Active; 'I' for Inactive)
REMARK    1  A    between atoms: S_1  and  N_4
REMARK    2  A    between atoms: S_1  and  C_5
REMARK    3  A    between atoms: C_7  and  O_11
REMARK    4  A    between atoms: N_10  and  C_14
REMARK    5  A    between atoms: O_11  and  C_15
REMARK    6  A    between atoms: C_18  and  C_24
REMARK    7  A    between atoms: C_24  and  O_28
REMARK    8  A    between atoms: O_28  and  C_31
REMARK    9  A    between atoms: C_29  and  C_32
REMARK   10  A    between atoms: C_29  and  C_33
REMARK   11  A    between atoms: C_31  and  C_34
REMARK                            x       y       z     vdW  Elec       q    Type
REMARK                         _______ _______ _______ _____ _____    ______ ____
ROOT
ATOM      1  N   UNL     1      -8.803  52.373  48.649  0.00  0.00    +0.000 N 
ATOM      2  C   UNL     1     -10.061  52.895  48.909  0.00  0.00    +0.000 C 
ATOM      3  O   UNL     1     -11.067  52.237  48.708  0.00  0.00    +0.000 OA
ATOM      4  N   UNL     1      -9.991  54.217  49.287  0.00  0.00    +0.000 N 
ATOM      5  H   UNL     1      -8.028  52.946  48.850  0.00  0.00    +0.000 HD
ATOM      6  H   UNL     1      -9.105  54.644  49.266  0.00  0.00    +0.000 HD
ENDROOT
BRANCH   4   7
ATOM      7  C   UNL     1     -11.067  55.000  49.697  0.00  0.00    +0.000 A 
ATOM      8  S   UNL     1     -11.344  55.239  51.358  0.00  0.00    +0.000 S 
ATOM      9  C   UNL     1     -11.958  55.711  48.899  0.00  0.00    +0.000 A 
ATOM     10  C   UNL     1     -12.634  56.291  51.074  0.00  0.00    +0.000 A 
ATOM     11  C   UNL     1     -12.844  56.514  49.727  0.00  0.00    +0.000 A 
ATOM     12  C   UNL     1     -13.400  56.916  52.206  0.00  0.00    +0.000 C 
ATOM     13  C   UNL     1     -13.910  57.465  49.259  0.00  0.00    +0.000 C 
ATOM     14  C   UNL     1     -14.717  57.566  51.699  0.00  0.00    +0.000 C 
ATOM     15  C   UNL     1     -14.433  58.352  50.393  0.00  0.00    +0.000 C 
ATOM     16  C   UNL     1     -15.247  58.554  52.750  0.00  0.00    +0.000 C 
ATOM     17  C   UNL     1     -15.792  56.484  51.468  0.00  0.00    +0.000 C 
BRANCH   9  18
ATOM     18  C   UNL     1     -11.969  55.645  47.431  0.00  0.00    +0.000 C 
ATOM     19  O   UNL     1     -11.860  56.638  46.718  0.00  0.00    +0.000 OA
BRANCH  18  20
ATOM     20  O   UNL     1     -12.135  54.374  46.975  0.00  0.00    +0.000 OA
BRANCH  20  21
ATOM     21  C   UNL     1     -11.817  54.068  45.612  0.00  0.00    +0.000 C 
ATOM     22  C   UNL     1     -12.070  52.597  45.347  0.00  0.00    +0.000 C 
ENDBRANCH  20  21
ENDBRANCH  18  20
ENDBRANCH   9  18
ENDBRANCH   4   7
BRANCH   1  23
ATOM     23  S   UNL     1      -8.491  50.857  48.024  0.00  0.00    +0.000 S 
ATOM     24  O   UNL     1      -9.402  49.903  48.590  0.00  0.00    +0.000 OA
ATOM     25  O   UNL     1      -7.058  50.749  48.210  0.00  0.00    +0.000 OA
BRANCH  23  26
ATOM     26  C   UNL     1      -8.770  50.967  46.259  0.00  0.00    +0.000 A 
ATOM     27  C   UNL     1      -8.199  51.993  45.483  0.00  0.00    +0.000 A 
ATOM     28  C   UNL     1      -9.498  49.945  45.624  0.00  0.00    +0.000 A 
ATOM     29  C   UNL     1      -8.333  51.944  44.085  0.00  0.00    +0.000 A 
ATOM     30  C   UNL     1      -9.595  49.893  44.234  0.00  0.00    +0.000 A 
ATOM     31  C   UNL     1      -9.016  50.894  43.462  0.00  0.00    +0.000 A 
BRANCH  27  32
ATOM     32  O   UNL     1      -7.301  52.907  45.957  0.00  0.00    +0.000 OA
BRANCH  32  33
ATOM     33  C   UNL     1      -7.717  54.270  45.982  0.00  0.00    +0.000 C 
ATOM     34  F   UNL     1      -7.384  54.935  44.865  0.00  0.00    +0.000 F 
ATOM     35  F   UNL     1      -9.061  54.298  46.112  0.00  0.00    +0.000 F 
ATOM     36  F   UNL     1      -7.181  54.916  47.040  0.00  0.00    +0.000 F 
ENDBRANCH  32  33
ENDBRANCH  27  32
ENDBRANCH  23  26
ENDBRANCH   1  23
TORSDOF 8
ENDMDL
MODEL 6
REMARK VINA RESULT:      -6.9      3.961      8.476
REMARK  Name = 
REMARK  11 active torsions:
REMARK  status: ('A' for Active; 'I' for Inactive)
REMARK    1  A    between atoms: S_1  and  N_4
REMARK    2  A    between atoms: S_1  and  C_5
REMARK    3  A    between atoms: C_7  and  O_11
REMARK    4  A    between atoms: N_10  and  C_14
REMARK    5  A    between atoms: O_11  and  C_15
REMARK    6  A    between atoms: C_18  and  C_24
REMARK    7  A    between atoms: C_24  and  O_28
REMARK    8  A    between atoms: O_28  and  C_31
REMARK    9  A    between atoms: C_29  and  C_32
REMARK   10  A    between atoms: C_29  and  C_33
REMARK   11  A    between atoms: C_31  and  C_34
REMARK                            x       y       z     vdW  Elec       q    Type
REMARK                         _______ _______ _______ _____ _____    ______ ____
ROOT
ATOM      1  N   UNL     1     -11.858  55.624  50.082  0.00  0.00    +0.000 N 
ATOM      2  C   UNL     1     -11.538  54.480  49.365  0.00  0.00    +0.000 C 
ATOM      3  O   UNL     1     -11.878  53.378  49.757  0.00  0.00    +0.000 OA
ATOM      4  N   UNL     1     -10.731  54.770  48.288  0.00  0.00    +0.000 N 
ATOM      5  H   UNL     1     -11.571  56.486  49.705  0.00  0.00    +0.000 HD
ATOM      6  H   UNL     1     -10.429  55.701  48.190  0.00  0.00    +0.000 HD
ENDROOT
BRANCH   4   7
ATOM      7  C   UNL     1     -10.306  53.858  47.326  0.00  0.00    +0.000 A 
ATOM      8  S   UNL     1     -11.153  53.735  45.856  0.00  0.00    +0.000 S 
ATOM      9  C   UNL     1      -9.186  53.033  47.367  0.00  0.00    +0.000 A 
ATOM     10  C   UNL     1     -10.065  52.605  45.230  0.00  0.00    +0.000 A 
ATOM     11  C   UNL     1      -9.025  52.340  46.099  0.00  0.00    +0.000 A 
ATOM     12  C   UNL     1     -10.243  52.023  43.856  0.00  0.00    +0.000 C 
ATOM     13  C   UNL     1      -7.915  51.402  45.712  0.00  0.00    +0.000 C 
ATOM     14  C   UNL     1      -9.322  50.789  43.647  0.00  0.00    +0.000 C 
ATOM     15  C   UNL     1      -7.911  51.100  44.210  0.00  0.00    +0.000 C 
ATOM     16  C   UNL     1      -9.187  50.491  42.145  0.00  0.00    +0.000 C 
ATOM     17  C   UNL     1      -9.928  49.548  44.333  0.00  0.00    +0.000 C 
BRANCH   9  18
ATOM     18  C   UNL     1      -8.306  52.911  48.538  0.00  0.00    +0.000 C 
ATOM     19  O   UNL     1      -8.249  51.898  49.228  0.00  0.00    +0.000 OA
BRANCH  18  20
ATOM     20  O   UNL     1      -7.594  54.049  48.766  0.00  0.00    +0.000 OA
BRANCH  20  21
ATOM     21  C   UNL     1      -6.503  54.382  47.900  0.00  0.00    +0.000 C 
ATOM     22  C   UNL     1      -5.195  53.964  48.545  0.00  0.00    +0.000 C 
ENDBRANCH  20  21
ENDBRANCH  18  20
ENDBRANCH   9  18
ENDBRANCH   4   7
BRANCH   1  23
ATOM     23  S   UNL     1     -12.688  55.660  51.531  0.00  0.00    +0.000 S 
ATOM     24  O   UNL     1     -11.755  55.707  52.621  0.00  0.00    +0.000 OA
ATOM     25  O   UNL     1     -13.619  54.562  51.367  0.00  0.00    +0.000 OA
BRANCH  23  26
ATOM     26  C   UNL     1     -13.663  57.162  51.521  0.00  0.00    +0.000 A 
ATOM     27  C   UNL     1     -14.304  57.619  50.355  0.00  0.00    +0.000 A 
ATOM     28  C   UNL     1     -13.869  57.842  52.734  0.00  0.00    +0.000 A 
ATOM     29  C   UNL     1     -15.173  58.721  50.443  0.00  0.00    +0.000 A 
ATOM     30  C   UNL     1     -14.758  58.914  52.812  0.00  0.00    +0.000 A 
ATOM     31  C   UNL     1     -15.409  59.357  51.666  0.00  0.00    +0.000 A 
BRANCH  27  32
ATOM     32  O   UNL     1     -14.352  56.923  49.180  0.00  0.00    +0.000 OA
BRANCH  32  33
ATOM     33  C   UNL     1     -13.696  57.504  48.056  0.00  0.00    +0.000 C 
ATOM     34  F   UNL     1     -14.509  58.275  47.320  0.00  0.00    +0.000 F 
ATOM     35  F   UNL     1     -12.679  58.267  48.511  0.00  0.00    +0.000 F 
ATOM     36  F   UNL     1     -13.175  56.547  47.258  0.00  0.00    +0.000 F 
ENDBRANCH  32  33
ENDBRANCH  27  32
ENDBRANCH  23  26
ENDBRANCH   1  23
TORSDOF 8
ENDMDL
MODEL 7
REMARK VINA RESULT:      -6.8      2.875      6.171
REMARK  Name = 
REMARK  11 active torsions:
REMARK  status: ('A' for Active; 'I' for Inactive)
REMARK    1  A    between atoms: S_1  and  N_4
REMARK    2  A    between atoms: S_1  and  C_5
REMARK    3  A    between atoms: C_7  and  O_11
REMARK    4  A    between atoms: N_10  and  C_14
REMARK    5  A    between atoms: O_11  and  C_15
REMARK    6  A    between atoms: C_18  and  C_24
REMARK    7  A    between atoms: C_24  and  O_28
REMARK    8  A    between atoms: O_28  and  C_31
REMARK    9  A    between atoms: C_29  and  C_32
REMARK   10  A    between atoms: C_29  and  C_33
REMARK   11  A    between atoms: C_31  and  C_34
REMARK                            x       y       z     vdW  Elec       q    Type
REMARK                         _______ _______ _______ _____ _____    ______ ____
ROOT
ATOM      1  N   UNL     1      -7.728  55.376  50.690  0.00  0.00    +0.000 N 
ATOM      2  C   UNL     1      -7.932  54.368  49.759  0.00  0.00    +0.000 C 
ATOM      3  O   UNL     1      -7.662  53.209  50.020  0.00  0.00    +0.000 OA
ATOM      4  N   UNL     1      -8.344  54.876  48.548  0.00  0.00    +0.000 N 
ATOM      5  H   UNL     1      -7.983  56.290  50.427  0.00  0.00    +0.000 HD
ATOM      6  H   UNL     1      -8.380  55.855  48.460  0.00  0.00    +0.000 HD
ENDROOT
BRANCH   4   7
ATOM      7  C   UNL     1      -8.715  54.122  47.438  0.00  0.00    +0.000 A 
ATOM      8  S   UNL     1      -7.513  53.419  46.463  0.00  0.00    +0.000 S 
ATOM      9  C   UNL     1     -10.001  53.785  47.026  0.00  0.00    +0.000 A 
ATOM     10  C   UNL     1      -8.648  52.644  45.481  0.00  0.00    +0.000 A 
ATOM     11  C   UNL     1      -9.944  52.866  45.901  0.00  0.00    +0.000 A 
ATOM     12  C   UNL     1      -8.226  51.788  44.320  0.00  0.00    +0.000 C 
ATOM     13  C   UNL     1     -11.105  52.220  45.197  0.00  0.00    +0.000 C 
ATOM     14  C   UNL     1      -9.432  51.465  43.395  0.00  0.00    +0.000 C 
ATOM     15  C   UNL     1     -10.659  51.089  44.264  0.00  0.00    +0.000 C 
ATOM     16  C   UNL     1      -9.091  50.265  42.497  0.00  0.00    +0.000 C 
ATOM     17  C   UNL     1      -9.747  52.672  42.488  0.00  0.00    +0.000 C 
BRANCH   9  18
ATOM     18  C   UNL     1     -11.222  54.296  47.665  0.00  0.00    +0.000 C 
ATOM     19  O   UNL     1     -12.049  53.566  48.204  0.00  0.00    +0.000 OA
BRANCH  18  20
ATOM     20  O   UNL     1     -11.327  55.649  47.566  0.00  0.00    +0.000 OA
BRANCH  20  21
ATOM     21  C   UNL     1     -12.592  56.235  47.240  0.00  0.00    +0.000 C 
ATOM     22  C   UNL     1     -13.166  56.925  48.463  0.00  0.00    +0.000 C 
ENDBRANCH  20  21
ENDBRANCH  18  20
ENDBRANCH   9  18
ENDBRANCH   4   7
BRANCH   1  23
ATOM     23  S   UNL     1      -7.084  55.171  52.217  0.00  0.00    +0.000 S 
ATOM     24  O   UNL     1      -7.131  56.415  52.932  0.00  0.00    +0.000 OA
ATOM     25  O   UNL     1      -5.832  54.505  51.924  0.00  0.00    +0.000 OA
BRANCH  23  26
ATOM     26  C   UNL     1      -8.120  53.970  53.048  0.00  0.00    +0.000 A 
ATOM     27  C   UNL     1      -9.501  54.177  53.219  0.00  0.00    +0.000 A 
ATOM     28  C   UNL     1      -7.550  52.749  53.450  0.00  0.00    +0.000 A 
ATOM     29  C   UNL     1     -10.285  53.137  53.748  0.00  0.00    +0.000 A 
ATOM     30  C   UNL     1      -8.345  51.716  53.943  0.00  0.00    +0.000 A 
ATOM     31  C   UNL     1      -9.714  51.909  54.096  0.00  0.00    +0.000 A 
BRANCH  27  32
ATOM     32  O   UNL     1     -10.195  55.222  52.677  0.00  0.00    +0.000 OA
BRANCH  32  33
ATOM     33  C   UNL     1     -11.060  54.926  51.583  0.00  0.00    +0.000 C 
ATOM     34  F   UNL     1     -12.356  54.927  51.929  0.00  0.00    +0.000 F 
ATOM     35  F   UNL     1     -10.870  55.865  50.631  0.00  0.00    +0.000 F 
ATOM     36  F   UNL     1     -10.761  53.722  51.048  0.00  0.00    +0.000 F 
ENDBRANCH  32  33
ENDBRANCH  27  32
ENDBRANCH  23  26
ENDBRANCH   1  23
TORSDOF 8
ENDMDL
MODEL 8
REMARK VINA RESULT:      -6.7      1.876      2.404
REMARK  Name = 
REMARK  11 active torsions:
REMARK  status: ('A' for Active; 'I' for Inactive)
REMARK    1  A    between atoms: S_1  and  N_4
REMARK    2  A    between atoms: S_1  and  C_5
REMARK    3  A    between atoms: C_7  and  O_11
REMARK    4  A    between atoms: N_10  and  C_14
REMARK    5  A    between atoms: O_11  and  C_15
REMARK    6  A    between atoms: C_18  and  C_24
REMARK    7  A    between atoms: C_24  and  O_28
REMARK    8  A    between atoms: O_28  and  C_31
REMARK    9  A    between atoms: C_29  and  C_32
REMARK   10  A    between atoms: C_29  and  C_33
REMARK   11  A    between atoms: C_31  and  C_34
REMARK                            x       y       z     vdW  Elec       q    Type
REMARK                         _______ _______ _______ _____ _____    ______ ____
ROOT
ATOM      1  N   UNL     1      -8.231  53.174  49.193  0.00  0.00    +0.000 N 
ATOM      2  C   UNL     1      -9.003  54.293  49.470  0.00  0.00    +0.000 C 
ATOM      3  O   UNL     1      -8.545  55.416  49.355  0.00  0.00    +0.000 OA
ATOM      4  N   UNL     1     -10.236  53.943  49.973  0.00  0.00    +0.000 N 
ATOM      5  H   UNL     1      -8.664  52.295  49.287  0.00  0.00    +0.000 HD
ATOM      6  H   UNL     1     -10.400  52.987  50.137  0.00  0.00    +0.000 HD
ENDROOT
BRANCH   4   7
ATOM      7  C   UNL     1     -11.270  54.827  50.269  0.00  0.00    +0.000 A 
ATOM      8  S   UNL     1     -11.555  55.274  51.884  0.00  0.00    +0.000 S 
ATOM      9  C   UNL     1     -12.110  55.488  49.376  0.00  0.00    +0.000 A 
ATOM     10  C   UNL     1     -12.779  56.355  51.455  0.00  0.00    +0.000 A 
ATOM     11  C   UNL     1     -12.959  56.430  50.088  0.00  0.00    +0.000 A 
ATOM     12  C   UNL     1     -13.522  57.149  52.492  0.00  0.00    +0.000 C 
ATOM     13  C   UNL     1     -13.963  57.376  49.492  0.00  0.00    +0.000 C 
ATOM     14  C   UNL     1     -14.794  57.807  51.888  0.00  0.00    +0.000 C 
ATOM     15  C   UNL     1     -14.449  58.417  50.505  0.00  0.00    +0.000 C 
ATOM     16  C   UNL     1     -15.280  58.939  52.807  0.00  0.00    +0.000 C 
ATOM     17  C   UNL     1     -15.926  56.766  51.764  0.00  0.00    +0.000 C 
BRANCH   9  18
ATOM     18  C   UNL     1     -12.106  55.251  47.926  0.00  0.00    +0.000 C 
ATOM     19  O   UNL     1     -12.128  56.159  47.101  0.00  0.00    +0.000 OA
BRANCH  18  20
ATOM     20  O   UNL     1     -12.097  53.924  47.621  0.00  0.00    +0.000 OA
BRANCH  20  21
ATOM     21  C   UNL     1     -11.241  53.448  46.576  0.00  0.00    +0.000 C 
ATOM     22  C   UNL     1     -12.079  52.828  45.474  0.00  0.00    +0.000 C 
ENDBRANCH  20  21
ENDBRANCH  18  20
ENDBRANCH   9  18
ENDBRANCH   4   7
BRANCH   1  23
ATOM     23  S   UNL     1      -6.632  53.193  48.715  0.00  0.00    +0.000 S 
ATOM     24  O   UNL     1      -6.115  54.529  48.807  0.00  0.00    +0.000 OA
ATOM     25  O   UNL     1      -6.690  52.480  47.455  0.00  0.00    +0.000 OA
BRANCH  23  26
ATOM     26  C   UNL     1      -5.747  52.136  49.858  0.00  0.00    +0.000 A 
ATOM     27  C   UNL     1      -5.827  52.323  51.251  0.00  0.00    +0.000 A 
ATOM     28  C   UNL     1      -5.036  51.035  49.350  0.00  0.00    +0.000 A 
ATOM     29  C   UNL     1      -5.230  51.376  52.100  0.00  0.00    +0.000 A 
ATOM     30  C   UNL     1      -4.477  50.087  50.205  0.00  0.00    +0.000 A 
ATOM     31  C   UNL     1      -4.569  50.257  51.582  0.00  0.00    +0.000 A 
BRANCH  27  32
ATOM     32  O   UNL     1      -6.658  53.220  51.860  0.00  0.00    +0.000 OA
BRANCH  32  33
ATOM     33  C   UNL     1      -6.070  54.426  52.339  0.00  0.00    +0.000 C 
ATOM     34  F   UNL     1      -5.925  54.440  53.673  0.00  0.00    +0.000 F 
ATOM     35  F   UNL     1      -4.849  54.552  51.775  0.00  0.00    +0.000 F 
ATOM     36  F   UNL     1      -6.809  55.497  51.977  0.00  0.00    +0.000 F 
ENDBRANCH  32  33
ENDBRANCH  27  32
ENDBRANCH  23  26
ENDBRANCH   1  23
TORSDOF 8
ENDMDL
MODEL 9
REMARK VINA RESULT:      -6.7      3.657      7.486
REMARK  Name = 
REMARK  11 active torsions:
REMARK  status: ('A' for Active; 'I' for Inactive)
REMARK    1  A    between atoms: S_1  and  N_4
REMARK    2  A    between atoms: S_1  and  C_5
REMARK    3  A    between atoms: C_7  and  O_11
REMARK    4  A    between atoms: N_10  and  C_14
REMARK    5  A    between atoms: O_11  and  C_15
REMARK    6  A    between atoms: C_18  and  C_24
REMARK    7  A    between atoms: C_24  and  O_28
REMARK    8  A    between atoms: O_28  and  C_31
REMARK    9  A    between atoms: C_29  and  C_32
REMARK   10  A    between atoms: C_29  and  C_33
REMARK   11  A    between atoms: C_31  and  C_34
REMARK                            x       y       z     vdW  Elec       q    Type
REMARK                         _______ _______ _______ _____ _____    ______ ____
ROOT
ATOM      1  N   UNL     1      -7.965  53.409  45.559  0.00  0.00    +0.000 N 
ATOM      2  C   UNL     1      -7.789  53.217  46.921  0.00  0.00    +0.000 C 
ATOM      3  O   UNL     1      -8.031  52.142  47.441  0.00  0.00    +0.000 OA
ATOM      4  N   UNL     1      -7.438  54.389  47.554  0.00  0.00    +0.000 N 
ATOM      5  H   UNL     1      -7.735  54.294  45.195  0.00  0.00    +0.000 HD
ATOM      6  H   UNL     1      -7.419  55.207  47.007  0.00  0.00    +0.000 HD
ENDROOT
BRANCH   4   7
ATOM      7  C   UNL     1      -7.107  54.514  48.900  0.00  0.00    +0.000 A 
ATOM      8  S   UNL     1      -5.548  54.082  49.424  0.00  0.00    +0.000 S 
ATOM      9  C   UNL     1      -7.889  55.037  49.926  0.00  0.00    +0.000 A 
ATOM     10  C   UNL     1      -5.854  54.578  51.009  0.00  0.00    +0.000 A 
ATOM     11  C   UNL     1      -7.116  55.120  51.155  0.00  0.00    +0.000 A 
ATOM     12  C   UNL     1      -4.811  54.457  52.083  0.00  0.00    +0.000 C 
ATOM     13  C   UNL     1      -7.569  55.676  52.477  0.00  0.00    +0.000 C 
ATOM     14  C   UNL     1      -5.432  54.667  53.493  0.00  0.00    +0.000 C 
ATOM     15  C   UNL     1      -6.403  55.874  53.451  0.00  0.00    +0.000 C 
ATOM     16  C   UNL     1      -4.321  54.977  54.509  0.00  0.00    +0.000 C 
ATOM     17  C   UNL     1      -6.162  53.388  53.951  0.00  0.00    +0.000 C 
BRANCH   9  18
ATOM     18  C   UNL     1      -9.290  55.446  49.756  0.00  0.00    +0.000 C 
ATOM     19  O   UNL     1      -9.621  56.457  49.144  0.00  0.00    +0.000 OA
BRANCH  18  20
ATOM     20  O   UNL     1     -10.154  54.591  50.369  0.00  0.00    +0.000 OA
BRANCH  20  21
ATOM     21  C   UNL     1     -11.406  55.086  50.858  0.00  0.00    +0.000 C 
ATOM     22  C   UNL     1     -11.311  55.324  52.353  0.00  0.00    +0.000 C 
ENDBRANCH  20  21
ENDBRANCH  18  20
ENDBRANCH   9  18
ENDBRANCH   4   7
BRANCH   1  23
ATOM     23  S   UNL     1      -8.537  52.265  44.485  0.00  0.00    +0.000 S 
ATOM     24  O   UNL     1      -7.583  51.200  44.359  0.00  0.00    +0.000 OA
ATOM     25  O   UNL     1      -8.919  53.086  43.354  0.00  0.00    +0.000 OA
BRANCH  23  26
ATOM     26  C   UNL     1     -10.055  51.623  45.185  0.00  0.00    +0.000 A 
ATOM     27  C   UNL     1     -11.131  52.467  45.518  0.00  0.00    +0.000 A 
ATOM     28  C   UNL     1     -10.205  50.231  45.313  0.00  0.00    +0.000 A 
ATOM     29  C   UNL     1     -12.346  51.892  45.926  0.00  0.00    +0.000 A 
ATOM     30  C   UNL     1     -11.426  49.674  45.688  0.00  0.00    +0.000 A 
ATOM     31  C   UNL     1     -12.498  50.503  45.999  0.00  0.00    +0.000 A 
BRANCH  27  32
ATOM     32  O   UNL     1     -11.177  53.803  45.233  0.00  0.00    +0.000 OA
BRANCH  32  33
ATOM     33  C   UNL     1     -11.225  54.699  46.341  0.00  0.00    +0.000 C 
ATOM     34  F   UNL     1     -11.168  54.068  47.523  0.00  0.00    +0.000 F 
ATOM     35  F   UNL     1     -10.169  55.536  46.251  0.00  0.00    +0.000 F 
ATOM     36  F   UNL     1     -12.352  55.443  46.307  0.00  0.00    +0.000 F 
ENDBRANCH  32  33
ENDBRANCH  27  32
ENDBRANCH  23  26
ENDBRANCH   1  23
TORSDOF 8
ENDMDL
