MODEL 1
REMARK VINA RESULT:      -7.5      0.000      0.000
REMARK  Name = 
REMARK  9 active torsions:
REMARK  status: ('A' for Active; 'I' for Inactive)
REMARK    1  A    between atoms: S_1  and  N_4
REMARK    2  A    between atoms: S_1  and  C_5
REMARK    3  A    between atoms: N_10  and  C_13
REMARK    4  A    between atoms: C_14  and  C_17
REMARK    5  A    between atoms: C_16  and  C_20
REMARK    6  A    between atoms: C_20  and  O_24
REMARK    7  A    between atoms: O_24  and  C_27
REMARK    8  A    between atoms: C_25  and  C_28
REMARK    9  A    between atoms: C_27  and  C_29
REMARK                            x       y       z     vdW  Elec       q    Type
REMARK                         _______ _______ _______ _____ _____    ______ ____
ROOT
ATOM      1  N   UNL     1     -10.489  56.058  48.403  0.00  0.00    +0.000 N 
ATOM      2  C   UNL     1      -9.613  55.501  49.330  0.00  0.00    +0.000 C 
ATOM      3  O   UNL     1      -9.967  54.605  50.085  0.00  0.00    +0.000 OA
ATOM      4  N   UNL     1      -8.378  56.115  49.383  0.00  0.00    +0.000 N 
ATOM      5  H   UNL     1     -10.149  56.772  47.818  0.00  0.00    +0.000 HD
ATOM      6  H   UNL     1      -8.141  56.839  48.759  0.00  0.00    +0.000 HD
ENDROOT
BRANCH   4   7
ATOM      7  C   UNL     1      -7.481  55.674  50.349  0.00  0.00    +0.000 A 
ATOM      8  S   UNL     1      -7.764  56.248  51.922  0.00  0.00    +0.000 S 
ATOM      9  C   UNL     1      -6.410  54.801  50.268  0.00  0.00    +0.000 A 
ATOM     10  C   UNL     1      -6.626  55.157  52.573  0.00  0.00    +0.000 A 
ATOM     11  C   UNL     1      -5.974  54.424  51.596  0.00  0.00    +0.000 A 
ATOM     12  C   UNL     1      -6.382  55.026  54.052  0.00  0.00    +0.000 C 
ATOM     13  C   UNL     1      -4.894  53.433  51.939  0.00  0.00    +0.000 C 
ATOM     14  C   UNL     1      -5.027  54.333  54.334  0.00  0.00    +0.000 C 
ATOM     15  C   UNL     1      -4.861  53.093  53.434  0.00  0.00    +0.000 C 
ATOM     16  C   UNL     1      -3.847  55.298  54.172  0.00  0.00    +0.000 C 
BRANCH   9  17
ATOM     17  C   UNL     1      -5.850  54.359  48.991  0.00  0.00    +0.000 C 
ATOM     18  O   UNL     1      -4.665  54.484  48.703  0.00  0.00    +0.000 OA
BRANCH  17  19
ATOM     19  O   UNL     1      -6.787  53.798  48.181  0.00  0.00    +0.000 OA
BRANCH  19  20
ATOM     20  C   UNL     1      -6.556  53.890  46.772  0.00  0.00    +0.000 C 
ATOM     21  C   UNL     1      -7.699  54.636  46.115  0.00  0.00    +0.000 C 
ENDBRANCH  19  20
ENDBRANCH  17  19
ENDBRANCH   9  17
ENDBRANCH   4   7
BRANCH   1  22
ATOM     22  S   UNL     1     -12.084  55.592  48.223  0.00  0.00    +0.000 S 
ATOM     23  O   UNL     1     -12.227  54.170  48.439  0.00  0.00    +0.000 OA
ATOM     24  O   UNL     1     -12.509  56.188  46.970  0.00  0.00    +0.000 OA
BRANCH  22  25
ATOM     25  C   UNL     1     -12.927  56.458  49.531  0.00  0.00    +0.000 A 
ATOM     26  C   UNL     1     -13.268  57.809  49.386  0.00  0.00    +0.000 A 
ATOM     27  C   UNL     1     -13.325  55.759  50.674  0.00  0.00    +0.000 A 
ATOM     28  C   UNL     1     -13.961  58.470  50.410  0.00  0.00    +0.000 A 
ATOM     29  C   UNL     1     -14.011  56.420  51.693  0.00  0.00    +0.000 A 
ATOM     30  C   UNL     1     -14.328  57.781  51.573  0.00  0.00    +0.000 A 
ATOM     31  C   UNL     1     -15.052  58.476  52.694  0.00  0.00    +0.000 C 
ENDBRANCH  22  25
ENDBRANCH   1  22
TORSDOF 6
ENDMDL
MODEL 2
REMARK VINA RESULT:      -7.4      2.247      7.561
REMARK  Name = 
REMARK  9 active torsions:
REMARK  status: ('A' for Active; 'I' for Inactive)
REMARK    1  A    between atoms: S_1  and  N_4
REMARK    2  A    between atoms: S_1  and  C_5
REMARK    3  A    between atoms: N_10  and  C_13
REMARK    4  A    between atoms: C_14  and  C_17
REMARK    5  A    between atoms: C_16  and  C_20
REMARK    6  A    between atoms: C_20  and  O_24
REMARK    7  A    between atoms: O_24  and  C_27
REMARK    8  A    between atoms: C_25  and  C_28
REMARK    9  A    between atoms: C_27  and  C_29
REMARK                            x       y       z     vdW  Elec       q    Type
REMARK                         _______ _______ _______ _____ _____    ______ ____
ROOT
ATOM      1  N   UNL     1      -9.320  53.427  47.759  0.00  0.00    +0.000 N 
ATOM      2  C   UNL     1     -10.052  54.464  48.330  0.00  0.00    +0.000 C 
ATOM      3  O   UNL     1      -9.641  55.617  48.318  0.00  0.00    +0.000 OA
ATOM      4  N   UNL     1     -11.198  54.058  48.983  0.00  0.00    +0.000 N 
ATOM      5  H   UNL     1      -9.702  52.521  47.793  0.00  0.00    +0.000 HD
ATOM      6  H   UNL     1     -11.484  53.116  48.972  0.00  0.00    +0.000 HD
ENDROOT
BRANCH   4   7
ATOM      7  C   UNL     1     -11.932  55.026  49.657  0.00  0.00    +0.000 A 
ATOM      8  S   UNL     1     -13.135  55.798  48.738  0.00  0.00    +0.000 S 
ATOM      9  C   UNL     1     -11.893  55.449  50.974  0.00  0.00    +0.000 A 
ATOM     10  C   UNL     1     -13.793  56.530  50.132  0.00  0.00    +0.000 A 
ATOM     11  C   UNL     1     -13.054  56.260  51.272  0.00  0.00    +0.000 A 
ATOM     12  C   UNL     1     -15.042  57.368  50.095  0.00  0.00    +0.000 C 
ATOM     13  C   UNL     1     -13.422  56.842  52.610  0.00  0.00    +0.000 C 
ATOM     14  C   UNL     1     -15.151  58.258  51.358  0.00  0.00    +0.000 C 
ATOM     15  C   UNL     1     -14.836  57.438  52.623  0.00  0.00    +0.000 C 
ATOM     16  C   UNL     1     -14.255  59.498  51.262  0.00  0.00    +0.000 C 
BRANCH   9  17
ATOM     17  C   UNL     1     -10.805  55.088  51.883  0.00  0.00    +0.000 C 
ATOM     18  O   UNL     1     -10.959  54.350  52.849  0.00  0.00    +0.000 OA
BRANCH  17  19
ATOM     19  O   UNL     1      -9.622  55.658  51.527  0.00  0.00    +0.000 OA
BRANCH  19  20
ATOM     20  C   UNL     1      -8.444  54.873  51.729  0.00  0.00    +0.000 C 
ATOM     21  C   UNL     1      -7.513  55.586  52.689  0.00  0.00    +0.000 C 
ENDBRANCH  19  20
ENDBRANCH  17  19
ENDBRANCH   9  17
ENDBRANCH   4   7
BRANCH   1  22
ATOM     22  S   UNL     1      -7.833  53.623  47.021  0.00  0.00    +0.000 S 
ATOM     23  O   UNL     1      -7.784  54.874  46.299  0.00  0.00    +0.000 OA
ATOM     24  O   UNL     1      -7.589  52.369  46.332  0.00  0.00    +0.000 OA
BRANCH  22  25
ATOM     25  C   UNL     1      -6.692  53.705  48.387  0.00  0.00    +0.000 A 
ATOM     26  C   UNL     1      -6.045  54.908  48.701  0.00  0.00    +0.000 A 
ATOM     27  C   UNL     1      -6.507  52.583  49.198  0.00  0.00    +0.000 A 
ATOM     28  C   UNL     1      -5.175  54.968  49.798  0.00  0.00    +0.000 A 
ATOM     29  C   UNL     1      -5.637  52.645  50.287  0.00  0.00    +0.000 A 
ATOM     30  C   UNL     1      -4.959  53.834  50.591  0.00  0.00    +0.000 A 
ATOM     31  C   UNL     1      -4.011  53.871  51.759  0.00  0.00    +0.000 C 
ENDBRANCH  22  25
ENDBRANCH   1  22
TORSDOF 6
ENDMDL
MODEL 3
REMARK VINA RESULT:      -7.2      2.071      3.366
REMARK  Name = 
REMARK  9 active torsions:
REMARK  status: ('A' for Active; 'I' for Inactive)
REMARK    1  A    between atoms: S_1  and  N_4
REMARK    2  A    between atoms: S_1  and  C_5
REMARK    3  A    between atoms: N_10  and  C_13
REMARK    4  A    between atoms: C_14  and  C_17
REMARK    5  A    between atoms: C_16  and  C_20
REMARK    6  A    between atoms: C_20  and  O_24
REMARK    7  A    between atoms: O_24  and  C_27
REMARK    8  A    between atoms: C_25  and  C_28
REMARK    9  A    between atoms: C_27  and  C_29
REMARK                            x       y       z     vdW  Elec       q    Type
REMARK                         _______ _______ _______ _____ _____    ______ ____
ROOT
ATOM      1  N   UNL     1     -11.080  56.637  49.276  0.00  0.00    +0.000 N 
ATOM      2  C   UNL     1     -10.094  55.702  49.574  0.00  0.00    +0.000 C 
ATOM      3  O   UNL     1     -10.352  54.509  49.670  0.00  0.00    +0.000 OA
ATOM      4  N   UNL     1      -8.857  56.250  49.848  0.00  0.00    +0.000 N 
ATOM      5  H   UNL     1     -10.814  57.582  49.207  0.00  0.00    +0.000 HD
ATOM      6  H   UNL     1      -8.699  57.219  49.766  0.00  0.00    +0.000 HD
ENDROOT
BRANCH   4   7
ATOM      7  C   UNL     1      -7.843  55.386  50.245  0.00  0.00    +0.000 A 
ATOM      8  S   UNL     1      -7.008  54.615  48.983  0.00  0.00    +0.000 S 
ATOM      9  C   UNL     1      -7.353  55.071  51.500  0.00  0.00    +0.000 A 
ATOM     10  C   UNL     1      -5.817  54.041  50.061  0.00  0.00    +0.000 A 
ATOM     11  C   UNL     1      -6.099  54.357  51.380  0.00  0.00    +0.000 A 
ATOM     12  C   UNL     1      -4.605  53.279  49.599  0.00  0.00    +0.000 C 
ATOM     13  C   UNL     1      -5.209  53.909  52.508  0.00  0.00    +0.000 C 
ATOM     14  C   UNL     1      -3.956  52.502  50.772  0.00  0.00    +0.000 C 
ATOM     15  C   UNL     1      -3.847  53.402  52.017  0.00  0.00    +0.000 C 
ATOM     16  C   UNL     1      -4.713  51.207  51.088  0.00  0.00    +0.000 C 
BRANCH   9  17
ATOM     17  C   UNL     1      -8.050  55.438  52.732  0.00  0.00    +0.000 C 
ATOM     18  O   UNL     1      -7.537  56.121  53.611  0.00  0.00    +0.000 OA
BRANCH  17  19
ATOM     19  O   UNL     1      -9.315  54.941  52.779  0.00  0.00    +0.000 OA
BRANCH  19  20
ATOM     20  C   UNL     1      -9.482  53.666  53.404  0.00  0.00    +0.000 C 
ATOM     21  C   UNL     1     -10.578  52.892  52.701  0.00  0.00    +0.000 C 
ENDBRANCH  19  20
ENDBRANCH  17  19
ENDBRANCH   9  17
ENDBRANCH   4   7
BRANCH   1  22
ATOM     22  S   UNL     1     -12.689  56.257  49.031  0.00  0.00    +0.000 S 
ATOM     23  O   UNL     1     -12.914  54.843  49.226  0.00  0.00    +0.000 OA
ATOM     24  O   UNL     1     -13.036  56.887  47.770  0.00  0.00    +0.000 OA
BRANCH  22  25
ATOM     25  C   UNL     1     -13.535  57.153  50.318  0.00  0.00    +0.000 A 
ATOM     26  C   UNL     1     -13.594  56.640  51.621  0.00  0.00    +0.000 A 
ATOM     27  C   UNL     1     -14.071  58.413  50.042  0.00  0.00    +0.000 A 
ATOM     28  C   UNL     1     -14.235  57.370  52.631  0.00  0.00    +0.000 A 
ATOM     29  C   UNL     1     -14.710  59.136  51.050  0.00  0.00    +0.000 A 
ATOM     30  C   UNL     1     -14.805  58.618  52.349  0.00  0.00    +0.000 A 
ATOM     31  C   UNL     1     -15.516  59.407  53.414  0.00  0.00    +0.000 C 
ENDBRANCH  22  25
ENDBRANCH   1  22
TORSDOF 6
ENDMDL
MODEL 4
REMARK VINA RESULT:      -7.1      2.933      3.869
REMARK  Name = 
REMARK  9 active torsions:
REMARK  status: ('A' for Active; 'I' for Inactive)
REMARK    1  A    between atoms: S_1  and  N_4
REMARK    2  A    between atoms: S_1  and  C_5
REMARK    3  A    between atoms: N_10  and  C_13
REMARK    4  A    between atoms: C_14  and  C_17
REMARK    5  A    between atoms: C_16  and  C_20
REMARK    6  A    between atoms: C_20  and  O_24
REMARK    7  A    between atoms: O_24  and  C_27
REMARK    8  A    between atoms: C_25  and  C_28
REMARK    9  A    between atoms: C_27  and  C_29
REMARK                            x       y       z     vdW  Elec       q    Type
REMARK                         _______ _______ _______ _____ _____    ______ ____
ROOT
ATOM      1  N   UNL     1     -12.549  55.124  51.663  0.00  0.00    +0.000 N 
ATOM      2  C   UNL     1     -11.164  55.040  51.766  0.00  0.00    +0.000 C 
ATOM      3  O   UNL     1     -10.429  55.644  50.996  0.00  0.00    +0.000 OA
ATOM      4  N   UNL     1     -10.719  54.152  52.723  0.00  0.00    +0.000 N 
ATOM      5  H   UNL     1     -13.091  54.621  52.313  0.00  0.00    +0.000 HD
ATOM      6  H   UNL     1     -11.350  53.681  53.315  0.00  0.00    +0.000 HD
ENDROOT
BRANCH   4   7
ATOM      7  C   UNL     1      -9.348  53.945  52.822  0.00  0.00    +0.000 A 
ATOM      8  S   UNL     1      -8.502  55.095  53.741  0.00  0.00    +0.000 S 
ATOM      9  C   UNL     1      -8.542  52.929  52.338  0.00  0.00    +0.000 A 
ATOM     10  C   UNL     1      -7.091  54.136  53.726  0.00  0.00    +0.000 A 
ATOM     11  C   UNL     1      -7.234  52.994  52.956  0.00  0.00    +0.000 A 
ATOM     12  C   UNL     1      -5.844  54.516  54.478  0.00  0.00    +0.000 C 
ATOM     13  C   UNL     1      -6.100  52.024  52.761  0.00  0.00    +0.000 C 
ATOM     14  C   UNL     1      -4.613  53.746  53.938  0.00  0.00    +0.000 C 
ATOM     15  C   UNL     1      -4.952  52.255  53.751  0.00  0.00    +0.000 C 
ATOM     16  C   UNL     1      -4.079  54.362  52.640  0.00  0.00    +0.000 C 
BRANCH   9  17
ATOM     17  C   UNL     1      -9.008  51.959  51.347  0.00  0.00    +0.000 C 
ATOM     18  O   UNL     1      -8.980  50.748  51.533  0.00  0.00    +0.000 OA
BRANCH  17  19
ATOM     19  O   UNL     1      -9.471  52.557  50.217  0.00  0.00    +0.000 OA
BRANCH  19  20
ATOM     20  C   UNL     1      -8.570  52.621  49.108  0.00  0.00    +0.000 C 
ATOM     21  C   UNL     1      -8.445  54.055  48.634  0.00  0.00    +0.000 C 
ENDBRANCH  19  20
ENDBRANCH  17  19
ENDBRANCH   9  17
ENDBRANCH   4   7
BRANCH   1  22
ATOM     22  S   UNL     1     -13.351  56.023  50.505  0.00  0.00    +0.000 S 
ATOM     23  O   UNL     1     -12.978  57.417  50.594  0.00  0.00    +0.000 OA
ATOM     24  O   UNL     1     -14.743  55.630  50.622  0.00  0.00    +0.000 OA
BRANCH  22  25
ATOM     25  C   UNL     1     -12.745  55.366  48.964  0.00  0.00    +0.000 A 
ATOM     26  C   UNL     1     -12.414  56.223  47.907  0.00  0.00    +0.000 A 
ATOM     27  C   UNL     1     -12.520  53.992  48.843  0.00  0.00    +0.000 A 
ATOM     28  C   UNL     1     -11.907  55.695  46.711  0.00  0.00    +0.000 A 
ATOM     29  C   UNL     1     -12.019  53.470  47.650  0.00  0.00    +0.000 A 
ATOM     30  C   UNL     1     -11.715  54.314  46.574  0.00  0.00    +0.000 A 
ATOM     31  C   UNL     1     -11.194  53.725  45.292  0.00  0.00    +0.000 C 
ENDBRANCH  22  25
ENDBRANCH   1  22
TORSDOF 6
ENDMDL
MODEL 5
REMARK VINA RESULT:      -6.8      3.038      4.722
REMARK  Name = 
REMARK  9 active torsions:
REMARK  status: ('A' for Active; 'I' for Inactive)
REMARK    1  A    between atoms: S_1  and  N_4
REMARK    2  A    between atoms: S_1  and  C_5
REMARK    3  A    between atoms: N_10  and  C_13
REMARK    4  A    between atoms: C_14  and  C_17
REMARK    5  A    between atoms: C_16  and  C_20
REMARK    6  A    between atoms: C_20  and  O_24
REMARK    7  A    between atoms: O_24  and  C_27
REMARK    8  A    between atoms: C_25  and  C_28
REMARK    9  A    between atoms: C_27  and  C_29
REMARK                            x       y       z     vdW  Elec       q    Type
REMARK                         _______ _______ _______ _____ _____    ______ ____
ROOT
ATOM      1  N   UNL     1      -9.739  55.706  47.675  0.00  0.00    +0.000 N 
ATOM      2  C   UNL     1      -8.957  55.193  48.705  0.00  0.00    +0.000 C 
ATOM      3  O   UNL     1      -9.263  54.160  49.286  0.00  0.00    +0.000 OA
ATOM      4  N   UNL     1      -7.895  55.998  49.067  0.00  0.00    +0.000 N 
ATOM      5  H   UNL     1      -9.442  56.538  47.240  0.00  0.00    +0.000 HD
ATOM      6  H   UNL     1      -7.693  56.827  48.574  0.00  0.00    +0.000 HD
ENDROOT
BRANCH   4   7
ATOM      7  C   UNL     1      -7.123  55.597  50.150  0.00  0.00    +0.000 A 
ATOM      8  S   UNL     1      -7.554  56.280  51.644  0.00  0.00    +0.000 S 
ATOM      9  C   UNL     1      -6.081  54.692  50.242  0.00  0.00    +0.000 A 
ATOM     10  C   UNL     1      -6.531  55.203  52.483  0.00  0.00    +0.000 A 
ATOM     11  C   UNL     1      -5.803  54.391  51.630  0.00  0.00    +0.000 A 
ATOM     12  C   UNL     1      -6.452  55.163  53.985  0.00  0.00    +0.000 C 
ATOM     13  C   UNL     1      -4.800  53.395  52.149  0.00  0.00    +0.000 C 
ATOM     14  C   UNL     1      -5.159  54.452  54.455  0.00  0.00    +0.000 C 
ATOM     15  C   UNL     1      -4.939  53.153  53.658  0.00  0.00    +0.000 C 
ATOM     16  C   UNL     1      -3.936  55.373  54.364  0.00  0.00    +0.000 C 
BRANCH   9  17
ATOM     17  C   UNL     1      -5.401  54.152  49.063  0.00  0.00    +0.000 C 
ATOM     18  O   UNL     1      -4.260  54.467  48.748  0.00  0.00    +0.000 OA
BRANCH  17  19
ATOM     19  O   UNL     1      -6.177  53.270  48.377  0.00  0.00    +0.000 OA
BRANCH  19  20
ATOM     20  C   UNL     1      -5.561  52.038  47.993  0.00  0.00    +0.000 C 
ATOM     21  C   UNL     1      -5.496  51.106  49.185  0.00  0.00    +0.000 C 
ENDBRANCH  19  20
ENDBRANCH  17  19
ENDBRANCH   9  17
ENDBRANCH   4   7
BRANCH   1  22
ATOM     22  S   UNL     1     -11.152  55.001  47.130  0.00  0.00    +0.000 S 
ATOM     23  O   UNL     1     -12.060  56.006  46.622  0.00  0.00    +0.000 OA
ATOM     24  O   UNL     1     -11.567  54.114  48.201  0.00  0.00    +0.000 OA
BRANCH  22  25
ATOM     25  C   UNL     1     -10.618  53.976  45.774  0.00  0.00    +0.000 A 
ATOM     26  C   UNL     1     -11.543  53.203  45.060  0.00  0.00    +0.000 A 
ATOM     27  C   UNL     1      -9.281  54.012  45.369  0.00  0.00    +0.000 A 
ATOM     28  C   UNL     1     -11.114  52.426  43.974  0.00  0.00    +0.000 A 
ATOM     29  C   UNL     1      -8.858  53.235  44.290  0.00  0.00    +0.000 A 
ATOM     30  C   UNL     1      -9.767  52.432  43.589  0.00  0.00    +0.000 A 
ATOM     31  C   UNL     1      -9.283  51.589  42.441  0.00  0.00    +0.000 C 
ENDBRANCH  22  25
ENDBRANCH   1  22
TORSDOF 6
ENDMDL
MODEL 6
REMARK VINA RESULT:      -6.8      2.180      7.485
REMARK  Name = 
REMARK  9 active torsions:
REMARK  status: ('A' for Active; 'I' for Inactive)
REMARK    1  A    between atoms: S_1  and  N_4
REMARK    2  A    between atoms: S_1  and  C_5
REMARK    3  A    between atoms: N_10  and  C_13
REMARK    4  A    between atoms: C_14  and  C_17
REMARK    5  A    between atoms: C_16  and  C_20
REMARK    6  A    between atoms: C_20  and  O_24
REMARK    7  A    between atoms: O_24  and  C_27
REMARK    8  A    between atoms: C_25  and  C_28
REMARK    9  A    between atoms: C_27  and  C_29
REMARK                            x       y       z     vdW  Elec       q    Type
REMARK                         _______ _______ _______ _____ _____    ______ ____
ROOT
ATOM      1  N   UNL     1      -8.228  52.642  48.835  0.00  0.00    +0.000 N 
ATOM      2  C   UNL     1      -9.210  53.611  49.018  0.00  0.00    +0.000 C 
ATOM      3  O   UNL     1      -8.922  54.762  49.318  0.00  0.00    +0.000 OA
ATOM      4  N   UNL     1     -10.502  53.132  48.935  0.00  0.00    +0.000 N 
ATOM      5  H   UNL     1      -8.517  51.733  48.589  0.00  0.00    +0.000 HD
ATOM      6  H   UNL     1     -10.684  52.194  48.698  0.00  0.00    +0.000 HD
ENDROOT
BRANCH   4   7
ATOM      7  C   UNL     1     -11.536  54.022  49.198  0.00  0.00    +0.000 A 
ATOM      8  S   UNL     1     -12.122  54.007  50.792  0.00  0.00    +0.000 S 
ATOM      9  C   UNL     1     -12.153  54.967  48.396  0.00  0.00    +0.000 A 
ATOM     10  C   UNL     1     -13.033  55.424  50.518  0.00  0.00    +0.000 A 
ATOM     11  C   UNL     1     -12.962  55.854  49.204  0.00  0.00    +0.000 A 
ATOM     12  C   UNL     1     -13.816  56.107  51.606  0.00  0.00    +0.000 C 
ATOM     13  C   UNL     1     -13.726  57.059  48.723  0.00  0.00    +0.000 C 
ATOM     14  C   UNL     1     -14.881  57.060  51.010  0.00  0.00    +0.000 C 
ATOM     15  C   UNL     1     -14.271  57.908  49.879  0.00  0.00    +0.000 C 
ATOM     16  C   UNL     1     -16.121  56.298  50.527  0.00  0.00    +0.000 C 
BRANCH   9  17
ATOM     17  C   UNL     1     -11.968  55.008  46.945  0.00  0.00    +0.000 C 
ATOM     18  O   UNL     1     -11.848  56.054  46.317  0.00  0.00    +0.000 OA
BRANCH  17  19
ATOM     19  O   UNL     1     -11.941  53.766  46.391  0.00  0.00    +0.000 OA
BRANCH  19  20
ATOM     20  C   UNL     1     -11.332  53.651  45.102  0.00  0.00    +0.000 C 
ATOM     21  C   UNL     1      -9.894  53.202  45.255  0.00  0.00    +0.000 C 
ENDBRANCH  19  20
ENDBRANCH  17  19
ENDBRANCH   9  17
ENDBRANCH   4   7
BRANCH   1  22
ATOM     22  S   UNL     1      -6.590  52.921  49.009  0.00  0.00    +0.000 S 
ATOM     23  O   UNL     1      -6.196  54.107  48.282  0.00  0.00    +0.000 OA
ATOM     24  O   UNL     1      -5.959  51.646  48.725  0.00  0.00    +0.000 OA
BRANCH  22  25
ATOM     25  C   UNL     1      -6.396  53.228  50.753  0.00  0.00    +0.000 A 
ATOM     26  C   UNL     1      -5.615  54.301  51.203  0.00  0.00    +0.000 A 
ATOM     27  C   UNL     1      -7.097  52.444  51.672  0.00  0.00    +0.000 A 
ATOM     28  C   UNL     1      -5.497  54.552  52.578  0.00  0.00    +0.000 A 
ATOM     29  C   UNL     1      -6.975  52.694  53.039  0.00  0.00    +0.000 A 
ATOM     30  C   UNL     1      -6.170  53.744  53.503  0.00  0.00    +0.000 A 
ATOM     31  C   UNL     1      -6.039  53.982  54.983  0.00  0.00    +0.000 C 
ENDBRANCH  22  25
ENDBRANCH   1  22
TORSDOF 6
ENDMDL
MODEL 7
REMARK VINA RESULT:      -6.7      3.249      7.642
REMARK  Name = 
REMARK  9 active torsions:
REMARK  status: ('A' for Active; 'I' for Inactive)
REMARK    1  A    between atoms: S_1  and  N_4
REMARK    2  A    between atoms: S_1  and  C_5
REMARK    3  A    between atoms: N_10  and  C_13
REMARK    4  A    between atoms: C_14  and  C_17
REMARK    5  A    between atoms: C_16  and  C_20
REMARK    6  A    between atoms: C_20  and  O_24
REMARK    7  A    between atoms: O_24  and  C_27
REMARK    8  A    between atoms: C_25  and  C_28
REMARK    9  A    between atoms: C_27  and  C_29
REMARK                            x       y       z     vdW  Elec       q    Type
REMARK                         _______ _______ _______ _____ _____    ______ ____
ROOT
ATOM      1  N   UNL     1      -8.131  53.476  49.435  0.00  0.00    +0.000 N 
ATOM      2  C   UNL     1      -9.265  54.277  49.516  0.00  0.00    +0.000 C 
ATOM      3  O   UNL     1      -9.359  55.316  48.875  0.00  0.00    +0.000 OA
ATOM      4  N   UNL     1     -10.195  53.853  50.442  0.00  0.00    +0.000 N 
ATOM      5  H   UNL     1      -8.111  52.649  49.969  0.00  0.00    +0.000 HD
ATOM      6  H   UNL     1     -10.071  53.013  50.942  0.00  0.00    +0.000 HD
ENDROOT
BRANCH   4   7
ATOM      7  C   UNL     1     -11.313  54.654  50.646  0.00  0.00    +0.000 A 
ATOM      8  S   UNL     1     -11.507  55.245  52.226  0.00  0.00    +0.000 S 
ATOM      9  C   UNL     1     -12.285  55.102  49.770  0.00  0.00    +0.000 A 
ATOM     10  C   UNL     1     -12.743  56.308  51.725  0.00  0.00    +0.000 A 
ATOM     11  C   UNL     1     -13.066  56.153  50.387  0.00  0.00    +0.000 A 
ATOM     12  C   UNL     1     -13.391  57.296  52.657  0.00  0.00    +0.000 C 
ATOM     13  C   UNL     1     -14.164  56.955  49.739  0.00  0.00    +0.000 C 
ATOM     14  C   UNL     1     -14.746  57.789  52.091  0.00  0.00    +0.000 C 
ATOM     15  C   UNL     1     -14.607  58.145  50.599  0.00  0.00    +0.000 C 
ATOM     16  C   UNL     1     -15.865  56.766  52.315  0.00  0.00    +0.000 C 
BRANCH   9  17
ATOM     17  C   UNL     1     -12.446  54.551  48.424  0.00  0.00    +0.000 C 
ATOM     18  O   UNL     1     -12.481  55.248  47.417  0.00  0.00    +0.000 OA
BRANCH  17  19
ATOM     19  O   UNL     1     -12.545  53.194  48.428  0.00  0.00    +0.000 OA
BRANCH  19  20
ATOM     20  C   UNL     1     -11.992  52.506  47.303  0.00  0.00    +0.000 C 
ATOM     21  C   UNL     1     -11.043  51.426  47.780  0.00  0.00    +0.000 C 
ENDBRANCH  19  20
ENDBRANCH  17  19
ENDBRANCH   9  17
ENDBRANCH   4   7
BRANCH   1  22
ATOM     22  S   UNL     1      -6.797  53.828  48.492  0.00  0.00    +0.000 S 
ATOM     23  O   UNL     1      -5.712  52.918  48.784  0.00  0.00    +0.000 OA
ATOM     24  O   UNL     1      -6.609  55.260  48.628  0.00  0.00    +0.000 OA
BRANCH  22  25
ATOM     25  C   UNL     1      -7.364  53.526  46.830  0.00  0.00    +0.000 A 
ATOM     26  C   UNL     1      -7.646  52.223  46.400  0.00  0.00    +0.000 A 
ATOM     27  C   UNL     1      -7.607  54.607  45.978  0.00  0.00    +0.000 A 
ATOM     28  C   UNL     1      -8.123  52.002  45.101  0.00  0.00    +0.000 A 
ATOM     29  C   UNL     1      -8.078  54.384  44.684  0.00  0.00    +0.000 A 
ATOM     30  C   UNL     1      -8.333  53.082  44.233  0.00  0.00    +0.000 A 
ATOM     31  C   UNL     1      -8.822  52.865  42.827  0.00  0.00    +0.000 C 
ENDBRANCH  22  25
ENDBRANCH   1  22
TORSDOF 6
ENDMDL
MODEL 8
REMARK VINA RESULT:      -6.7      2.993      5.540
REMARK  Name = 
REMARK  9 active torsions:
REMARK  status: ('A' for Active; 'I' for Inactive)
REMARK    1  A    between atoms: S_1  and  N_4
REMARK    2  A    between atoms: S_1  and  C_5
REMARK    3  A    between atoms: N_10  and  C_13
REMARK    4  A    between atoms: C_14  and  C_17
REMARK    5  A    between atoms: C_16  and  C_20
REMARK    6  A    between atoms: C_20  and  O_24
REMARK    7  A    between atoms: O_24  and  C_27
REMARK    8  A    between atoms: C_25  and  C_28
REMARK    9  A    between atoms: C_27  and  C_29
REMARK                            x       y       z     vdW  Elec       q    Type
REMARK                         _______ _______ _______ _____ _____    ______ ____
ROOT
ATOM      1  N   UNL     1     -10.430  55.548  48.065  0.00  0.00    +0.000 N 
ATOM      2  C   UNL     1      -9.621  54.891  48.988  0.00  0.00    +0.000 C 
ATOM      3  O   UNL     1      -9.703  53.682  49.163  0.00  0.00    +0.000 OA
ATOM      4  N   UNL     1      -8.821  55.729  49.738  0.00  0.00    +0.000 N 
ATOM      5  H   UNL     1     -10.317  56.520  47.963  0.00  0.00    +0.000 HD
ATOM      6  H   UNL     1      -8.795  56.698  49.567  0.00  0.00    +0.000 HD
ENDROOT
BRANCH   4   7
ATOM      7  C   UNL     1      -8.053  55.155  50.745  0.00  0.00    +0.000 A 
ATOM      8  S   UNL     1      -6.440  54.822  50.330  0.00  0.00    +0.000 S 
ATOM      9  C   UNL     1      -8.357  54.844  52.058  0.00  0.00    +0.000 A 
ATOM     10  C   UNL     1      -6.044  54.490  51.956  0.00  0.00    +0.000 A 
ATOM     11  C   UNL     1      -7.146  54.547  52.793  0.00  0.00    +0.000 A 
ATOM     12  C   UNL     1      -4.641  54.177  52.401  0.00  0.00    +0.000 C 
ATOM     13  C   UNL     1      -7.039  54.242  54.263  0.00  0.00    +0.000 C 
ATOM     14  C   UNL     1      -4.639  53.485  53.786  0.00  0.00    +0.000 C 
ATOM     15  C   UNL     1      -5.586  54.217  54.754  0.00  0.00    +0.000 C 
ATOM     16  C   UNL     1      -4.993  51.997  53.682  0.00  0.00    +0.000 C 
BRANCH   9  17
ATOM     17  C   UNL     1      -9.728  54.839  52.569  0.00  0.00    +0.000 C 
ATOM     18  O   UNL     1     -10.602  55.587  52.145  0.00  0.00    +0.000 OA
BRANCH  17  19
ATOM     19  O   UNL     1      -9.912  53.915  53.550  0.00  0.00    +0.000 OA
BRANCH  19  20
ATOM     20  C   UNL     1     -10.547  52.691  53.170  0.00  0.00    +0.000 C 
ATOM     21  C   UNL     1      -9.556  51.549  53.267  0.00  0.00    +0.000 C 
ENDBRANCH  19  20
ENDBRANCH  17  19
ENDBRANCH   9  17
ENDBRANCH   4   7
BRANCH   1  22
ATOM     22  S   UNL     1     -11.582  54.790  47.121  0.00  0.00    +0.000 S 
ATOM     23  O   UNL     1     -12.511  55.756  46.579  0.00  0.00    +0.000 OA
ATOM     24  O   UNL     1     -12.062  53.685  47.929  0.00  0.00    +0.000 OA
BRANCH  22  25
ATOM     25  C   UNL     1     -10.637  54.093  45.781  0.00  0.00    +0.000 A 
ATOM     26  C   UNL     1      -9.257  54.319  45.690  0.00  0.00    +0.000 A 
ATOM     27  C   UNL     1     -11.265  53.247  44.863  0.00  0.00    +0.000 A 
ATOM     28  C   UNL     1      -8.520  53.737  44.649  0.00  0.00    +0.000 A 
ATOM     29  C   UNL     1     -10.529  52.672  43.827  0.00  0.00    +0.000 A 
ATOM     30  C   UNL     1      -9.155  52.917  43.707  0.00  0.00    +0.000 A 
ATOM     31  C   UNL     1      -8.386  52.301  42.569  0.00  0.00    +0.000 C 
ENDBRANCH  22  25
ENDBRANCH   1  22
TORSDOF 6
ENDMDL
MODEL 9
REMARK VINA RESULT:      -6.7      2.180      7.735
REMARK  Name = 
REMARK  9 active torsions:
REMARK  status: ('A' for Active; 'I' for Inactive)
REMARK    1  A    between atoms: S_1  and  N_4
REMARK    2  A    between atoms: S_1  and  C_5
REMARK    3  A    between atoms: N_10  and  C_13
REMARK    4  A    between atoms: C_14  and  C_17
REMARK    5  A    between atoms: C_16  and  C_20
REMARK    6  A    between atoms: C_20  and  O_24
REMARK    7  A    between atoms: O_24  and  C_27
REMARK    8  A    between atoms: C_25  and  C_28
REMARK    9  A    between atoms: C_27  and  C_29
REMARK                            x       y       z     vdW  Elec       q    Type
REMARK                         _______ _______ _______ _____ _____    ______ ____
ROOT
ATOM      1  N   UNL     1      -8.596  53.118  48.761  0.00  0.00    +0.000 N 
ATOM      2  C   UNL     1      -9.333  54.270  49.020  0.00  0.00    +0.000 C 
ATOM      3  O   UNL     1      -8.793  55.299  49.404  0.00  0.00    +0.000 OA
ATOM      4  N   UNL     1     -10.699  54.107  48.907  0.00  0.00    +0.000 N 
ATOM      5  H   UNL     1      -9.082  52.320  48.449  0.00  0.00    +0.000 HD
ATOM      6  H   UNL     1     -11.087  53.255  48.602  0.00  0.00    +0.000 HD
ENDROOT
BRANCH   4   7
ATOM      7  C   UNL     1     -11.505  55.189  49.241  0.00  0.00    +0.000 A 
ATOM      8  S   UNL     1     -11.924  56.210  47.950  0.00  0.00    +0.000 S 
ATOM      9  C   UNL     1     -12.077  55.563  50.443  0.00  0.00    +0.000 A 
ATOM     10  C   UNL     1     -13.073  57.027  48.910  0.00  0.00    +0.000 A 
ATOM     11  C   UNL     1     -13.077  56.587  50.223  0.00  0.00    +0.000 A 
ATOM     12  C   UNL     1     -13.970  58.103  48.361  0.00  0.00    +0.000 C 
ATOM     13  C   UNL     1     -13.978  57.200  51.261  0.00  0.00    +0.000 C 
ATOM     14  C   UNL     1     -14.564  58.967  49.501  0.00  0.00    +0.000 C 
ATOM     15  C   UNL     1     -15.079  58.071  50.643  0.00  0.00    +0.000 C 
ATOM     16  C   UNL     1     -13.557  60.000  50.018  0.00  0.00    +0.000 C 
BRANCH   9  17
ATOM     17  C   UNL     1     -11.684  54.967  51.721  0.00  0.00    +0.000 C 
ATOM     18  O   UNL     1     -11.323  55.633  52.685  0.00  0.00    +0.000 OA
BRANCH  17  19
ATOM     19  O   UNL     1     -11.772  53.610  51.708  0.00  0.00    +0.000 OA
BRANCH  19  20
ATOM     20  C   UNL     1     -10.716  52.892  52.352  0.00  0.00    +0.000 C 
ATOM     21  C   UNL     1     -10.712  51.454  51.876  0.00  0.00    +0.000 C 
ENDBRANCH  19  20
ENDBRANCH  17  19
ENDBRANCH   9  17
ENDBRANCH   4   7
BRANCH   1  22
ATOM     22  S   UNL     1      -6.940  53.001  48.948  0.00  0.00    +0.000 S 
ATOM     23  O   UNL     1      -6.270  54.053  48.216  0.00  0.00    +0.000 OA
ATOM     24  O   UNL     1      -6.628  51.610  48.678  0.00  0.00    +0.000 OA
BRANCH  22  25
ATOM     25  C   UNL     1      -6.691  53.270  50.691  0.00  0.00    +0.000 A 
ATOM     26  C   UNL     1      -7.160  52.339  51.628  0.00  0.00    +0.000 A 
ATOM     27  C   UNL     1      -5.950  54.374  51.119  0.00  0.00    +0.000 A 
ATOM     28  C   UNL     1      -6.929  52.545  52.995  0.00  0.00    +0.000 A 
ATOM     29  C   UNL     1      -5.725  54.579  52.481  0.00  0.00    +0.000 A 
ATOM     30  C   UNL     1      -6.218  53.672  53.429  0.00  0.00    +0.000 A 
ATOM     31  C   UNL     1      -5.978  53.924  54.893  0.00  0.00    +0.000 C 
ENDBRANCH  22  25
ENDBRANCH   1  22
TORSDOF 6
ENDMDL
