MODEL 1
REMARK VINA RESULT:      -7.7      0.000      0.000
REMARK  Name = 
REMARK  9 active torsions:
REMARK  status: ('A' for Active; 'I' for Inactive)
REMARK    1  A    between atoms: S_1  and  N_4
REMARK    2  A    between atoms: S_1  and  C_5
REMARK    3  A    between atoms: N_10  and  C_13
REMARK    4  A    between atoms: C_16  and  C_19
REMARK    5  A    between atoms: C_19  and  O_23
REMARK    6  A    between atoms: O_23  and  C_26
REMARK    7  A    between atoms: C_24  and  C_27
REMARK    8  A    between atoms: C_24  and  C_28
REMARK    9  A    between atoms: C_26  and  C_29
REMARK                            x       y       z     vdW  Elec       q    Type
REMARK                         _______ _______ _______ _____ _____    ______ ____
ROOT
ATOM      1  C   UNL     1     -10.946  54.473  51.486  0.00  0.00    +0.000 A 
ATOM      2  S   UNL     1     -10.560  53.897  53.037  0.00  0.00    +0.000 S 
ATOM      3  C   UNL     1      -9.853  54.960  50.787  0.00  0.00    +0.000 A 
ATOM      4  C   UNL     1      -8.892  54.005  52.707  0.00  0.00    +0.000 A 
ATOM      5  C   UNL     1      -8.638  54.574  51.471  0.00  0.00    +0.000 A 
ATOM      6  C   UNL     1      -7.844  53.523  53.678  0.00  0.00    +0.000 C 
ATOM      7  C   UNL     1      -7.238  54.809  50.982  0.00  0.00    +0.000 C 
ATOM      8  C   UNL     1      -6.446  54.126  53.342  0.00  0.00    +0.000 C 
ATOM      9  C   UNL     1      -6.200  54.040  51.811  0.00  0.00    +0.000 C 
ATOM     10  C   UNL     1      -5.339  53.328  54.055  0.00  0.00    +0.000 C 
ATOM     11  C   UNL     1      -6.366  55.587  53.832  0.00  0.00    +0.000 C 
ENDROOT
BRANCH   1  15
ATOM     12  N   UNL     1     -14.447  55.208  51.154  0.00  0.00    +0.000 N 
ATOM     13  C   UNL     1     -13.117  55.399  51.497  0.00  0.00    +0.000 C 
ATOM     14  O   UNL     1     -12.740  56.441  52.015  0.00  0.00    +0.000 OA
ATOM     15  N   UNL     1     -12.281  54.363  51.142  0.00  0.00    +0.000 N 
ATOM     16  H   UNL     1     -14.735  54.334  50.806  0.00  0.00    +0.000 HD
ATOM     17  H   UNL     1     -12.622  53.575  50.660  0.00  0.00    +0.000 HD
BRANCH  12  18
ATOM     18  S   UNL     1     -15.576  56.438  51.321  0.00  0.00    +0.000 S 
ATOM     19  O   UNL     1     -15.744  56.714  52.732  0.00  0.00    +0.000 OA
ATOM     20  O   UNL     1     -16.715  56.000  50.531  0.00  0.00    +0.000 OA
BRANCH  18  21
ATOM     21  C   UNL     1     -14.825  57.852  50.474  0.00  0.00    +0.000 A 
ATOM     22  N   UNL     1     -14.875  59.024  51.154  0.00  0.00    +0.000 NA
ATOM     23  N   UNL     1     -14.310  57.636  49.246  0.00  0.00    +0.000 NA
ATOM     24  C   UNL     1     -14.317  60.063  50.508  0.00  0.00    +0.000 A 
ATOM     25  C   UNL     1     -13.807  58.731  48.649  0.00  0.00    +0.000 A 
ATOM     26  C   UNL     1     -13.773  59.975  49.243  0.00  0.00    +0.000 A 
ENDBRANCH  18  21
ENDBRANCH  12  18
ENDBRANCH   1  15
BRANCH   3  27
ATOM     27  C   UNL     1      -9.924  55.784  49.567  0.00  0.00    +0.000 C 
ATOM     28  O   UNL     1      -9.594  56.965  49.531  0.00  0.00    +0.000 OA
BRANCH  27  29
ATOM     29  O   UNL     1     -10.530  55.132  48.533  0.00  0.00    +0.000 OA
BRANCH  29  30
ATOM     30  C   UNL     1     -11.605  55.796  47.860  0.00  0.00    +0.000 C 
ATOM     31  C   UNL     1     -11.689  55.364  46.410  0.00  0.00    +0.000 C 
ENDBRANCH  29  30
ENDBRANCH  27  29
ENDBRANCH   3  27
TORSDOF 6
ENDMDL
MODEL 2
REMARK VINA RESULT:      -7.5      3.084      7.617
REMARK  Name = 
REMARK  9 active torsions:
REMARK  status: ('A' for Active; 'I' for Inactive)
REMARK    1  A    between atoms: S_1  and  N_4
REMARK    2  A    between atoms: S_1  and  C_5
REMARK    3  A    between atoms: N_10  and  C_13
REMARK    4  A    between atoms: C_16  and  C_19
REMARK    5  A    between atoms: C_19  and  O_23
REMARK    6  A    between atoms: O_23  and  C_26
REMARK    7  A    between atoms: C_24  and  C_27
REMARK    8  A    between atoms: C_24  and  C_28
REMARK    9  A    between atoms: C_26  and  C_29
REMARK                            x       y       z     vdW  Elec       q    Type
REMARK                         _______ _______ _______ _____ _____    ______ ____
ROOT
ATOM      1  C   UNL     1     -11.038  54.815  50.090  0.00  0.00    +0.000 A 
ATOM      2  S   UNL     1     -11.727  54.800  51.641  0.00  0.00    +0.000 S 
ATOM      3  C   UNL     1     -11.654  55.698  49.217  0.00  0.00    +0.000 A 
ATOM      4  C   UNL     1     -12.668  56.174  51.283  0.00  0.00    +0.000 A 
ATOM      5  C   UNL     1     -12.535  56.570  49.963  0.00  0.00    +0.000 A 
ATOM      6  C   UNL     1     -13.533  56.853  52.315  0.00  0.00    +0.000 C 
ATOM      7  C   UNL     1     -13.302  57.735  49.406  0.00  0.00    +0.000 C 
ATOM      8  C   UNL     1     -14.594  57.776  51.640  0.00  0.00    +0.000 C 
ATOM      9  C   UNL     1     -13.919  58.602  50.512  0.00  0.00    +0.000 C 
ATOM     10  C   UNL     1     -15.178  58.756  52.674  0.00  0.00    +0.000 C 
ATOM     11  C   UNL     1     -15.756  56.929  51.083  0.00  0.00    +0.000 C 
ENDROOT
BRANCH   1  15
ATOM     12  N   UNL     1      -7.672  53.564  49.983  0.00  0.00    +0.000 N 
ATOM     13  C   UNL     1      -8.708  54.458  50.205  0.00  0.00    +0.000 C 
ATOM     14  O   UNL     1      -8.495  55.569  50.674  0.00  0.00    +0.000 OA
ATOM     15  N   UNL     1      -9.961  53.962  49.924  0.00  0.00    +0.000 N 
ATOM     16  H   UNL     1      -7.862  52.706  49.539  0.00  0.00    +0.000 HD
ATOM     17  H   UNL     1     -10.087  53.035  49.617  0.00  0.00    +0.000 HD
BRANCH  12  18
ATOM     18  S   UNL     1      -6.101  53.913  50.457  0.00  0.00    +0.000 S 
ATOM     19  O   UNL     1      -5.767  55.240  49.984  0.00  0.00    +0.000 OA
ATOM     20  O   UNL     1      -5.321  52.771  50.009  0.00  0.00    +0.000 OA
BRANCH  18  21
ATOM     21  C   UNL     1      -6.158  53.870  52.266  0.00  0.00    +0.000 A 
ATOM     22  N   UNL     1      -5.423  54.823  52.889  0.00  0.00    +0.000 NA
ATOM     23  N   UNL     1      -6.893  52.894  52.838  0.00  0.00    +0.000 NA
ATOM     24  C   UNL     1      -5.475  54.774  54.232  0.00  0.00    +0.000 A 
ATOM     25  C   UNL     1      -6.863  52.886  54.183  0.00  0.00    +0.000 A 
ATOM     26  C   UNL     1      -6.176  53.815  54.935  0.00  0.00    +0.000 A 
ENDBRANCH  18  21
ENDBRANCH  12  18
ENDBRANCH   1  15
BRANCH   3  27
ATOM     27  C   UNL     1     -11.477  55.709  47.753  0.00  0.00    +0.000 C 
ATOM     28  O   UNL     1     -12.407  55.606  46.961  0.00  0.00    +0.000 OA
BRANCH  27  29
ATOM     29  O   UNL     1     -10.163  55.698  47.389  0.00  0.00    +0.000 OA
BRANCH  29  30
ATOM     30  C   UNL     1      -9.740  54.720  46.433  0.00  0.00    +0.000 C 
ATOM     31  C   UNL     1      -8.287  54.921  46.053  0.00  0.00    +0.000 C 
ENDBRANCH  29  30
ENDBRANCH  27  29
ENDBRANCH   3  27
TORSDOF 6
ENDMDL
MODEL 3
REMARK VINA RESULT:      -7.0      1.114      1.474
REMARK  Name = 
REMARK  9 active torsions:
REMARK  status: ('A' for Active; 'I' for Inactive)
REMARK    1  A    between atoms: S_1  and  N_4
REMARK    2  A    between atoms: S_1  and  C_5
REMARK    3  A    between atoms: N_10  and  C_13
REMARK    4  A    between atoms: C_16  and  C_19
REMARK    5  A    between atoms: C_19  and  O_23
REMARK    6  A    between atoms: O_23  and  C_26
REMARK    7  A    between atoms: C_24  and  C_27
REMARK    8  A    between atoms: C_24  and  C_28
REMARK    9  A    between atoms: C_26  and  C_29
REMARK                            x       y       z     vdW  Elec       q    Type
REMARK                         _______ _______ _______ _____ _____    ______ ____
ROOT
ATOM      1  C   UNL     1     -11.339  53.935  50.975  0.00  0.00    +0.000 A 
ATOM      2  S   UNL     1     -10.955  52.920  52.281  0.00  0.00    +0.000 S 
ATOM      3  C   UNL     1     -10.227  54.457  50.332  0.00  0.00    +0.000 A 
ATOM      4  C   UNL     1      -9.308  52.910  51.844  0.00  0.00    +0.000 A 
ATOM      5  C   UNL     1      -9.043  53.757  50.781  0.00  0.00    +0.000 A 
ATOM      6  C   UNL     1      -8.287  52.061  52.558  0.00  0.00    +0.000 C 
ATOM      7  C   UNL     1      -7.652  53.944  50.247  0.00  0.00    +0.000 C 
ATOM      8  C   UNL     1      -6.839  52.559  52.268  0.00  0.00    +0.000 C 
ATOM      9  C   UNL     1      -6.689  52.861  50.752  0.00  0.00    +0.000 C 
ATOM     10  C   UNL     1      -5.817  51.470  52.647  0.00  0.00    +0.000 C 
ATOM     11  C   UNL     1      -6.528  53.812  53.112  0.00  0.00    +0.000 C 
ENDROOT
BRANCH   1  15
ATOM     12  N   UNL     1     -14.684  55.242  51.045  0.00  0.00    +0.000 N 
ATOM     13  C   UNL     1     -13.322  55.173  51.296  0.00  0.00    +0.000 C 
ATOM     14  O   UNL     1     -12.747  56.057  51.916  0.00  0.00    +0.000 OA
ATOM     15  N   UNL     1     -12.692  54.084  50.734  0.00  0.00    +0.000 N 
ATOM     16  H   UNL     1     -15.133  54.484  50.608  0.00  0.00    +0.000 HD
ATOM     17  H   UNL     1     -13.187  53.437  50.181  0.00  0.00    +0.000 HD
BRANCH  12  18
ATOM     18  S   UNL     1     -15.582  56.594  51.472  0.00  0.00    +0.000 S 
ATOM     19  O   UNL     1     -15.363  56.860  52.879  0.00  0.00    +0.000 OA
ATOM     20  O   UNL     1     -16.924  56.308  50.993  0.00  0.00    +0.000 OA
BRANCH  18  21
ATOM     21  C   UNL     1     -14.900  57.925  50.452  0.00  0.00    +0.000 A 
ATOM     22  N   UNL     1     -14.232  57.519  49.345  0.00  0.00    +0.000 NA
ATOM     23  N   UNL     1     -15.083  59.190  50.883  0.00  0.00    +0.000 NA
ATOM     24  C   UNL     1     -13.730  58.521  48.602  0.00  0.00    +0.000 A 
ATOM     25  C   UNL     1     -14.517  60.134  50.109  0.00  0.00    +0.000 A 
ATOM     26  C   UNL     1     -13.835  59.854  48.944  0.00  0.00    +0.000 A 
ENDBRANCH  18  21
ENDBRANCH  12  18
ENDBRANCH   1  15
BRANCH   3  27
ATOM     27  C   UNL     1     -10.247  55.582  49.380  0.00  0.00    +0.000 C 
ATOM     28  O   UNL     1      -9.806  56.696  49.644  0.00  0.00    +0.000 OA
BRANCH  27  29
ATOM     29  O   UNL     1     -10.936  55.288  48.241  0.00  0.00    +0.000 OA
BRANCH  29  30
ATOM     30  C   UNL     1     -10.304  54.443  47.273  0.00  0.00    +0.000 C 
ATOM     31  C   UNL     1      -9.053  55.091  46.717  0.00  0.00    +0.000 C 
ENDBRANCH  29  30
ENDBRANCH  27  29
ENDBRANCH   3  27
TORSDOF 6
ENDMDL
MODEL 4
REMARK VINA RESULT:      -6.9      2.623      4.039
REMARK  Name = 
REMARK  9 active torsions:
REMARK  status: ('A' for Active; 'I' for Inactive)
REMARK    1  A    between atoms: S_1  and  N_4
REMARK    2  A    between atoms: S_1  and  C_5
REMARK    3  A    between atoms: N_10  and  C_13
REMARK    4  A    between atoms: C_16  and  C_19
REMARK    5  A    between atoms: C_19  and  O_23
REMARK    6  A    between atoms: O_23  and  C_26
REMARK    7  A    between atoms: C_24  and  C_27
REMARK    8  A    between atoms: C_24  and  C_28
REMARK    9  A    between atoms: C_26  and  C_29
REMARK                            x       y       z     vdW  Elec       q    Type
REMARK                         _______ _______ _______ _____ _____    ______ ____
ROOT
ATOM      1  C   UNL     1     -11.559  53.431  49.898  0.00  0.00    +0.000 A 
ATOM      2  S   UNL     1     -11.043  54.088  48.419  0.00  0.00    +0.000 S 
ATOM      3  C   UNL     1     -10.632  52.582  50.482  0.00  0.00    +0.000 A 
ATOM      4  C   UNL     1      -9.463  53.499  48.661  0.00  0.00    +0.000 A 
ATOM      5  C   UNL     1      -9.362  52.721  49.802  0.00  0.00    +0.000 A 
ATOM      6  C   UNL     1      -8.330  53.813  47.716  0.00  0.00    +0.000 C 
ATOM      7  C   UNL     1      -8.073  52.060  50.197  0.00  0.00    +0.000 C 
ATOM      8  C   UNL     1      -7.143  52.822  47.912  0.00  0.00    +0.000 C 
ATOM      9  C   UNL     1      -6.873  52.631  49.430  0.00  0.00    +0.000 C 
ATOM     10  C   UNL     1      -5.867  53.387  47.261  0.00  0.00    +0.000 C 
ATOM     11  C   UNL     1      -7.461  51.472  47.236  0.00  0.00    +0.000 C 
ENDROOT
BRANCH   1  15
ATOM     12  N   UNL     1     -14.176  55.362  51.423  0.00  0.00    +0.000 N 
ATOM     13  C   UNL     1     -12.896  55.027  51.009  0.00  0.00    +0.000 C 
ATOM     14  O   UNL     1     -11.950  55.777  51.208  0.00  0.00    +0.000 OA
ATOM     15  N   UNL     1     -12.813  53.843  50.310  0.00  0.00    +0.000 N 
ATOM     16  H   UNL     1     -14.905  54.710  51.314  0.00  0.00    +0.000 HD
ATOM     17  H   UNL     1     -13.617  53.310  50.112  0.00  0.00    +0.000 HD
BRANCH  12  18
ATOM     18  S   UNL     1     -14.508  56.858  52.107  0.00  0.00    +0.000 S 
ATOM     19  O   UNL     1     -13.532  57.111  53.146  0.00  0.00    +0.000 OA
ATOM     20  O   UNL     1     -15.921  56.801  52.445  0.00  0.00    +0.000 OA
BRANCH  18  21
ATOM     21  C   UNL     1     -14.311  58.029  50.740  0.00  0.00    +0.000 A 
ATOM     22  N   UNL     1     -14.230  59.332  51.104  0.00  0.00    +0.000 NA
ATOM     23  N   UNL     1     -14.288  57.522  49.490  0.00  0.00    +0.000 NA
ATOM     24  C   UNL     1     -14.088  60.187  50.076  0.00  0.00    +0.000 A 
ATOM     25  C   UNL     1     -14.184  58.442  48.515  0.00  0.00    +0.000 A 
ATOM     26  C   UNL     1     -14.068  59.795  48.753  0.00  0.00    +0.000 A 
ENDBRANCH  18  21
ENDBRANCH  12  18
ENDBRANCH   1  15
BRANCH   3  27
ATOM     27  C   UNL     1     -10.913  51.649  51.588  0.00  0.00    +0.000 C 
ATOM     28  O   UNL     1     -10.922  50.429  51.455  0.00  0.00    +0.000 OA
BRANCH  27  29
ATOM     29  O   UNL     1     -11.302  52.292  52.725  0.00  0.00    +0.000 OA
BRANCH  29  30
ATOM     30  C   UNL     1     -10.335  53.103  53.401  0.00  0.00    +0.000 C 
ATOM     31  C   UNL     1      -9.146  52.278  53.848  0.00  0.00    +0.000 C 
ENDBRANCH  29  30
ENDBRANCH  27  29
ENDBRANCH   3  27
TORSDOF 6
ENDMDL
MODEL 5
REMARK VINA RESULT:      -6.9      3.949      7.491
REMARK  Name = 
REMARK  9 active torsions:
REMARK  status: ('A' for Active; 'I' for Inactive)
REMARK    1  A    between atoms: S_1  and  N_4
REMARK    2  A    between atoms: S_1  and  C_5
REMARK    3  A    between atoms: N_10  and  C_13
REMARK    4  A    between atoms: C_16  and  C_19
REMARK    5  A    between atoms: C_19  and  O_23
REMARK    6  A    between atoms: O_23  and  C_26
REMARK    7  A    between atoms: C_24  and  C_27
REMARK    8  A    between atoms: C_24  and  C_28
REMARK    9  A    between atoms: C_26  and  C_29
REMARK                            x       y       z     vdW  Elec       q    Type
REMARK                         _______ _______ _______ _____ _____    ______ ____
ROOT
ATOM      1  C   UNL     1      -8.701  54.975  47.179  0.00  0.00    +0.000 A 
ATOM      2  S   UNL     1      -7.486  54.229  46.256  0.00  0.00    +0.000 S 
ATOM      3  C   UNL     1      -9.986  54.672  46.754  0.00  0.00    +0.000 A 
ATOM      4  C   UNL     1      -8.632  53.253  45.458  0.00  0.00    +0.000 A 
ATOM      5  C   UNL     1      -9.931  53.571  45.817  0.00  0.00    +0.000 A 
ATOM      6  C   UNL     1      -8.236  52.175  44.481  0.00  0.00    +0.000 C 
ATOM      7  C   UNL     1     -11.113  52.870  45.211  0.00  0.00    +0.000 C 
ATOM      8  C   UNL     1      -9.443  51.752  43.590  0.00  0.00    +0.000 C 
ATOM      9  C   UNL     1     -10.707  51.584  44.476  0.00  0.00    +0.000 C 
ATOM     10  C   UNL     1      -9.150  50.404  42.905  0.00  0.00    +0.000 C 
ATOM     11  C   UNL     1      -9.681  52.801  42.484  0.00  0.00    +0.000 C 
ENDROOT
BRANCH   1  15
ATOM     12  N   UNL     1      -7.655  56.011  50.455  0.00  0.00    +0.000 N 
ATOM     13  C   UNL     1      -8.085  55.159  49.449  0.00  0.00    +0.000 C 
ATOM     14  O   UNL     1      -8.243  53.963  49.656  0.00  0.00    +0.000 OA
ATOM     15  N   UNL     1      -8.240  55.760  48.220  0.00  0.00    +0.000 N 
ATOM     16  H   UNL     1      -7.606  56.978  50.281  0.00  0.00    +0.000 HD
ATOM     17  H   UNL     1      -8.030  56.713  48.087  0.00  0.00    +0.000 HD
BRANCH  12  18
ATOM     18  S   UNL     1      -7.216  55.426  51.965  0.00  0.00    +0.000 S 
ATOM     19  O   UNL     1      -7.012  56.554  52.849  0.00  0.00    +0.000 OA
ATOM     20  O   UNL     1      -6.118  54.511  51.699  0.00  0.00    +0.000 OA
BRANCH  18  21
ATOM     21  C   UNL     1      -8.641  54.443  52.496  0.00  0.00    +0.000 A 
ATOM     22  N   UNL     1      -8.347  53.204  52.961  0.00  0.00    +0.000 NA
ATOM     23  N   UNL     1      -9.862  55.002  52.364  0.00  0.00    +0.000 NA
ATOM     24  C   UNL     1      -9.417  52.488  53.347  0.00  0.00    +0.000 A 
ATOM     25  C   UNL     1     -10.884  54.210  52.733  0.00  0.00    +0.000 A 
ATOM     26  C   UNL     1     -10.717  52.940  53.246  0.00  0.00    +0.000 A 
ENDBRANCH  18  21
ENDBRANCH  12  18
ENDBRANCH   1  15
BRANCH   3  27
ATOM     27  C   UNL     1     -11.206  55.393  47.158  0.00  0.00    +0.000 C 
ATOM     28  O   UNL     1     -11.916  56.009  46.371  0.00  0.00    +0.000 OA
BRANCH  27  29
ATOM     29  O   UNL     1     -11.370  55.420  48.512  0.00  0.00    +0.000 OA
BRANCH  29  30
ATOM     30  C   UNL     1     -12.440  54.651  49.073  0.00  0.00    +0.000 C 
ATOM     31  C   UNL     1     -12.031  53.206  49.266  0.00  0.00    +0.000 C 
ENDBRANCH  29  30
ENDBRANCH  27  29
ENDBRANCH   3  27
TORSDOF 6
ENDMDL
MODEL 6
REMARK VINA RESULT:      -6.7      4.095      8.078
REMARK  Name = 
REMARK  9 active torsions:
REMARK  status: ('A' for Active; 'I' for Inactive)
REMARK    1  A    between atoms: S_1  and  N_4
REMARK    2  A    between atoms: S_1  and  C_5
REMARK    3  A    between atoms: N_10  and  C_13
REMARK    4  A    between atoms: C_16  and  C_19
REMARK    5  A    between atoms: C_19  and  O_23
REMARK    6  A    between atoms: O_23  and  C_26
REMARK    7  A    between atoms: C_24  and  C_27
REMARK    8  A    between atoms: C_24  and  C_28
REMARK    9  A    between atoms: C_26  and  C_29
REMARK                            x       y       z     vdW  Elec       q    Type
REMARK                         _______ _______ _______ _____ _____    ______ ____
ROOT
ATOM      1  C   UNL     1      -8.806  54.970  47.277  0.00  0.00    +0.000 A 
ATOM      2  S   UNL     1      -7.579  54.206  46.387  0.00  0.00    +0.000 S 
ATOM      3  C   UNL     1     -10.082  54.703  46.806  0.00  0.00    +0.000 A 
ATOM      4  C   UNL     1      -8.720  53.266  45.541  0.00  0.00    +0.000 A 
ATOM      5  C   UNL     1     -10.023  53.611  45.859  0.00  0.00    +0.000 A 
ATOM      6  C   UNL     1      -8.317  52.189  44.565  0.00  0.00    +0.000 C 
ATOM      7  C   UNL     1     -11.199  52.945  45.205  0.00  0.00    +0.000 C 
ATOM      8  C   UNL     1      -9.503  51.805  43.629  0.00  0.00    +0.000 C 
ATOM      9  C   UNL     1     -10.800  51.658  44.471  0.00  0.00    +0.000 C 
ATOM     10  C   UNL     1      -9.219  50.457  42.940  0.00  0.00    +0.000 C 
ATOM     11  C   UNL     1      -9.678  52.871  42.528  0.00  0.00    +0.000 C 
ENDROOT
BRANCH   1  15
ATOM     12  N   UNL     1      -7.931  55.974  50.613  0.00  0.00    +0.000 N 
ATOM     13  C   UNL     1      -8.352  55.144  49.586  0.00  0.00    +0.000 C 
ATOM     14  O   UNL     1      -8.624  53.969  49.794  0.00  0.00    +0.000 OA
ATOM     15  N   UNL     1      -8.362  55.734  48.342  0.00  0.00    +0.000 N 
ATOM     16  H   UNL     1      -7.788  56.931  50.432  0.00  0.00    +0.000 HD
ATOM     17  H   UNL     1      -8.064  56.663  48.215  0.00  0.00    +0.000 HD
BRANCH  12  18
ATOM     18  S   UNL     1      -7.658  55.382  52.159  0.00  0.00    +0.000 S 
ATOM     19  O   UNL     1      -8.881  54.770  52.634  0.00  0.00    +0.000 OA
ATOM     20  O   UNL     1      -7.084  56.503  52.885  0.00  0.00    +0.000 OA
BRANCH  18  21
ATOM     21  C   UNL     1      -6.360  54.139  51.940  0.00  0.00    +0.000 A 
ATOM     22  N   UNL     1      -5.260  54.565  51.272  0.00  0.00    +0.000 NA
ATOM     23  N   UNL     1      -6.598  52.903  52.427  0.00  0.00    +0.000 NA
ATOM     24  C   UNL     1      -4.309  53.628  51.115  0.00  0.00    +0.000 A 
ATOM     25  C   UNL     1      -5.618  52.012  52.196  0.00  0.00    +0.000 A 
ATOM     26  C   UNL     1      -4.440  52.325  51.552  0.00  0.00    +0.000 A 
ENDBRANCH  18  21
ENDBRANCH  12  18
ENDBRANCH   1  15
BRANCH   3  27
ATOM     27  C   UNL     1     -11.298  55.449  47.177  0.00  0.00    +0.000 C 
ATOM     28  O   UNL     1     -11.932  56.141  46.387  0.00  0.00    +0.000 OA
BRANCH  27  29
ATOM     29  O   UNL     1     -11.549  55.402  48.517  0.00  0.00    +0.000 OA
BRANCH  29  30
ATOM     30  C   UNL     1     -12.228  54.252  49.033  0.00  0.00    +0.000 C 
ATOM     31  C   UNL     1     -12.092  54.168  50.538  0.00  0.00    +0.000 C 
ENDBRANCH  29  30
ENDBRANCH  27  29
ENDBRANCH   3  27
TORSDOF 6
ENDMDL
MODEL 7
REMARK VINA RESULT:      -6.7      2.558      3.276
REMARK  Name = 
REMARK  9 active torsions:
REMARK  status: ('A' for Active; 'I' for Inactive)
REMARK    1  A    between atoms: S_1  and  N_4
REMARK    2  A    between atoms: S_1  and  C_5
REMARK    3  A    between atoms: N_10  and  C_13
REMARK    4  A    between atoms: C_16  and  C_19
REMARK    5  A    between atoms: C_19  and  O_23
REMARK    6  A    between atoms: O_23  and  C_26
REMARK    7  A    between atoms: C_24  and  C_27
REMARK    8  A    between atoms: C_24  and  C_28
REMARK    9  A    between atoms: C_26  and  C_29
REMARK                            x       y       z     vdW  Elec       q    Type
REMARK                         _______ _______ _______ _____ _____    ______ ____
ROOT
ATOM      1  C   UNL     1     -10.038  54.945  50.575  0.00  0.00    +0.000 A 
ATOM      2  S   UNL     1      -9.774  55.021  52.251  0.00  0.00    +0.000 S 
ATOM      3  C   UNL     1      -9.720  53.716  50.018  0.00  0.00    +0.000 A 
ATOM      4  C   UNL     1      -9.515  53.339  52.329  0.00  0.00    +0.000 A 
ATOM      5  C   UNL     1      -9.523  52.749  51.077  0.00  0.00    +0.000 A 
ATOM      6  C   UNL     1      -9.304  52.614  53.634  0.00  0.00    +0.000 C 
ATOM      7  C   UNL     1      -9.275  51.279  50.894  0.00  0.00    +0.000 C 
ATOM      8  C   UNL     1      -8.665  51.211  53.401  0.00  0.00    +0.000 C 
ATOM      9  C   UNL     1      -9.380  50.507  52.216  0.00  0.00    +0.000 C 
ATOM     10  C   UNL     1      -8.836  50.335  54.657  0.00  0.00    +0.000 C 
ATOM     11  C   UNL     1      -7.154  51.354  53.127  0.00  0.00    +0.000 C 
ENDROOT
BRANCH   1  15
ATOM     12  N   UNL     1     -12.328  57.346  49.198  0.00  0.00    +0.000 N 
ATOM     13  C   UNL     1     -11.898  56.172  49.797  0.00  0.00    +0.000 C 
ATOM     14  O   UNL     1     -12.694  55.313  50.151  0.00  0.00    +0.000 OA
ATOM     15  N   UNL     1     -10.539  56.105  50.013  0.00  0.00    +0.000 N 
ATOM     16  H   UNL     1     -11.662  57.986  48.858  0.00  0.00    +0.000 HD
ATOM     17  H   UNL     1      -9.947  56.855  49.775  0.00  0.00    +0.000 HD
BRANCH  12  18
ATOM     18  S   UNL     1     -13.961  57.697  49.040  0.00  0.00    +0.000 S 
ATOM     19  O   UNL     1     -14.603  56.586  48.372  0.00  0.00    +0.000 OA
ATOM     20  O   UNL     1     -13.994  59.019  48.436  0.00  0.00    +0.000 OA
BRANCH  18  21
ATOM     21  C   UNL     1     -14.552  57.852  50.744  0.00  0.00    +0.000 A 
ATOM     22  N   UNL     1     -14.193  58.995  51.379  0.00  0.00    +0.000 NA
ATOM     23  N   UNL     1     -15.267  56.823  51.247  0.00  0.00    +0.000 NA
ATOM     24  C   UNL     1     -14.638  59.090  52.644  0.00  0.00    +0.000 A 
ATOM     25  C   UNL     1     -15.641  56.975  52.530  0.00  0.00    +0.000 A 
ATOM     26  C   UNL     1     -15.363  58.100  53.276  0.00  0.00    +0.000 A 
ENDBRANCH  18  21
ENDBRANCH  12  18
ENDBRANCH   1  15
BRANCH   3  27
ATOM     27  C   UNL     1      -9.560  53.452  48.577  0.00  0.00    +0.000 C 
ATOM     28  O   UNL     1     -10.489  53.133  47.843  0.00  0.00    +0.000 OA
BRANCH  27  29
ATOM     29  O   UNL     1      -8.253  53.457  48.190  0.00  0.00    +0.000 OA
BRANCH  29  30
ATOM     30  C   UNL     1      -7.714  54.673  47.661  0.00  0.00    +0.000 C 
ATOM     31  C   UNL     1      -7.598  54.609  46.152  0.00  0.00    +0.000 C 
ENDBRANCH  29  30
ENDBRANCH  27  29
ENDBRANCH   3  27
TORSDOF 6
ENDMDL
MODEL 8
REMARK VINA RESULT:      -6.6      2.186      3.019
REMARK  Name = 
REMARK  9 active torsions:
REMARK  status: ('A' for Active; 'I' for Inactive)
REMARK    1  A    between atoms: S_1  and  N_4
REMARK    2  A    between atoms: S_1  and  C_5
REMARK    3  A    between atoms: N_10  and  C_13
REMARK    4  A    between atoms: C_16  and  C_19
REMARK    5  A    between atoms: C_19  and  O_23
REMARK    6  A    between atoms: O_23  and  C_26
REMARK    7  A    between atoms: C_24  and  C_27
REMARK    8  A    between atoms: C_24  and  C_28
REMARK    9  A    between atoms: C_26  and  C_29
REMARK                            x       y       z     vdW  Elec       q    Type
REMARK                         _______ _______ _______ _____ _____    ______ ____
ROOT
ATOM      1  C   UNL     1     -10.305  53.565  50.963  0.00  0.00    +0.000 A 
ATOM      2  S   UNL     1     -10.624  53.276  52.605  0.00  0.00    +0.000 S 
ATOM      3  C   UNL     1      -8.963  53.459  50.630  0.00  0.00    +0.000 A 
ATOM      4  C   UNL     1      -9.036  52.714  52.858  0.00  0.00    +0.000 A 
ATOM      5  C   UNL     1      -8.246  52.848  51.728  0.00  0.00    +0.000 A 
ATOM      6  C   UNL     1      -8.581  52.141  54.177  0.00  0.00    +0.000 C 
ATOM      7  C   UNL     1      -6.797  52.455  51.726  0.00  0.00    +0.000 C 
ATOM      8  C   UNL     1      -7.025  52.120  54.275  0.00  0.00    +0.000 C 
ATOM      9  C   UNL     1      -6.429  51.593  52.941  0.00  0.00    +0.000 C 
ATOM     10  C   UNL     1      -6.578  51.180  55.409  0.00  0.00    +0.000 C 
ATOM     11  C   UNL     1      -6.494  53.533  54.596  0.00  0.00    +0.000 C 
ENDROOT
BRANCH   1  15
ATOM     12  N   UNL     1     -13.010  55.361  49.426  0.00  0.00    +0.000 N 
ATOM     13  C   UNL     1     -11.868  55.152  50.184  0.00  0.00    +0.000 C 
ATOM     14  O   UNL     1     -11.294  56.083  50.733  0.00  0.00    +0.000 OA
ATOM     15  N   UNL     1     -11.420  53.849  50.196  0.00  0.00    +0.000 N 
ATOM     16  H   UNL     1     -13.492  54.586  49.056  0.00  0.00    +0.000 HD
ATOM     17  H   UNL     1     -11.877  53.148  49.678  0.00  0.00    +0.000 HD
BRANCH  12  18
ATOM     18  S   UNL     1     -13.588  56.907  49.126  0.00  0.00    +0.000 S 
ATOM     19  O   UNL     1     -14.607  56.821  48.101  0.00  0.00    +0.000 OA
ATOM     20  O   UNL     1     -12.395  57.705  48.891  0.00  0.00    +0.000 OA
BRANCH  18  21
ATOM     21  C   UNL     1     -14.305  57.431  50.703  0.00  0.00    +0.000 A 
ATOM     22  N   UNL     1     -14.008  58.699  51.079  0.00  0.00    +0.000 NA
ATOM     23  N   UNL     1     -15.042  56.525  51.379  0.00  0.00    +0.000 NA
ATOM     24  C   UNL     1     -14.546  59.070  52.254  0.00  0.00    +0.000 A 
ATOM     25  C   UNL     1     -15.512  56.956  52.563  0.00  0.00    +0.000 A 
ATOM     26  C   UNL     1     -15.303  58.231  53.047  0.00  0.00    +0.000 A 
ENDBRANCH  18  21
ENDBRANCH  12  18
ENDBRANCH   1  15
BRANCH   3  27
ATOM     27  C   UNL     1      -8.358  53.941  49.376  0.00  0.00    +0.000 C 
ATOM     28  O   UNL     1      -7.917  53.193  48.510  0.00  0.00    +0.000 OA
BRANCH  27  29
ATOM     29  O   UNL     1      -8.213  55.297  49.356  0.00  0.00    +0.000 OA
BRANCH  29  30
ATOM     30  C   UNL     1      -7.097  55.863  50.051  0.00  0.00    +0.000 C 
ATOM     31  C   UNL     1      -7.555  56.816  51.134  0.00  0.00    +0.000 C 
ENDBRANCH  29  30
ENDBRANCH  27  29
ENDBRANCH   3  27
TORSDOF 6
ENDMDL
MODEL 9
REMARK VINA RESULT:      -6.5      3.738      7.395
REMARK  Name = 
REMARK  9 active torsions:
REMARK  status: ('A' for Active; 'I' for Inactive)
REMARK    1  A    between atoms: S_1  and  N_4
REMARK    2  A    between atoms: S_1  and  C_5
REMARK    3  A    between atoms: N_10  and  C_13
REMARK    4  A    between atoms: C_16  and  C_19
REMARK    5  A    between atoms: C_19  and  O_23
REMARK    6  A    between atoms: O_23  and  C_26
REMARK    7  A    between atoms: C_24  and  C_27
REMARK    8  A    between atoms: C_24  and  C_28
REMARK    9  A    between atoms: C_26  and  C_29
REMARK                            x       y       z     vdW  Elec       q    Type
REMARK                         _______ _______ _______ _____ _____    ______ ____
ROOT
ATOM      1  C   UNL     1     -11.252  54.543  50.573  0.00  0.00    +0.000 A 
ATOM      2  S   UNL     1     -11.527  55.013  52.182  0.00  0.00    +0.000 S 
ATOM      3  C   UNL     1     -12.173  55.062  49.677  0.00  0.00    +0.000 A 
ATOM      4  C   UNL     1     -12.695  56.153  51.693  0.00  0.00    +0.000 A 
ATOM      5  C   UNL     1     -12.945  56.096  50.332  0.00  0.00    +0.000 A 
ATOM      6  C   UNL     1     -13.356  57.100  52.662  0.00  0.00    +0.000 C 
ATOM      7  C   UNL     1     -13.967  56.981  49.678  0.00  0.00    +0.000 C 
ATOM      8  C   UNL     1     -14.660  57.705  52.057  0.00  0.00    +0.000 C 
ATOM      9  C   UNL     1     -14.396  58.139  50.590  0.00  0.00    +0.000 C 
ATOM     10  C   UNL     1     -15.089  58.947  52.859  0.00  0.00    +0.000 C 
ATOM     11  C   UNL     1     -15.807  56.676  52.130  0.00  0.00    +0.000 C 
ENDROOT
BRANCH   1  15
ATOM     12  N   UNL     1      -8.165  53.233  49.284  0.00  0.00    +0.000 N 
ATOM     13  C   UNL     1      -9.223  54.114  49.446  0.00  0.00    +0.000 C 
ATOM     14  O   UNL     1      -9.266  55.172  48.831  0.00  0.00    +0.000 OA
ATOM     15  N   UNL     1     -10.151  53.726  50.387  0.00  0.00    +0.000 N 
ATOM     16  H   UNL     1      -8.192  52.359  49.735  0.00  0.00    +0.000 HD
ATOM     17  H   UNL     1     -10.034  52.899  50.909  0.00  0.00    +0.000 HD
BRANCH  12  18
ATOM     18  S   UNL     1      -6.838  53.628  48.336  0.00  0.00    +0.000 S 
ATOM     19  O   UNL     1      -5.798  52.650  48.578  0.00  0.00    +0.000 OA
ATOM     20  O   UNL     1      -6.589  55.031  48.620  0.00  0.00    +0.000 OA
BRANCH  18  21
ATOM     21  C   UNL     1      -7.451  53.507  46.636  0.00  0.00    +0.000 A 
ATOM     22  N   UNL     1      -7.476  54.674  45.947  0.00  0.00    +0.000 NA
ATOM     23  N   UNL     1      -7.852  52.292  46.208  0.00  0.00    +0.000 NA
ATOM     24  C   UNL     1      -7.937  54.565  44.689  0.00  0.00    +0.000 A 
ATOM     25  C   UNL     1      -8.338  52.271  44.954  0.00  0.00    +0.000 A 
ATOM     26  C   UNL     1      -8.393  53.383  44.141  0.00  0.00    +0.000 A 
ENDBRANCH  18  21
ENDBRANCH  12  18
ENDBRANCH   1  15
BRANCH   3  27
ATOM     27  C   UNL     1     -12.366  54.597  48.292  0.00  0.00    +0.000 C 
ATOM     28  O   UNL     1     -12.540  55.356  47.344  0.00  0.00    +0.000 OA
BRANCH  27  29
ATOM     29  O   UNL     1     -12.477  53.240  48.209  0.00  0.00    +0.000 OA
BRANCH  29  30
ATOM     30  C   UNL     1     -11.813  52.577  47.129  0.00  0.00    +0.000 C 
ATOM     31  C   UNL     1     -12.343  51.171  46.943  0.00  0.00    +0.000 C 
ENDBRANCH  29  30
ENDBRANCH  27  29
ENDBRANCH   3  27
TORSDOF 6
ENDMDL
