MODEL 1
REMARK VINA RESULT:      -8.0      0.000      0.000
REMARK  Name = 
REMARK  9 active torsions:
REMARK  status: ('A' for Active; 'I' for Inactive)
REMARK    1  A    between atoms: S_1  and  N_4
REMARK    2  A    between atoms: S_1  and  C_5
REMARK    3  A    between atoms: N_10  and  C_13
REMARK    4  A    between atoms: C_16  and  C_19
REMARK    5  A    between atoms: C_19  and  O_23
REMARK    6  A    between atoms: O_23  and  C_26
REMARK    7  A    between atoms: C_24  and  C_27
REMARK    8  A    between atoms: C_24  and  C_28
REMARK    9  A    between atoms: C_26  and  C_29
REMARK                            x       y       z     vdW  Elec       q    Type
REMARK                         _______ _______ _______ _____ _____    ______ ____
ROOT
ATOM      1  C   UNL     1     -10.917  54.506  51.444  0.00  0.00    +0.000 A 
ATOM      2  S   UNL     1     -10.543  53.731  52.908  0.00  0.00    +0.000 S 
ATOM      3  C   UNL     1      -9.825  55.115  50.845  0.00  0.00    +0.000 A 
ATOM      4  C   UNL     1      -8.872  53.927  52.636  0.00  0.00    +0.000 A 
ATOM      5  C   UNL     1      -8.612  54.672  51.497  0.00  0.00    +0.000 A 
ATOM      6  C   UNL     1      -7.828  53.344  53.555  0.00  0.00    +0.000 C 
ATOM      7  C   UNL     1      -7.209  55.012  51.078  0.00  0.00    +0.000 C 
ATOM      8  C   UNL     1      -6.442  54.024  53.335  0.00  0.00    +0.000 C 
ATOM      9  C   UNL     1      -6.168  54.159  51.813  0.00  0.00    +0.000 C 
ATOM     10  C   UNL     1      -5.324  53.163  53.951  0.00  0.00    +0.000 C 
ATOM     11  C   UNL     1      -6.413  55.403  54.024  0.00  0.00    +0.000 C 
ENDROOT
BRANCH   1  15
ATOM     12  N   UNL     1     -14.414  55.239  51.086  0.00  0.00    +0.000 N 
ATOM     13  C   UNL     1     -13.099  55.422  51.472  0.00  0.00    +0.000 C 
ATOM     14  O   UNL     1     -12.745  56.425  52.071  0.00  0.00    +0.000 OA
ATOM     15  N   UNL     1     -12.243  54.418  51.065  0.00  0.00    +0.000 N 
ATOM     16  H   UNL     1     -14.676  54.384  50.676  0.00  0.00    +0.000 HD
ATOM     17  H   UNL     1     -12.567  53.665  50.521  0.00  0.00    +0.000 HD
BRANCH  12  18
ATOM     18  S   UNL     1     -15.572  56.427  51.297  0.00  0.00    +0.000 S 
ATOM     19  O   UNL     1     -15.656  56.752  52.706  0.00  0.00    +0.000 OA
ATOM     20  O   UNL     1     -16.751  55.956  50.592  0.00  0.00    +0.000 OA
BRANCH  18  21
ATOM     21  C   UNL     1     -14.920  57.842  50.404  0.00  0.00    +0.000 A 
ATOM     22  N   UNL     1     -14.334  57.531  49.213  0.00  0.00    +0.000 NA
ATOM     23  C   UNL     1     -15.017  59.118  50.944  0.00  0.00    +0.000 A 
ATOM     24  C   UNL     1     -13.850  58.582  48.514  0.00  0.00    +0.000 A 
ATOM     25  C   UNL     1     -14.487  60.166  50.195  0.00  0.00    +0.000 A 
ATOM     26  C   UNL     1     -13.899  59.896  48.959  0.00  0.00    +0.000 A 
ENDBRANCH  18  21
ENDBRANCH  12  18
ENDBRANCH   1  15
BRANCH   3  27
ATOM     27  C   UNL     1      -9.895  56.102  49.753  0.00  0.00    +0.000 C 
ATOM     28  O   UNL     1      -9.168  57.087  49.688  0.00  0.00    +0.000 OA
BRANCH  27  29
ATOM     29  O   UNL     1     -10.957  55.884  48.924  0.00  0.00    +0.000 OA
BRANCH  29  30
ATOM     30  C   UNL     1     -10.704  55.278  47.651  0.00  0.00    +0.000 C 
ATOM     31  C   UNL     1     -11.780  55.648  46.650  0.00  0.00    +0.000 C 
ENDBRANCH  29  30
ENDBRANCH  27  29
ENDBRANCH   3  27
TORSDOF 6
ENDMDL
MODEL 2
REMARK VINA RESULT:      -7.7      2.807      7.690
REMARK  Name = 
REMARK  9 active torsions:
REMARK  status: ('A' for Active; 'I' for Inactive)
REMARK    1  A    between atoms: S_1  and  N_4
REMARK    2  A    between atoms: S_1  and  C_5
REMARK    3  A    between atoms: N_10  and  C_13
REMARK    4  A    between atoms: C_16  and  C_19
REMARK    5  A    between atoms: C_19  and  O_23
REMARK    6  A    between atoms: O_23  and  C_26
REMARK    7  A    between atoms: C_24  and  C_27
REMARK    8  A    between atoms: C_24  and  C_28
REMARK    9  A    between atoms: C_26  and  C_29
REMARK                            x       y       z     vdW  Elec       q    Type
REMARK                         _______ _______ _______ _____ _____    ______ ____
ROOT
ATOM      1  C   UNL     1     -11.024  54.813  50.095  0.00  0.00    +0.000 A 
ATOM      2  S   UNL     1     -11.716  54.791  51.646  0.00  0.00    +0.000 S 
ATOM      3  C   UNL     1     -11.644  55.695  49.224  0.00  0.00    +0.000 A 
ATOM      4  C   UNL     1     -12.662  56.164  51.291  0.00  0.00    +0.000 A 
ATOM      5  C   UNL     1     -12.529  56.562  49.971  0.00  0.00    +0.000 A 
ATOM      6  C   UNL     1     -13.532  56.836  52.323  0.00  0.00    +0.000 C 
ATOM      7  C   UNL     1     -13.302  57.725  49.415  0.00  0.00    +0.000 C 
ATOM      8  C   UNL     1     -14.594  57.758  51.649  0.00  0.00    +0.000 C 
ATOM      9  C   UNL     1     -13.918  58.587  50.523  0.00  0.00    +0.000 C 
ATOM     10  C   UNL     1     -15.181  58.737  52.682  0.00  0.00    +0.000 C 
ATOM     11  C   UNL     1     -15.753  56.910  51.087  0.00  0.00    +0.000 C 
ENDROOT
BRANCH   1  15
ATOM     12  N   UNL     1      -7.671  53.533  49.981  0.00  0.00    +0.000 N 
ATOM     13  C   UNL     1      -8.690  54.438  50.212  0.00  0.00    +0.000 C 
ATOM     14  O   UNL     1      -8.466  55.542  50.683  0.00  0.00    +0.000 OA
ATOM     15  N   UNL     1      -9.952  53.956  49.928  0.00  0.00    +0.000 N 
ATOM     16  H   UNL     1      -7.879  52.685  49.527  0.00  0.00    +0.000 HD
ATOM     17  H   UNL     1     -10.084  53.032  49.617  0.00  0.00    +0.000 HD
BRANCH  12  18
ATOM     18  S   UNL     1      -6.094  53.837  50.447  0.00  0.00    +0.000 S 
ATOM     19  O   UNL     1      -5.722  55.163  49.998  0.00  0.00    +0.000 OA
ATOM     20  O   UNL     1      -5.326  52.685  50.010  0.00  0.00    +0.000 OA
BRANCH  18  21
ATOM     21  C   UNL     1      -6.152  53.817  52.241  0.00  0.00    +0.000 A 
ATOM     22  N   UNL     1      -5.777  54.990  52.826  0.00  0.00    +0.000 NA
ATOM     23  C   UNL     1      -6.535  52.667  52.918  0.00  0.00    +0.000 A 
ATOM     24  C   UNL     1      -5.827  55.006  54.177  0.00  0.00    +0.000 A 
ATOM     25  C   UNL     1      -6.554  52.726  54.310  0.00  0.00    +0.000 A 
ATOM     26  C   UNL     1      -6.200  53.914  54.950  0.00  0.00    +0.000 A 
ENDBRANCH  18  21
ENDBRANCH  12  18
ENDBRANCH   1  15
BRANCH   3  27
ATOM     27  C   UNL     1     -11.469  55.710  47.761  0.00  0.00    +0.000 C 
ATOM     28  O   UNL     1     -12.401  55.620  46.971  0.00  0.00    +0.000 OA
BRANCH  27  29
ATOM     29  O   UNL     1     -10.154  55.670  47.395  0.00  0.00    +0.000 OA
BRANCH  29  30
ATOM     30  C   UNL     1      -9.759  54.708  46.411  0.00  0.00    +0.000 C 
ATOM     31  C   UNL     1      -8.308  54.898  46.018  0.00  0.00    +0.000 C 
ENDBRANCH  29  30
ENDBRANCH  27  29
ENDBRANCH   3  27
TORSDOF 6
ENDMDL
MODEL 3
REMARK VINA RESULT:      -7.2      3.789      5.990
REMARK  Name = 
REMARK  9 active torsions:
REMARK  status: ('A' for Active; 'I' for Inactive)
REMARK    1  A    between atoms: S_1  and  N_4
REMARK    2  A    between atoms: S_1  and  C_5
REMARK    3  A    between atoms: N_10  and  C_13
REMARK    4  A    between atoms: C_16  and  C_19
REMARK    5  A    between atoms: C_19  and  O_23
REMARK    6  A    between atoms: O_23  and  C_26
REMARK    7  A    between atoms: C_24  and  C_27
REMARK    8  A    between atoms: C_24  and  C_28
REMARK    9  A    between atoms: C_26  and  C_29
REMARK                            x       y       z     vdW  Elec       q    Type
REMARK                         _______ _______ _______ _____ _____    ______ ____
ROOT
ATOM      1  C   UNL     1     -11.036  53.104  47.635  0.00  0.00    +0.000 A 
ATOM      2  S   UNL     1     -12.004  52.376  46.445  0.00  0.00    +0.000 S 
ATOM      3  C   UNL     1      -9.678  52.891  47.451  0.00  0.00    +0.000 A 
ATOM      4  C   UNL     1     -10.639  52.014  45.492  0.00  0.00    +0.000 A 
ATOM      5  C   UNL     1      -9.454  52.347  46.129  0.00  0.00    +0.000 A 
ATOM      6  C   UNL     1     -10.749  51.399  44.120  0.00  0.00    +0.000 C 
ATOM      7  C   UNL     1      -8.116  52.079  45.500  0.00  0.00    +0.000 C 
ATOM      8  C   UNL     1      -9.390  50.781  43.669  0.00  0.00    +0.000 C 
ATOM      9  C   UNL     1      -8.238  51.765  44.004  0.00  0.00    +0.000 C 
ATOM     10  C   UNL     1      -9.393  50.541  42.148  0.00  0.00    +0.000 C 
ATOM     11  C   UNL     1      -9.171  49.421  44.363  0.00  0.00    +0.000 C 
ENDROOT
BRANCH   1  15
ATOM     12  N   UNL     1     -12.776  55.729  49.360  0.00  0.00    +0.000 N 
ATOM     13  C   UNL     1     -12.119  55.092  48.324  0.00  0.00    +0.000 C 
ATOM     14  O   UNL     1     -11.958  55.636  47.243  0.00  0.00    +0.000 OA
ATOM     15  N   UNL     1     -11.734  53.797  48.606  0.00  0.00    +0.000 N 
ATOM     16  H   UNL     1     -12.817  55.290  50.241  0.00  0.00    +0.000 HD
ATOM     17  H   UNL     1     -11.951  53.379  49.470  0.00  0.00    +0.000 HD
BRANCH  12  18
ATOM     18  S   UNL     1     -13.503  57.221  49.164  0.00  0.00    +0.000 S 
ATOM     19  O   UNL     1     -14.543  57.105  48.162  0.00  0.00    +0.000 OA
ATOM     20  O   UNL     1     -12.416  58.166  48.971  0.00  0.00    +0.000 OA
BRANCH  18  21
ATOM     21  C   UNL     1     -14.256  57.559  50.759  0.00  0.00    +0.000 A 
ATOM     22  N   UNL     1     -14.097  58.843  51.191  0.00  0.00    +0.000 NA
ATOM     23  C   UNL     1     -14.911  56.551  51.453  0.00  0.00    +0.000 A 
ATOM     24  C   UNL     1     -14.669  59.127  52.383  0.00  0.00    +0.000 A 
ATOM     25  C   UNL     1     -15.468  56.888  52.685  0.00  0.00    +0.000 A 
ATOM     26  C   UNL     1     -15.351  58.196  53.155  0.00  0.00    +0.000 A 
ENDBRANCH  18  21
ENDBRANCH  12  18
ENDBRANCH   1  15
BRANCH   3  27
ATOM     27  C   UNL     1      -8.635  53.130  48.463  0.00  0.00    +0.000 C 
ATOM     28  O   UNL     1      -7.718  52.347  48.683  0.00  0.00    +0.000 OA
BRANCH  27  29
ATOM     29  O   UNL     1      -8.897  54.229  49.229  0.00  0.00    +0.000 OA
BRANCH  29  30
ATOM     30  C   UNL     1      -8.291  55.471  48.855  0.00  0.00    +0.000 C 
ATOM     31  C   UNL     1      -9.018  56.642  49.484  0.00  0.00    +0.000 C 
ENDBRANCH  29  30
ENDBRANCH  27  29
ENDBRANCH   3  27
TORSDOF 6
ENDMDL
MODEL 4
REMARK VINA RESULT:      -7.2      3.060      8.141
REMARK  Name = 
REMARK  9 active torsions:
REMARK  status: ('A' for Active; 'I' for Inactive)
REMARK    1  A    between atoms: S_1  and  N_4
REMARK    2  A    between atoms: S_1  and  C_5
REMARK    3  A    between atoms: N_10  and  C_13
REMARK    4  A    between atoms: C_16  and  C_19
REMARK    5  A    between atoms: C_19  and  O_23
REMARK    6  A    between atoms: O_23  and  C_26
REMARK    7  A    between atoms: C_24  and  C_27
REMARK    8  A    between atoms: C_24  and  C_28
REMARK    9  A    between atoms: C_26  and  C_29
REMARK                            x       y       z     vdW  Elec       q    Type
REMARK                         _______ _______ _______ _____ _____    ______ ____
ROOT
ATOM      1  C   UNL     1     -11.197  55.061  50.285  0.00  0.00    +0.000 A 
ATOM      2  S   UNL     1     -11.672  55.180  51.912  0.00  0.00    +0.000 S 
ATOM      3  C   UNL     1     -12.013  55.770  49.417  0.00  0.00    +0.000 A 
ATOM      4  C   UNL     1     -12.790  56.411  51.542  0.00  0.00    +0.000 A 
ATOM      5  C   UNL     1     -12.875  56.647  50.179  0.00  0.00    +0.000 A 
ATOM      6  C   UNL     1     -13.579  57.134  52.604  0.00  0.00    +0.000 C 
ATOM      7  C   UNL     1     -13.828  57.660  49.610  0.00  0.00    +0.000 C 
ATOM      8  C   UNL     1     -14.809  57.870  51.988  0.00  0.00    +0.000 C 
ATOM      9  C   UNL     1     -14.377  58.602  50.689  0.00  0.00    +0.000 C 
ATOM     10  C   UNL     1     -15.350  58.920  52.976  0.00  0.00    +0.000 C 
ATOM     11  C   UNL     1     -15.940  56.862  51.701  0.00  0.00    +0.000 C 
ENDROOT
BRANCH   1  15
ATOM     12  N   UNL     1      -7.770  54.026  50.008  0.00  0.00    +0.000 N 
ATOM     13  C   UNL     1      -8.839  54.855  50.290  0.00  0.00    +0.000 C 
ATOM     14  O   UNL     1      -8.673  55.973  50.752  0.00  0.00    +0.000 OA
ATOM     15  N   UNL     1     -10.076  54.284  50.065  0.00  0.00    +0.000 N 
ATOM     16  H   UNL     1      -7.938  53.164  49.563  0.00  0.00    +0.000 HD
ATOM     17  H   UNL     1     -10.156  53.352  49.758  0.00  0.00    +0.000 HD
BRANCH  12  18
ATOM     18  S   UNL     1      -6.199  54.443  50.399  0.00  0.00    +0.000 S 
ATOM     19  O   UNL     1      -6.135  54.746  51.814  0.00  0.00    +0.000 OA
ATOM     20  O   UNL     1      -5.805  55.448  49.426  0.00  0.00    +0.000 OA
BRANCH  18  21
ATOM     21  C   UNL     1      -5.252  52.953  50.072  0.00  0.00    +0.000 A 
ATOM     22  N   UNL     1      -5.152  52.109  51.138  0.00  0.00    +0.000 NA
ATOM     23  C   UNL     1      -4.677  52.747  48.825  0.00  0.00    +0.000 A 
ATOM     24  C   UNL     1      -4.457  50.971  50.912  0.00  0.00    +0.000 A 
ATOM     25  C   UNL     1      -3.955  51.568  48.646  0.00  0.00    +0.000 A 
ATOM     26  C   UNL     1      -3.847  50.664  49.703  0.00  0.00    +0.000 A 
ENDBRANCH  18  21
ENDBRANCH  12  18
ENDBRANCH   1  15
BRANCH   3  27
ATOM     27  C   UNL     1     -12.036  55.612  47.952  0.00  0.00    +0.000 C 
ATOM     28  O   UNL     1     -12.664  56.354  47.205  0.00  0.00    +0.000 OA
BRANCH  27  29
ATOM     29  O   UNL     1     -11.422  54.462  47.545  0.00  0.00    +0.000 OA
BRANCH  29  30
ATOM     30  C   UNL     1     -10.631  54.509  46.352  0.00  0.00    +0.000 C 
ATOM     31  C   UNL     1      -9.309  55.206  46.604  0.00  0.00    +0.000 C 
ENDBRANCH  29  30
ENDBRANCH  27  29
ENDBRANCH   3  27
TORSDOF 6
ENDMDL
MODEL 5
REMARK VINA RESULT:      -7.0      1.710      1.911
REMARK  Name = 
REMARK  9 active torsions:
REMARK  status: ('A' for Active; 'I' for Inactive)
REMARK    1  A    between atoms: S_1  and  N_4
REMARK    2  A    between atoms: S_1  and  C_5
REMARK    3  A    between atoms: N_10  and  C_13
REMARK    4  A    between atoms: C_16  and  C_19
REMARK    5  A    between atoms: C_19  and  O_23
REMARK    6  A    between atoms: O_23  and  C_26
REMARK    7  A    between atoms: C_24  and  C_27
REMARK    8  A    between atoms: C_24  and  C_28
REMARK    9  A    between atoms: C_26  and  C_29
REMARK                            x       y       z     vdW  Elec       q    Type
REMARK                         _______ _______ _______ _____ _____    ______ ____
ROOT
ATOM      1  C   UNL     1     -11.095  53.678  50.803  0.00  0.00    +0.000 A 
ATOM      2  S   UNL     1     -10.487  52.726  52.072  0.00  0.00    +0.000 S 
ATOM      3  C   UNL     1     -10.153  53.967  49.828  0.00  0.00    +0.000 A 
ATOM      4  C   UNL     1      -9.046  52.424  51.215  0.00  0.00    +0.000 A 
ATOM      5  C   UNL     1      -8.988  53.132  50.024  0.00  0.00    +0.000 A 
ATOM      6  C   UNL     1      -7.979  51.490  51.728  0.00  0.00    +0.000 C 
ATOM      7  C   UNL     1      -7.791  53.059  49.119  0.00  0.00    +0.000 C 
ATOM      8  C   UNL     1      -6.622  51.731  50.998  0.00  0.00    +0.000 C 
ATOM      9  C   UNL     1      -6.874  51.882  49.474  0.00  0.00    +0.000 C 
ATOM     10  C   UNL     1      -5.681  50.532  51.215  0.00  0.00    +0.000 C 
ATOM     11  C   UNL     1      -5.929  52.986  51.568  0.00  0.00    +0.000 C 
ENDROOT
BRANCH   1  15
ATOM     12  N   UNL     1     -14.085  55.471  51.659  0.00  0.00    +0.000 N 
ATOM     13  C   UNL     1     -12.732  55.220  51.541  0.00  0.00    +0.000 C 
ATOM     14  O   UNL     1     -11.899  56.034  51.907  0.00  0.00    +0.000 OA
ATOM     15  N   UNL     1     -12.428  54.022  50.925  0.00  0.00    +0.000 N 
ATOM     16  H   UNL     1     -14.725  54.760  51.426  0.00  0.00    +0.000 HD
ATOM     17  H   UNL     1     -13.138  53.433  50.582  0.00  0.00    +0.000 HD
BRANCH  12  18
ATOM     18  S   UNL     1     -14.670  56.946  52.187  0.00  0.00    +0.000 S 
ATOM     19  O   UNL     1     -13.830  57.421  53.268  0.00  0.00    +0.000 OA
ATOM     20  O   UNL     1     -16.091  56.749  52.409  0.00  0.00    +0.000 OA
BRANCH  18  21
ATOM     21  C   UNL     1     -14.474  58.031  50.769  0.00  0.00    +0.000 A 
ATOM     22  N   UNL     1     -14.260  57.379  49.591  0.00  0.00    +0.000 NA
ATOM     23  C   UNL     1     -14.526  59.410  50.928  0.00  0.00    +0.000 A 
ATOM     24  C   UNL     1     -14.125  58.174  48.506  0.00  0.00    +0.000 A 
ATOM     25  C   UNL     1     -14.365  60.187  49.784  0.00  0.00    +0.000 A 
ATOM     26  C   UNL     1     -14.166  59.561  48.553  0.00  0.00    +0.000 A 
ENDBRANCH  18  21
ENDBRANCH  12  18
ENDBRANCH   1  15
BRANCH   3  27
ATOM     27  C   UNL     1     -10.296  55.001  48.788  0.00  0.00    +0.000 C 
ATOM     28  O   UNL     1      -9.581  55.995  48.725  0.00  0.00    +0.000 OA
BRANCH  27  29
ATOM     29  O   UNL     1     -11.405  54.810  48.015  0.00  0.00    +0.000 OA
BRANCH  29  30
ATOM     30  C   UNL     1     -11.387  53.738  47.066  0.00  0.00    +0.000 C 
ATOM     31  C   UNL     1     -10.545  54.094  45.859  0.00  0.00    +0.000 C 
ENDBRANCH  29  30
ENDBRANCH  27  29
ENDBRANCH   3  27
TORSDOF 6
ENDMDL
MODEL 6
REMARK VINA RESULT:      -7.0      3.863      7.384
REMARK  Name = 
REMARK  9 active torsions:
REMARK  status: ('A' for Active; 'I' for Inactive)
REMARK    1  A    between atoms: S_1  and  N_4
REMARK    2  A    between atoms: S_1  and  C_5
REMARK    3  A    between atoms: N_10  and  C_13
REMARK    4  A    between atoms: C_16  and  C_19
REMARK    5  A    between atoms: C_19  and  O_23
REMARK    6  A    between atoms: O_23  and  C_26
REMARK    7  A    between atoms: C_24  and  C_27
REMARK    8  A    between atoms: C_24  and  C_28
REMARK    9  A    between atoms: C_26  and  C_29
REMARK                            x       y       z     vdW  Elec       q    Type
REMARK                         _______ _______ _______ _____ _____    ______ ____
ROOT
ATOM      1  C   UNL     1     -11.415  55.046  50.007  0.00  0.00    +0.000 A 
ATOM      2  S   UNL     1     -11.770  55.106  51.667  0.00  0.00    +0.000 S 
ATOM      3  C   UNL     1     -12.271  55.810  49.229  0.00  0.00    +0.000 A 
ATOM      4  C   UNL     1     -12.880  56.378  51.428  0.00  0.00    +0.000 A 
ATOM      5  C   UNL     1     -13.054  56.674  50.086  0.00  0.00    +0.000 A 
ATOM      6  C   UNL     1     -13.573  57.073  52.573  0.00  0.00    +0.000 C 
ATOM      7  C   UNL     1     -14.018  57.732  49.629  0.00  0.00    +0.000 C 
ATOM      8  C   UNL     1     -14.823  57.862  52.078  0.00  0.00    +0.000 C 
ATOM      9  C   UNL     1     -14.465  58.639  50.782  0.00  0.00    +0.000 C 
ATOM     10  C   UNL     1     -15.266  58.882  53.144  0.00  0.00    +0.000 C 
ATOM     11  C   UNL     1     -15.998  56.894  51.831  0.00  0.00    +0.000 C 
ENDROOT
BRANCH   1  15
ATOM     12  N   UNL     1      -9.413  52.172  49.216  0.00  0.00    +0.000 N 
ATOM     13  C   UNL     1     -10.551  52.900  49.506  0.00  0.00    +0.000 C 
ATOM     14  O   UNL     1     -11.652  52.373  49.545  0.00  0.00    +0.000 OA
ATOM     15  N   UNL     1     -10.332  54.253  49.675  0.00  0.00    +0.000 N 
ATOM     16  H   UNL     1      -8.536  52.616  49.271  0.00  0.00    +0.000 HD
ATOM     17  H   UNL     1      -9.435  54.640  49.562  0.00  0.00    +0.000 HD
BRANCH  12  18
ATOM     18  S   UNL     1      -9.481  50.561  48.774  0.00  0.00    +0.000 S 
ATOM     19  O   UNL     1     -10.421  49.879  49.640  0.00  0.00    +0.000 OA
ATOM     20  O   UNL     1      -8.101  50.112  48.711  0.00  0.00    +0.000 OA
BRANCH  18  21
ATOM     21  C   UNL     1     -10.134  50.588  47.102  0.00  0.00    +0.000 A 
ATOM     22  N   UNL     1      -9.215  50.916  46.149  0.00  0.00    +0.000 NA
ATOM     23  C   UNL     1     -11.473  50.310  46.867  0.00  0.00    +0.000 A 
ATOM     24  C   UNL     1      -9.679  50.928  44.879  0.00  0.00    +0.000 A 
ATOM     25  C   UNL     1     -11.908  50.352  45.544  0.00  0.00    +0.000 A 
ATOM     26  C   UNL     1     -10.997  50.660  44.534  0.00  0.00    +0.000 A 
ENDBRANCH  18  21
ENDBRANCH  12  18
ENDBRANCH   1  15
BRANCH   3  27
ATOM     27  C   UNL     1     -12.402  55.715  47.765  0.00  0.00    +0.000 C 
ATOM     28  O   UNL     1     -12.763  56.650  47.059  0.00  0.00    +0.000 OA
BRANCH  27  29
ATOM     29  O   UNL     1     -12.237  54.438  47.311  0.00  0.00    +0.000 OA
BRANCH  29  30
ATOM     30  C   UNL     1     -11.627  54.254  46.028  0.00  0.00    +0.000 C 
ATOM     31  C   UNL     1     -10.124  54.425  46.112  0.00  0.00    +0.000 C 
ENDBRANCH  29  30
ENDBRANCH  27  29
ENDBRANCH   3  27
TORSDOF 6
ENDMDL
MODEL 7
REMARK VINA RESULT:      -7.0      2.380      3.071
REMARK  Name = 
REMARK  9 active torsions:
REMARK  status: ('A' for Active; 'I' for Inactive)
REMARK    1  A    between atoms: S_1  and  N_4
REMARK    2  A    between atoms: S_1  and  C_5
REMARK    3  A    between atoms: N_10  and  C_13
REMARK    4  A    between atoms: C_16  and  C_19
REMARK    5  A    between atoms: C_19  and  O_23
REMARK    6  A    between atoms: O_23  and  C_26
REMARK    7  A    between atoms: C_24  and  C_27
REMARK    8  A    between atoms: C_24  and  C_28
REMARK    9  A    between atoms: C_26  and  C_29
REMARK                            x       y       z     vdW  Elec       q    Type
REMARK                         _______ _______ _______ _____ _____    ______ ____
ROOT
ATOM      1  C   UNL     1      -9.903  54.996  50.783  0.00  0.00    +0.000 A 
ATOM      2  S   UNL     1     -10.076  54.985  52.472  0.00  0.00    +0.000 S 
ATOM      3  C   UNL     1      -9.239  53.885  50.287  0.00  0.00    +0.000 A 
ATOM      4  C   UNL     1      -9.541  53.370  52.561  0.00  0.00    +0.000 A 
ATOM      5  C   UNL     1      -9.133  52.886  51.328  0.00  0.00    +0.000 A 
ATOM      6  C   UNL     1      -9.526  52.592  53.853  0.00  0.00    +0.000 C 
ATOM      7  C   UNL     1      -8.580  51.498  51.167  0.00  0.00    +0.000 C 
ATOM      8  C   UNL     1      -8.606  51.337  53.743  0.00  0.00    +0.000 C 
ATOM      9  C   UNL     1      -8.868  50.620  52.391  0.00  0.00    +0.000 C 
ATOM     10  C   UNL     1      -8.918  50.348  54.882  0.00  0.00    +0.000 C 
ATOM     11  C   UNL     1      -7.126  51.753  53.867  0.00  0.00    +0.000 C 
ENDROOT
BRANCH   1  15
ATOM     12  N   UNL     1     -12.266  57.238  49.272  0.00  0.00    +0.000 N 
ATOM     13  C   UNL     1     -11.809  56.120  49.943  0.00  0.00    +0.000 C 
ATOM     14  O   UNL     1     -12.579  55.266  50.355  0.00  0.00    +0.000 OA
ATOM     15  N   UNL     1     -10.445  56.101  50.152  0.00  0.00    +0.000 N 
ATOM     16  H   UNL     1     -11.611  57.864  48.887  0.00  0.00    +0.000 HD
ATOM     17  H   UNL     1      -9.876  56.850  49.863  0.00  0.00    +0.000 HD
BRANCH  12  18
ATOM     18  S   UNL     1     -13.897  57.560  49.095  0.00  0.00    +0.000 S 
ATOM     19  O   UNL     1     -14.548  56.386  48.552  0.00  0.00    +0.000 OA
ATOM     20  O   UNL     1     -13.973  58.823  48.382  0.00  0.00    +0.000 OA
BRANCH  18  21
ATOM     21  C   UNL     1     -14.479  57.834  50.771  0.00  0.00    +0.000 A 
ATOM     22  N   UNL     1     -15.155  56.779  51.307  0.00  0.00    +0.000 NA
ATOM     23  C   UNL     1     -14.246  59.047  51.405  0.00  0.00    +0.000 A 
ATOM     24  C   UNL     1     -15.590  56.954  52.576  0.00  0.00    +0.000 A 
ATOM     25  C   UNL     1     -14.729  59.187  52.705  0.00  0.00    +0.000 A 
ATOM     26  C   UNL     1     -15.407  58.123  53.302  0.00  0.00    +0.000 A 
ENDBRANCH  18  21
ENDBRANCH  12  18
ENDBRANCH   1  15
BRANCH   3  27
ATOM     27  C   UNL     1      -8.681  53.764  48.928  0.00  0.00    +0.000 C 
ATOM     28  O   UNL     1      -7.478  53.719  48.696  0.00  0.00    +0.000 OA
BRANCH  27  29
ATOM     29  O   UNL     1      -9.640  53.872  47.962  0.00  0.00    +0.000 OA
BRANCH  29  30
ATOM     30  C   UNL     1     -10.623  52.835  47.871  0.00  0.00    +0.000 C 
ATOM     31  C   UNL     1     -11.965  53.396  47.447  0.00  0.00    +0.000 C 
ENDBRANCH  29  30
ENDBRANCH  27  29
ENDBRANCH   3  27
TORSDOF 6
ENDMDL
MODEL 8
REMARK VINA RESULT:      -7.0      2.568      4.349
REMARK  Name = 
REMARK  9 active torsions:
REMARK  status: ('A' for Active; 'I' for Inactive)
REMARK    1  A    between atoms: S_1  and  N_4
REMARK    2  A    between atoms: S_1  and  C_5
REMARK    3  A    between atoms: N_10  and  C_13
REMARK    4  A    between atoms: C_16  and  C_19
REMARK    5  A    between atoms: C_19  and  O_23
REMARK    6  A    between atoms: O_23  and  C_26
REMARK    7  A    between atoms: C_24  and  C_27
REMARK    8  A    between atoms: C_24  and  C_28
REMARK    9  A    between atoms: C_26  and  C_29
REMARK                            x       y       z     vdW  Elec       q    Type
REMARK                         _______ _______ _______ _____ _____    ______ ____
ROOT
ATOM      1  C   UNL     1      -8.645  53.678  51.738  0.00  0.00    +0.000 A 
ATOM      2  S   UNL     1      -8.751  52.045  51.284  0.00  0.00    +0.000 S 
ATOM      3  C   UNL     1      -7.345  54.160  51.774  0.00  0.00    +0.000 A 
ATOM      4  C   UNL     1      -7.107  52.017  50.835  0.00  0.00    +0.000 A 
ATOM      5  C   UNL     1      -6.464  53.208  51.133  0.00  0.00    +0.000 A 
ATOM      6  C   UNL     1      -6.464  50.814  50.193  0.00  0.00    +0.000 C 
ATOM      7  C   UNL     1      -4.998  53.403  50.867  0.00  0.00    +0.000 C 
ATOM      8  C   UNL     1      -4.909  50.888  50.291  0.00  0.00    +0.000 C 
ATOM      9  C   UNL     1      -4.436  52.323  49.934  0.00  0.00    +0.000 C 
ATOM     10  C   UNL     1      -4.265  49.906  49.294  0.00  0.00    +0.000 C 
ATOM     11  C   UNL     1      -4.448  50.494  51.709  0.00  0.00    +0.000 C 
ENDROOT
BRANCH   1  15
ATOM     12  N   UNL     1     -11.661  55.584  51.335  0.00  0.00    +0.000 N 
ATOM     13  C   UNL     1     -10.474  54.973  50.978  0.00  0.00    +0.000 C 
ATOM     14  O   UNL     1     -10.060  55.009  49.830  0.00  0.00    +0.000 OA
ATOM     15  N   UNL     1      -9.858  54.285  52.004  0.00  0.00    +0.000 N 
ATOM     16  H   UNL     1     -11.922  55.602  52.284  0.00  0.00    +0.000 HD
ATOM     17  H   UNL     1     -10.270  54.227  52.895  0.00  0.00    +0.000 HD
BRANCH  12  18
ATOM     18  S   UNL     1     -12.666  56.295  50.204  0.00  0.00    +0.000 S 
ATOM     19  O   UNL     1     -13.483  55.266  49.594  0.00  0.00    +0.000 OA
ATOM     20  O   UNL     1     -11.805  57.120  49.375  0.00  0.00    +0.000 OA
BRANCH  18  21
ATOM     21  C   UNL     1     -13.717  57.385  51.170  0.00  0.00    +0.000 A 
ATOM     22  N   UNL     1     -14.044  58.549  50.540  0.00  0.00    +0.000 NA
ATOM     23  C   UNL     1     -14.111  57.025  52.452  0.00  0.00    +0.000 A 
ATOM     24  C   UNL     1     -14.847  59.380  51.241  0.00  0.00    +0.000 A 
ATOM     25  C   UNL     1     -14.924  57.922  53.141  0.00  0.00    +0.000 A 
ATOM     26  C   UNL     1     -15.302  59.116  52.526  0.00  0.00    +0.000 A 
ENDBRANCH  18  21
ENDBRANCH  12  18
ENDBRANCH   1  15
BRANCH   3  27
ATOM     27  C   UNL     1      -6.922  55.418  52.413  0.00  0.00    +0.000 C 
ATOM     28  O   UNL     1      -7.286  56.524  52.031  0.00  0.00    +0.000 OA
BRANCH  27  29
ATOM     29  O   UNL     1      -5.961  55.219  53.363  0.00  0.00    +0.000 OA
BRANCH  29  30
ATOM     30  C   UNL     1      -6.381  54.827  54.674  0.00  0.00    +0.000 C 
ATOM     31  C   UNL     1      -6.182  53.340  54.887  0.00  0.00    +0.000 C 
ENDBRANCH  29  30
ENDBRANCH  27  29
ENDBRANCH   3  27
TORSDOF 6
ENDMDL
MODEL 9
REMARK VINA RESULT:      -6.8      2.292      3.681
REMARK  Name = 
REMARK  9 active torsions:
REMARK  status: ('A' for Active; 'I' for Inactive)
REMARK    1  A    between atoms: S_1  and  N_4
REMARK    2  A    between atoms: S_1  and  C_5
REMARK    3  A    between atoms: N_10  and  C_13
REMARK    4  A    between atoms: C_16  and  C_19
REMARK    5  A    between atoms: C_19  and  O_23
REMARK    6  A    between atoms: O_23  and  C_26
REMARK    7  A    between atoms: C_24  and  C_27
REMARK    8  A    between atoms: C_24  and  C_28
REMARK    9  A    between atoms: C_26  and  C_29
REMARK                            x       y       z     vdW  Elec       q    Type
REMARK                         _______ _______ _______ _____ _____    ______ ____
ROOT
ATOM      1  C   UNL     1     -11.260  53.678  50.817  0.00  0.00    +0.000 A 
ATOM      2  S   UNL     1     -10.982  53.310  49.183  0.00  0.00    +0.000 S 
ATOM      3  C   UNL     1     -10.122  53.598  51.605  0.00  0.00    +0.000 A 
ATOM      4  C   UNL     1      -9.294  53.326  49.420  0.00  0.00    +0.000 A 
ATOM      5  C   UNL     1      -8.957  53.502  50.753  0.00  0.00    +0.000 A 
ATOM      6  C   UNL     1      -8.315  53.163  48.286  0.00  0.00    +0.000 C 
ATOM      7  C   UNL     1      -7.526  53.506  51.211  0.00  0.00    +0.000 C 
ATOM      8  C   UNL     1      -6.899  52.780  48.815  0.00  0.00    +0.000 C 
ATOM      9  C   UNL     1      -6.548  53.667  50.040  0.00  0.00    +0.000 C 
ATOM     10  C   UNL     1      -5.840  53.024  47.724  0.00  0.00    +0.000 C 
ATOM     11  C   UNL     1      -6.860  51.285  49.189  0.00  0.00    +0.000 C 
ENDROOT
BRANCH   1  15
ATOM     12  N   UNL     1     -14.153  55.509  51.899  0.00  0.00    +0.000 N 
ATOM     13  C   UNL     1     -12.829  55.279  51.578  0.00  0.00    +0.000 C 
ATOM     14  O   UNL     1     -11.994  56.167  51.646  0.00  0.00    +0.000 OA
ATOM     15  N   UNL     1     -12.569  54.001  51.123  0.00  0.00    +0.000 N 
ATOM     16  H   UNL     1     -14.781  54.751  51.908  0.00  0.00    +0.000 HD
ATOM     17  H   UNL     1     -13.292  53.343  51.019  0.00  0.00    +0.000 HD
BRANCH  12  18
ATOM     18  S   UNL     1     -14.721  57.037  52.274  0.00  0.00    +0.000 S 
ATOM     19  O   UNL     1     -13.897  57.595  53.327  0.00  0.00    +0.000 OA
ATOM     20  O   UNL     1     -16.151  56.886  52.478  0.00  0.00    +0.000 OA
BRANCH  18  21
ATOM     21  C   UNL     1     -14.472  57.982  50.768  0.00  0.00    +0.000 A 
ATOM     22  N   UNL     1     -14.409  57.224  49.636  0.00  0.00    +0.000 NA
ATOM     23  C   UNL     1     -14.341  59.364  50.820  0.00  0.00    +0.000 A 
ATOM     24  C   UNL     1     -14.237  57.915  48.487  0.00  0.00    +0.000 A 
ATOM     25  C   UNL     1     -14.149  60.029  49.611  0.00  0.00    +0.000 A 
ATOM     26  C   UNL     1     -14.101  59.295  48.426  0.00  0.00    +0.000 A 
ENDBRANCH  18  21
ENDBRANCH  12  18
ENDBRANCH   1  15
BRANCH   3  27
ATOM     27  C   UNL     1     -10.108  53.561  53.077  0.00  0.00    +0.000 C 
ATOM     28  O   UNL     1      -9.808  54.525  53.773  0.00  0.00    +0.000 OA
BRANCH  27  29
ATOM     29  O   UNL     1     -10.304  52.301  53.567  0.00  0.00    +0.000 OA
BRANCH  29  30
ATOM     30  C   UNL     1      -9.158  51.566  54.011  0.00  0.00    +0.000 C 
ATOM     31  C   UNL     1      -8.862  50.408  53.081  0.00  0.00    +0.000 C 
ENDBRANCH  29  30
ENDBRANCH  27  29
ENDBRANCH   3  27
TORSDOF 6
ENDMDL
