MODEL 1
REMARK VINA RESULT:      -7.1      0.000      0.000
REMARK  Name = 
REMARK  10 active torsions:
REMARK  status: ('A' for Active; 'I' for Inactive)
REMARK    1  A    between atoms: S_1  and  N_4
REMARK    2  A    between atoms: S_1  and  C_5
REMARK    3  A    between atoms: N_10  and  C_13
REMARK    4  A    between atoms: C_14  and  C_17
REMARK    5  A    between atoms: C_16  and  C_20
REMARK    6  A    between atoms: C_20  and  O_25
REMARK    7  A    between atoms: O_25  and  C_28
REMARK    8  A    between atoms: C_26  and  C_29
REMARK    9  A    between atoms: C_26  and  C_30
REMARK   10  A    between atoms: C_28  and  C_31
REMARK                            x       y       z     vdW  Elec       q    Type
REMARK                         _______ _______ _______ _____ _____    ______ ____
ROOT
ATOM      1  N   UNL     1      -8.011  54.009  49.449  0.00  0.00    +0.000 N 
ATOM      2  C   UNL     1      -9.063  54.898  49.651  0.00  0.00    +0.000 C 
ATOM      3  O   UNL     1      -8.859  56.085  49.849  0.00  0.00    +0.000 OA
ATOM      4  N   UNL     1     -10.300  54.285  49.726  0.00  0.00    +0.000 N 
ATOM      5  H   UNL     1      -8.227  53.061  49.299  0.00  0.00    +0.000 HD
ATOM      6  H   UNL     1     -10.396  53.317  49.571  0.00  0.00    +0.000 HD
ENDROOT
BRANCH   4   7
ATOM      7  C   UNL     1     -11.400  55.071  50.024  0.00  0.00    +0.000 A 
ATOM      8  S   UNL     1     -11.763  55.221  51.680  0.00  0.00    +0.000 S 
ATOM      9  C   UNL     1     -12.245  55.804  49.211  0.00  0.00    +0.000 A 
ATOM     10  C   UNL     1     -12.884  56.470  51.370  0.00  0.00    +0.000 A 
ATOM     11  C   UNL     1     -13.054  56.693  50.014  0.00  0.00    +0.000 A 
ATOM     12  C   UNL     1     -13.597  57.224  52.470  0.00  0.00    +0.000 C 
ATOM     13  C   UNL     1     -14.039  57.703  49.498  0.00  0.00    +0.000 C 
ATOM     14  C   UNL     1     -14.865  57.949  51.922  0.00  0.00    +0.000 C 
ATOM     15  C   UNL     1     -14.520  58.659  50.589  0.00  0.00    +0.000 C 
ATOM     16  C   UNL     1     -15.351  59.027  52.910  0.00  0.00    +0.000 C 
ATOM     17  C   UNL     1     -16.011  56.937  51.726  0.00  0.00    +0.000 C 
BRANCH   9  18
ATOM     18  C   UNL     1     -12.268  55.656  47.755  0.00  0.00    +0.000 C 
ATOM     19  O   UNL     1     -12.659  56.538  46.997  0.00  0.00    +0.000 OA
BRANCH  18  20
ATOM     20  O   UNL     1     -11.809  54.441  47.353  0.00  0.00    +0.000 OA
BRANCH  20  21
ATOM     21  C   UNL     1     -10.950  54.413  46.211  0.00  0.00    +0.000 C 
ATOM     22  C   UNL     1     -11.629  53.663  45.084  0.00  0.00    +0.000 C 
ENDBRANCH  20  21
ENDBRANCH  18  20
ENDBRANCH   9  18
ENDBRANCH   4   7
BRANCH   1  23
ATOM     23  S   UNL     1      -6.405  54.460  49.446  0.00  0.00    +0.000 S 
ATOM     24  O   UNL     1      -6.299  55.833  49.885  0.00  0.00    +0.000 OA
ATOM     25  O   UNL     1      -5.891  54.057  48.153  0.00  0.00    +0.000 OA
BRANCH  23  26
ATOM     26  C   UNL     1      -5.629  53.399  50.652  0.00  0.00    +0.000 A 
ATOM     27  C   UNL     1      -4.332  52.925  50.436  0.00  0.00    +0.000 A 
ATOM     28  C   UNL     1      -6.310  53.075  51.830  0.00  0.00    +0.000 A 
ATOM     29  C   UNL     1      -3.729  52.089  51.394  0.00  0.00    +0.000 A 
ATOM     30  C   UNL     1      -5.702  52.245  52.778  0.00  0.00    +0.000 A 
ATOM     31  C   UNL     1      -4.417  51.745  52.559  0.00  0.00    +0.000 A 
BRANCH  31  32
ATOM     32  C   UNL     1      -3.798  50.883  53.530  0.00  0.00    +0.000 C 
ATOM     33  N   UNL     1      -3.300  50.181  54.308  0.00  0.00    +0.000 NA
ENDBRANCH  31  32
ENDBRANCH  23  26
ENDBRANCH   1  23
TORSDOF 7
ENDMDL
MODEL 2
REMARK VINA RESULT:      -7.0      1.698      1.984
REMARK  Name = 
REMARK  10 active torsions:
REMARK  status: ('A' for Active; 'I' for Inactive)
REMARK    1  A    between atoms: S_1  and  N_4
REMARK    2  A    between atoms: S_1  and  C_5
REMARK    3  A    between atoms: N_10  and  C_13
REMARK    4  A    between atoms: C_14  and  C_17
REMARK    5  A    between atoms: C_16  and  C_20
REMARK    6  A    between atoms: C_20  and  O_25
REMARK    7  A    between atoms: O_25  and  C_28
REMARK    8  A    between atoms: C_26  and  C_29
REMARK    9  A    between atoms: C_26  and  C_30
REMARK   10  A    between atoms: C_28  and  C_31
REMARK                            x       y       z     vdW  Elec       q    Type
REMARK                         _______ _______ _______ _____ _____    ______ ____
ROOT
ATOM      1  N   UNL     1      -8.415  52.591  48.652  0.00  0.00    +0.000 N 
ATOM      2  C   UNL     1      -9.304  53.646  48.846  0.00  0.00    +0.000 C 
ATOM      3  O   UNL     1      -8.922  54.805  48.821  0.00  0.00    +0.000 OA
ATOM      4  N   UNL     1     -10.582  53.240  49.180  0.00  0.00    +0.000 N 
ATOM      5  H   UNL     1      -8.770  51.674  48.687  0.00  0.00    +0.000 HD
ATOM      6  H   UNL     1     -10.822  52.285  49.197  0.00  0.00    +0.000 HD
ENDROOT
BRANCH   4   7
ATOM      7  C   UNL     1     -11.515  54.215  49.490  0.00  0.00    +0.000 A 
ATOM      8  S   UNL     1     -11.954  54.310  51.130  0.00  0.00    +0.000 S 
ATOM      9  C   UNL     1     -12.133  55.169  48.702  0.00  0.00    +0.000 A 
ATOM     10  C   UNL     1     -12.771  55.787  50.876  0.00  0.00    +0.000 A 
ATOM     11  C   UNL     1     -12.796  56.144  49.538  0.00  0.00    +0.000 A 
ATOM     12  C   UNL     1     -13.387  56.588  52.000  0.00  0.00    +0.000 C 
ATOM     13  C   UNL     1     -13.514  57.375  49.063  0.00  0.00    +0.000 C 
ATOM     14  C   UNL     1     -14.439  57.604  51.454  0.00  0.00    +0.000 C 
ATOM     15  C   UNL     1     -13.864  58.325  50.209  0.00  0.00    +0.000 C 
ATOM     16  C   UNL     1     -14.761  58.681  52.507  0.00  0.00    +0.000 C 
ATOM     17  C   UNL     1     -15.752  56.874  51.108  0.00  0.00    +0.000 C 
BRANCH   9  18
ATOM     18  C   UNL     1     -12.084  55.141  47.239  0.00  0.00    +0.000 C 
ATOM     19  O   UNL     1     -12.092  56.155  46.549  0.00  0.00    +0.000 OA
BRANCH  18  20
ATOM     20  O   UNL     1     -12.029  53.874  46.750  0.00  0.00    +0.000 OA
BRANCH  20  21
ATOM     21  C   UNL     1     -11.646  53.719  45.381  0.00  0.00    +0.000 C 
ATOM     22  C   UNL     1     -10.149  53.502  45.295  0.00  0.00    +0.000 C 
ENDBRANCH  20  21
ENDBRANCH  18  20
ENDBRANCH   9  18
ENDBRANCH   4   7
BRANCH   1  23
ATOM     23  S   UNL     1      -6.785  52.793  48.367  0.00  0.00    +0.000 S 
ATOM     24  O   UNL     1      -6.604  53.833  47.379  0.00  0.00    +0.000 OA
ATOM     25  O   UNL     1      -6.263  51.460  48.140  0.00  0.00    +0.000 OA
BRANCH  23  26
ATOM     26  C   UNL     1      -6.110  53.342  49.924  0.00  0.00    +0.000 A 
ATOM     27  C   UNL     1      -6.871  53.243  51.092  0.00  0.00    +0.000 A 
ATOM     28  C   UNL     1      -4.802  53.836  49.976  0.00  0.00    +0.000 A 
ATOM     29  C   UNL     1      -6.329  53.678  52.315  0.00  0.00    +0.000 A 
ATOM     30  C   UNL     1      -4.270  54.264  51.197  0.00  0.00    +0.000 A 
ATOM     31  C   UNL     1      -5.032  54.194  52.365  0.00  0.00    +0.000 A 
BRANCH  31  32
ATOM     32  C   UNL     1      -4.487  54.645  53.617  0.00  0.00    +0.000 C 
ATOM     33  N   UNL     1      -4.055  55.013  54.629  0.00  0.00    +0.000 NA
ENDBRANCH  31  32
ENDBRANCH  23  26
ENDBRANCH   1  23
TORSDOF 7
ENDMDL
MODEL 3
REMARK VINA RESULT:      -6.9      3.244      4.903
REMARK  Name = 
REMARK  10 active torsions:
REMARK  status: ('A' for Active; 'I' for Inactive)
REMARK    1  A    between atoms: S_1  and  N_4
REMARK    2  A    between atoms: S_1  and  C_5
REMARK    3  A    between atoms: N_10  and  C_13
REMARK    4  A    between atoms: C_14  and  C_17
REMARK    5  A    between atoms: C_16  and  C_20
REMARK    6  A    between atoms: C_20  and  O_25
REMARK    7  A    between atoms: O_25  and  C_28
REMARK    8  A    between atoms: C_26  and  C_29
REMARK    9  A    between atoms: C_26  and  C_30
REMARK   10  A    between atoms: C_28  and  C_31
REMARK                            x       y       z     vdW  Elec       q    Type
REMARK                         _______ _______ _______ _____ _____    ______ ____
ROOT
ATOM      1  N   UNL     1      -8.470  52.154  50.277  0.00  0.00    +0.000 N 
ATOM      2  C   UNL     1      -9.694  52.816  50.317  0.00  0.00    +0.000 C 
ATOM      3  O   UNL     1     -10.709  52.293  49.887  0.00  0.00    +0.000 OA
ATOM      4  N   UNL     1      -9.603  54.122  50.762  0.00  0.00    +0.000 N 
ATOM      5  H   UNL     1      -7.679  52.621  50.631  0.00  0.00    +0.000 HD
ATOM      6  H   UNL     1      -8.748  54.490  51.082  0.00  0.00    +0.000 HD
ENDROOT
BRANCH   4   7
ATOM      7  C   UNL     1     -10.751  54.897  50.745  0.00  0.00    +0.000 A 
ATOM      8  S   UNL     1     -11.550  55.050  52.239  0.00  0.00    +0.000 S 
ATOM      9  C   UNL     1     -11.351  55.616  49.727  0.00  0.00    +0.000 A 
ATOM     10  C   UNL     1     -12.558  56.285  51.628  0.00  0.00    +0.000 A 
ATOM     11  C   UNL     1     -12.356  56.499  50.274  0.00  0.00    +0.000 A 
ATOM     12  C   UNL     1     -13.548  57.037  52.488  0.00  0.00    +0.000 C 
ATOM     13  C   UNL     1     -13.175  57.495  49.503  0.00  0.00    +0.000 C 
ATOM     14  C   UNL     1     -14.629  57.744  51.611  0.00  0.00    +0.000 C 
ATOM     15  C   UNL     1     -13.942  58.452  50.415  0.00  0.00    +0.000 C 
ATOM     16  C   UNL     1     -15.374  58.821  52.422  0.00  0.00    +0.000 C 
ATOM     17  C   UNL     1     -15.669  56.718  51.120  0.00  0.00    +0.000 C 
BRANCH   9  18
ATOM     18  C   UNL     1     -10.978  55.460  48.320  0.00  0.00    +0.000 C 
ATOM     19  O   UNL     1      -9.907  55.848  47.864  0.00  0.00    +0.000 OA
BRANCH  18  20
ATOM     20  O   UNL     1     -11.947  54.842  47.596  0.00  0.00    +0.000 OA
BRANCH  20  21
ATOM     21  C   UNL     1     -11.568  53.677  46.858  0.00  0.00    +0.000 C 
ATOM     22  C   UNL     1     -11.593  53.985  45.375  0.00  0.00    +0.000 C 
ENDBRANCH  20  21
ENDBRANCH  18  20
ENDBRANCH   9  18
ENDBRANCH   4   7
BRANCH   1  23
ATOM     23  S   UNL     1      -8.267  50.617  49.662  0.00  0.00    +0.000 S 
ATOM     24  O   UNL     1      -9.185  49.719  50.326  0.00  0.00    +0.000 OA
ATOM     25  O   UNL     1      -6.839  50.372  49.696  0.00  0.00    +0.000 OA
BRANCH  23  26
ATOM     26  C   UNL     1      -8.717  50.747  47.942  0.00  0.00    +0.000 A 
ATOM     27  C   UNL     1      -9.729  49.938  47.418  0.00  0.00    +0.000 A 
ATOM     28  C   UNL     1      -8.077  51.689  47.127  0.00  0.00    +0.000 A 
ATOM     29  C   UNL     1     -10.077  50.049  46.060  0.00  0.00    +0.000 A 
ATOM     30  C   UNL     1      -8.430  51.794  45.778  0.00  0.00    +0.000 A 
ATOM     31  C   UNL     1      -9.422  50.971  45.240  0.00  0.00    +0.000 A 
BRANCH  31  32
ATOM     32  C   UNL     1      -9.776  51.074  43.850  0.00  0.00    +0.000 C 
ATOM     33  N   UNL     1     -10.067  51.149  42.729  0.00  0.00    +0.000 NA
ENDBRANCH  31  32
ENDBRANCH  23  26
ENDBRANCH   1  23
TORSDOF 7
ENDMDL
MODEL 4
REMARK VINA RESULT:      -6.9      2.927      9.576
REMARK  Name = 
REMARK  10 active torsions:
REMARK  status: ('A' for Active; 'I' for Inactive)
REMARK    1  A    between atoms: S_1  and  N_4
REMARK    2  A    between atoms: S_1  and  C_5
REMARK    3  A    between atoms: N_10  and  C_13
REMARK    4  A    between atoms: C_14  and  C_17
REMARK    5  A    between atoms: C_16  and  C_20
REMARK    6  A    between atoms: C_20  and  O_25
REMARK    7  A    between atoms: O_25  and  C_28
REMARK    8  A    between atoms: C_26  and  C_29
REMARK    9  A    between atoms: C_26  and  C_30
REMARK   10  A    between atoms: C_28  and  C_31
REMARK                            x       y       z     vdW  Elec       q    Type
REMARK                         _______ _______ _______ _____ _____    ______ ____
ROOT
ATOM      1  N   UNL     1     -11.730  56.862  49.614  0.00  0.00    +0.000 N 
ATOM      2  C   UNL     1     -10.771  55.887  49.352  0.00  0.00    +0.000 C 
ATOM      3  O   UNL     1     -11.092  54.771  48.977  0.00  0.00    +0.000 OA
ATOM      4  N   UNL     1      -9.484  56.275  49.673  0.00  0.00    +0.000 N 
ATOM      5  H   UNL     1     -11.422  57.746  49.919  0.00  0.00    +0.000 HD
ATOM      6  H   UNL     1      -9.294  57.190  49.986  0.00  0.00    +0.000 HD
ENDROOT
BRANCH   4   7
ATOM      7  C   UNL     1      -8.470  55.341  49.542  0.00  0.00    +0.000 A 
ATOM      8  S   UNL     1      -7.988  55.007  47.946  0.00  0.00    +0.000 S 
ATOM      9  C   UNL     1      -7.736  54.652  50.491  0.00  0.00    +0.000 A 
ATOM     10  C   UNL     1      -6.621  54.141  48.488  0.00  0.00    +0.000 A 
ATOM     11  C   UNL     1      -6.595  54.021  49.868  0.00  0.00    +0.000 A 
ATOM     12  C   UNL     1      -5.579  53.579  47.548  0.00  0.00    +0.000 C 
ATOM     13  C   UNL     1      -5.518  53.246  50.572  0.00  0.00    +0.000 C 
ATOM     14  C   UNL     1      -4.731  52.472  48.247  0.00  0.00    +0.000 C 
ATOM     15  C   UNL     1      -4.324  52.949  49.664  0.00  0.00    +0.000 C 
ATOM     16  C   UNL     1      -3.436  52.193  47.461  0.00  0.00    +0.000 C 
ATOM     17  C   UNL     1      -5.532  51.156  48.320  0.00  0.00    +0.000 C 
BRANCH   9  18
ATOM     18  C   UNL     1      -8.113  54.607  51.905  0.00  0.00    +0.000 C 
ATOM     19  O   UNL     1      -9.025  53.908  52.333  0.00  0.00    +0.000 OA
BRANCH  18  20
ATOM     20  O   UNL     1      -7.338  55.420  52.670  0.00  0.00    +0.000 OA
BRANCH  20  21
ATOM     21  C   UNL     1      -7.527  55.358  54.086  0.00  0.00    +0.000 C 
ATOM     22  C   UNL     1      -6.354  54.641  54.723  0.00  0.00    +0.000 C 
ENDBRANCH  20  21
ENDBRANCH  18  20
ENDBRANCH   9  18
ENDBRANCH   4   7
BRANCH   1  23
ATOM     23  S   UNL     1     -13.371  56.618  49.442  0.00  0.00    +0.000 S 
ATOM     24  O   UNL     1     -13.661  55.213  49.619  0.00  0.00    +0.000 OA
ATOM     25  O   UNL     1     -13.737  57.298  48.216  0.00  0.00    +0.000 OA
BRANCH  23  26
ATOM     26  C   UNL     1     -14.115  57.542  50.773  0.00  0.00    +0.000 A 
ATOM     27  C   UNL     1     -14.126  57.019  52.069  0.00  0.00    +0.000 A 
ATOM     28  C   UNL     1     -14.655  58.809  50.521  0.00  0.00    +0.000 A 
ATOM     29  C   UNL     1     -14.715  57.756  53.112  0.00  0.00    +0.000 A 
ATOM     30  C   UNL     1     -15.236  59.536  51.564  0.00  0.00    +0.000 A 
ATOM     31  C   UNL     1     -15.275  59.010  52.858  0.00  0.00    +0.000 A 
BRANCH  31  32
ATOM     32  C   UNL     1     -15.884  59.754  53.927  0.00  0.00    +0.000 C 
ATOM     33  N   UNL     1     -16.382  60.357  54.785  0.00  0.00    +0.000 NA
ENDBRANCH  31  32
ENDBRANCH  23  26
ENDBRANCH   1  23
TORSDOF 7
ENDMDL
MODEL 5
REMARK VINA RESULT:      -6.9      2.491      8.763
REMARK  Name = 
REMARK  10 active torsions:
REMARK  status: ('A' for Active; 'I' for Inactive)
REMARK    1  A    between atoms: S_1  and  N_4
REMARK    2  A    between atoms: S_1  and  C_5
REMARK    3  A    between atoms: N_10  and  C_13
REMARK    4  A    between atoms: C_14  and  C_17
REMARK    5  A    between atoms: C_16  and  C_20
REMARK    6  A    between atoms: C_20  and  O_25
REMARK    7  A    between atoms: O_25  and  C_28
REMARK    8  A    between atoms: C_26  and  C_29
REMARK    9  A    between atoms: C_26  and  C_30
REMARK   10  A    between atoms: C_28  and  C_31
REMARK                            x       y       z     vdW  Elec       q    Type
REMARK                         _______ _______ _______ _____ _____    ______ ____
ROOT
ATOM      1  N   UNL     1     -11.663  56.678  49.173  0.00  0.00    +0.000 N 
ATOM      2  C   UNL     1     -10.649  55.793  49.530  0.00  0.00    +0.000 C 
ATOM      3  O   UNL     1     -10.902  54.653  49.885  0.00  0.00    +0.000 OA
ATOM      4  N   UNL     1      -9.394  56.371  49.558  0.00  0.00    +0.000 N 
ATOM      5  H   UNL     1     -11.409  57.588  48.899  0.00  0.00    +0.000 HD
ATOM      6  H   UNL     1      -9.259  57.304  49.273  0.00  0.00    +0.000 HD
ENDROOT
BRANCH   4   7
ATOM      7  C   UNL     1      -8.331  55.599  49.998  0.00  0.00    +0.000 A 
ATOM      8  S   UNL     1      -7.902  55.811  51.630  0.00  0.00    +0.000 S 
ATOM      9  C   UNL     1      -7.572  54.641  49.352  0.00  0.00    +0.000 A 
ATOM     10  C   UNL     1      -6.875  54.448  51.586  0.00  0.00    +0.000 A 
ATOM     11  C   UNL     1      -6.782  53.907  50.314  0.00  0.00    +0.000 A 
ATOM     12  C   UNL     1      -6.160  53.920  52.809  0.00  0.00    +0.000 C 
ATOM     13  C   UNL     1      -5.885  52.738  50.018  0.00  0.00    +0.000 C 
ATOM     14  C   UNL     1      -4.964  53.001  52.407  0.00  0.00    +0.000 C 
ATOM     15  C   UNL     1      -5.414  52.028  51.287  0.00  0.00    +0.000 C 
ATOM     16  C   UNL     1      -4.500  52.149  53.603  0.00  0.00    +0.000 C 
ATOM     17  C   UNL     1      -3.769  53.857  51.944  0.00  0.00    +0.000 C 
BRANCH   9  18
ATOM     18  C   UNL     1      -7.607  54.447  47.901  0.00  0.00    +0.000 C 
ATOM     19  O   UNL     1      -6.647  54.673  47.171  0.00  0.00    +0.000 OA
BRANCH  18  20
ATOM     20  O   UNL     1      -8.813  53.991  47.472  0.00  0.00    +0.000 OA
BRANCH  20  21
ATOM     21  C   UNL     1      -9.241  54.403  46.171  0.00  0.00    +0.000 C 
ATOM     22  C   UNL     1     -10.752  54.507  46.145  0.00  0.00    +0.000 C 
ENDBRANCH  20  21
ENDBRANCH  18  20
ENDBRANCH   9  18
ENDBRANCH   4   7
BRANCH   1  23
ATOM     23  S   UNL     1     -13.284  56.284  49.183  0.00  0.00    +0.000 S 
ATOM     24  O   UNL     1     -13.426  54.880  49.497  0.00  0.00    +0.000 OA
ATOM     25  O   UNL     1     -13.821  56.822  47.949  0.00  0.00    +0.000 OA
BRANCH  23  26
ATOM     26  C   UNL     1     -13.985  57.253  50.505  0.00  0.00    +0.000 A 
ATOM     27  C   UNL     1     -13.960  56.772  51.817  0.00  0.00    +0.000 A 
ATOM     28  C   UNL     1     -14.526  58.514  50.228  0.00  0.00    +0.000 A 
ATOM     29  C   UNL     1     -14.515  57.546  52.852  0.00  0.00    +0.000 A 
ATOM     30  C   UNL     1     -15.074  59.277  51.264  0.00  0.00    +0.000 A 
ATOM     31  C   UNL     1     -15.077  58.793  52.574  0.00  0.00    +0.000 A 
BRANCH  31  32
ATOM     32  C   UNL     1     -15.651  59.575  53.636  0.00  0.00    +0.000 C 
ATOM     33  N   UNL     1     -16.122  60.202  54.491  0.00  0.00    +0.000 NA
ENDBRANCH  31  32
ENDBRANCH  23  26
ENDBRANCH   1  23
TORSDOF 7
ENDMDL
MODEL 6
REMARK VINA RESULT:      -6.7      2.548      5.021
REMARK  Name = 
REMARK  10 active torsions:
REMARK  status: ('A' for Active; 'I' for Inactive)
REMARK    1  A    between atoms: S_1  and  N_4
REMARK    2  A    between atoms: S_1  and  C_5
REMARK    3  A    between atoms: N_10  and  C_13
REMARK    4  A    between atoms: C_14  and  C_17
REMARK    5  A    between atoms: C_16  and  C_20
REMARK    6  A    between atoms: C_20  and  O_25
REMARK    7  A    between atoms: O_25  and  C_28
REMARK    8  A    between atoms: C_26  and  C_29
REMARK    9  A    between atoms: C_26  and  C_30
REMARK   10  A    between atoms: C_28  and  C_31
REMARK                            x       y       z     vdW  Elec       q    Type
REMARK                         _______ _______ _______ _____ _____    ______ ____
ROOT
ATOM      1  N   UNL     1      -7.232  56.197  52.050  0.00  0.00    +0.000 N 
ATOM      2  C   UNL     1      -8.111  55.482  51.240  0.00  0.00    +0.000 C 
ATOM      3  O   UNL     1      -8.553  54.399  51.589  0.00  0.00    +0.000 OA
ATOM      4  N   UNL     1      -8.314  56.057  50.000  0.00  0.00    +0.000 N 
ATOM      5  H   UNL     1      -6.900  57.063  51.722  0.00  0.00    +0.000 HD
ATOM      6  H   UNL     1      -7.915  56.929  49.774  0.00  0.00    +0.000 HD
ENDROOT
BRANCH   4   7
ATOM      7  C   UNL     1      -9.095  55.372  49.084  0.00  0.00    +0.000 A 
ATOM      8  S   UNL     1      -8.237  54.532  47.879  0.00  0.00    +0.000 S 
ATOM      9  C   UNL     1     -10.465  55.209  48.995  0.00  0.00    +0.000 A 
ATOM     10  C   UNL     1      -9.650  53.720  47.372  0.00  0.00    +0.000 A 
ATOM     11  C   UNL     1     -10.776  54.165  48.044  0.00  0.00    +0.000 A 
ATOM     12  C   UNL     1      -9.642  52.646  46.307  0.00  0.00    +0.000 C 
ATOM     13  C   UNL     1     -12.146  53.640  47.722  0.00  0.00    +0.000 C 
ATOM     14  C   UNL     1     -11.073  52.423  45.725  0.00  0.00    +0.000 C 
ATOM     15  C   UNL     1     -12.100  52.363  46.884  0.00  0.00    +0.000 C 
ATOM     16  C   UNL     1     -11.154  51.087  44.963  0.00  0.00    +0.000 C 
ATOM     17  C   UNL     1     -11.426  53.553  44.737  0.00  0.00    +0.000 C 
BRANCH   9  18
ATOM     18  C   UNL     1     -11.410  56.007  49.776  0.00  0.00    +0.000 C 
ATOM     19  O   UNL     1     -11.590  55.846  50.979  0.00  0.00    +0.000 OA
BRANCH  18  20
ATOM     20  O   UNL     1     -12.051  56.936  49.018  0.00  0.00    +0.000 OA
BRANCH  20  21
ATOM     21  C   UNL     1     -13.470  56.809  48.891  0.00  0.00    +0.000 C 
ATOM     22  C   UNL     1     -13.894  57.228  47.499  0.00  0.00    +0.000 C 
ENDBRANCH  20  21
ENDBRANCH  18  20
ENDBRANCH   9  18
ENDBRANCH   4   7
BRANCH   1  23
ATOM     23  S   UNL     1      -6.710  55.668  53.543  0.00  0.00    +0.000 S 
ATOM     24  O   UNL     1      -7.857  55.451  54.395  0.00  0.00    +0.000 OA
ATOM     25  O   UNL     1      -5.663  56.590  53.936  0.00  0.00    +0.000 OA
BRANCH  23  26
ATOM     26  C   UNL     1      -5.913  54.105  53.224  0.00  0.00    +0.000 A 
ATOM     27  C   UNL     1      -6.330  52.955  53.900  0.00  0.00    +0.000 A 
ATOM     28  C   UNL     1      -4.895  54.029  52.267  0.00  0.00    +0.000 A 
ATOM     29  C   UNL     1      -5.695  51.727  53.640  0.00  0.00    +0.000 A 
ATOM     30  C   UNL     1      -4.271  52.803  52.014  0.00  0.00    +0.000 A 
ATOM     31  C   UNL     1      -4.662  51.654  52.703  0.00  0.00    +0.000 A 
BRANCH  31  32
ATOM     32  C   UNL     1      -4.011  50.397  52.449  0.00  0.00    +0.000 C 
ATOM     33  N   UNL     1      -3.493  49.379  52.241  0.00  0.00    +0.000 NA
ENDBRANCH  31  32
ENDBRANCH  23  26
ENDBRANCH   1  23
TORSDOF 7
ENDMDL
MODEL 7
REMARK VINA RESULT:      -6.6      3.092      4.284
REMARK  Name = 
REMARK  10 active torsions:
REMARK  status: ('A' for Active; 'I' for Inactive)
REMARK    1  A    between atoms: S_1  and  N_4
REMARK    2  A    between atoms: S_1  and  C_5
REMARK    3  A    between atoms: N_10  and  C_13
REMARK    4  A    between atoms: C_14  and  C_17
REMARK    5  A    between atoms: C_16  and  C_20
REMARK    6  A    between atoms: C_20  and  O_25
REMARK    7  A    between atoms: O_25  and  C_28
REMARK    8  A    between atoms: C_26  and  C_29
REMARK    9  A    between atoms: C_26  and  C_30
REMARK   10  A    between atoms: C_28  and  C_31
REMARK                            x       y       z     vdW  Elec       q    Type
REMARK                         _______ _______ _______ _____ _____    ______ ____
ROOT
ATOM      1  N   UNL     1      -9.205  53.812  45.590  0.00  0.00    +0.000 N 
ATOM      2  C   UNL     1     -10.010  54.107  46.687  0.00  0.00    +0.000 C 
ATOM      3  O   UNL     1     -10.559  53.221  47.324  0.00  0.00    +0.000 OA
ATOM      4  N   UNL     1     -10.208  55.461  46.882  0.00  0.00    +0.000 N 
ATOM      5  H   UNL     1      -8.789  54.561  45.106  0.00  0.00    +0.000 HD
ATOM      6  H   UNL     1      -9.745  56.126  46.322  0.00  0.00    +0.000 HD
ENDROOT
BRANCH   4   7
ATOM      7  C   UNL     1     -11.074  55.855  47.888  0.00  0.00    +0.000 A 
ATOM      8  S   UNL     1     -12.645  56.262  47.379  0.00  0.00    +0.000 S 
ATOM      9  C   UNL     1     -10.904  55.937  49.258  0.00  0.00    +0.000 A 
ATOM     10  C   UNL     1     -13.209  56.302  48.990  0.00  0.00    +0.000 A 
ATOM     11  C   UNL     1     -12.185  56.111  49.904  0.00  0.00    +0.000 A 
ATOM     12  C   UNL     1     -14.661  56.525  49.346  0.00  0.00    +0.000 C 
ATOM     13  C   UNL     1     -12.430  56.168  51.385  0.00  0.00    +0.000 C 
ATOM     14  C   UNL     1     -14.811  56.974  50.833  0.00  0.00    +0.000 C 
ATOM     15  C   UNL     1     -13.916  56.086  51.735  0.00  0.00    +0.000 C 
ATOM     16  C   UNL     1     -16.265  56.806  51.313  0.00  0.00    +0.000 C 
ATOM     17  C   UNL     1     -14.434  58.462  50.979  0.00  0.00    +0.000 C 
BRANCH   9  18
ATOM     18  C   UNL     1      -9.591  55.852  49.900  0.00  0.00    +0.000 C 
ATOM     19  O   UNL     1      -8.780  56.772  49.890  0.00  0.00    +0.000 OA
BRANCH  18  20
ATOM     20  O   UNL     1      -9.388  54.650  50.500  0.00  0.00    +0.000 OA
BRANCH  20  21
ATOM     21  C   UNL     1      -8.279  53.871  50.042  0.00  0.00    +0.000 C 
ATOM     22  C   UNL     1      -8.625  52.399  50.126  0.00  0.00    +0.000 C 
ENDBRANCH  20  21
ENDBRANCH  18  20
ENDBRANCH   9  18
ENDBRANCH   4   7
BRANCH   1  23
ATOM     23  S   UNL     1      -8.907  52.263  45.049  0.00  0.00    +0.000 S 
ATOM     24  O   UNL     1      -8.319  52.329  43.730  0.00  0.00    +0.000 OA
ATOM     25  O   UNL     1     -10.137  51.530  45.274  0.00  0.00    +0.000 OA
BRANCH  23  26
ATOM     26  C   UNL     1      -7.708  51.600  46.191  0.00  0.00    +0.000 A 
ATOM     27  C   UNL     1      -6.786  52.447  46.811  0.00  0.00    +0.000 A 
ATOM     28  C   UNL     1      -7.720  50.233  46.491  0.00  0.00    +0.000 A 
ATOM     29  C   UNL     1      -5.846  51.914  47.711  0.00  0.00    +0.000 A 
ATOM     30  C   UNL     1      -6.783  49.711  47.389  0.00  0.00    +0.000 A 
ATOM     31  C   UNL     1      -5.840  50.546  47.993  0.00  0.00    +0.000 A 
BRANCH  31  32
ATOM     32  C   UNL     1      -4.870  50.006  48.907  0.00  0.00    +0.000 C 
ATOM     33  N   UNL     1      -4.084  49.577  49.645  0.00  0.00    +0.000 NA
ENDBRANCH  31  32
ENDBRANCH  23  26
ENDBRANCH   1  23
TORSDOF 7
ENDMDL
MODEL 8
REMARK VINA RESULT:      -6.6      2.524      2.917
REMARK  Name = 
REMARK  10 active torsions:
REMARK  status: ('A' for Active; 'I' for Inactive)
REMARK    1  A    between atoms: S_1  and  N_4
REMARK    2  A    between atoms: S_1  and  C_5
REMARK    3  A    between atoms: N_10  and  C_13
REMARK    4  A    between atoms: C_14  and  C_17
REMARK    5  A    between atoms: C_16  and  C_20
REMARK    6  A    between atoms: C_20  and  O_25
REMARK    7  A    between atoms: O_25  and  C_28
REMARK    8  A    between atoms: C_26  and  C_29
REMARK    9  A    between atoms: C_26  and  C_30
REMARK   10  A    between atoms: C_28  and  C_31
REMARK                            x       y       z     vdW  Elec       q    Type
REMARK                         _______ _______ _______ _____ _____    ______ ____
ROOT
ATOM      1  N   UNL     1      -8.954  51.865  50.700  0.00  0.00    +0.000 N 
ATOM      2  C   UNL     1      -9.787  52.953  50.947  0.00  0.00    +0.000 C 
ATOM      3  O   UNL     1      -9.967  53.366  52.081  0.00  0.00    +0.000 OA
ATOM      4  N   UNL     1     -10.453  53.407  49.824  0.00  0.00    +0.000 N 
ATOM      5  H   UNL     1      -8.846  51.566  49.769  0.00  0.00    +0.000 HD
ATOM      6  H   UNL     1     -10.273  53.019  48.937  0.00  0.00    +0.000 HD
ENDROOT
BRANCH   4   7
ATOM      7  C   UNL     1     -11.381  54.423  49.983  0.00  0.00    +0.000 A 
ATOM      8  S   UNL     1     -12.174  54.459  51.487  0.00  0.00    +0.000 S 
ATOM      9  C   UNL     1     -11.753  55.457  49.143  0.00  0.00    +0.000 A 
ATOM     10  C   UNL     1     -12.834  55.997  51.157  0.00  0.00    +0.000 A 
ATOM     11  C   UNL     1     -12.537  56.427  49.874  0.00  0.00    +0.000 A 
ATOM     12  C   UNL     1     -13.647  56.776  52.167  0.00  0.00    +0.000 C 
ATOM     13  C   UNL     1     -13.065  57.726  49.335  0.00  0.00    +0.000 C 
ATOM     14  C   UNL     1     -14.493  57.886  51.470  0.00  0.00    +0.000 C 
ATOM     15  C   UNL     1     -13.614  58.634  50.435  0.00  0.00    +0.000 C 
ATOM     16  C   UNL     1     -14.989  58.924  52.495  0.00  0.00    +0.000 C 
ATOM     17  C   UNL     1     -15.730  57.263  50.792  0.00  0.00    +0.000 C 
BRANCH   9  18
ATOM     18  C   UNL     1     -11.377  55.504  47.729  0.00  0.00    +0.000 C 
ATOM     19  O   UNL     1     -12.196  55.590  46.820  0.00  0.00    +0.000 OA
BRANCH  18  20
ATOM     20  O   UNL     1     -10.031  55.445  47.552  0.00  0.00    +0.000 OA
BRANCH  20  21
ATOM     21  C   UNL     1      -9.556  54.823  46.355  0.00  0.00    +0.000 C 
ATOM     22  C   UNL     1      -8.042  54.844  46.339  0.00  0.00    +0.000 C 
ENDBRANCH  20  21
ENDBRANCH  18  20
ENDBRANCH   9  18
ENDBRANCH   4   7
BRANCH   1  23
ATOM     23  S   UNL     1      -8.132  51.038  51.893  0.00  0.00    +0.000 S 
ATOM     24  O   UNL     1      -7.385  49.958  51.288  0.00  0.00    +0.000 OA
ATOM     25  O   UNL     1      -9.113  50.770  52.925  0.00  0.00    +0.000 OA
BRANCH  23  26
ATOM     26  C   UNL     1      -6.992  52.228  52.574  0.00  0.00    +0.000 A 
ATOM     27  C   UNL     1      -6.999  52.500  53.945  0.00  0.00    +0.000 A 
ATOM     28  C   UNL     1      -6.066  52.860  51.736  0.00  0.00    +0.000 A 
ATOM     29  C   UNL     1      -6.095  53.440  54.473  0.00  0.00    +0.000 A 
ATOM     30  C   UNL     1      -5.170  53.791  52.269  0.00  0.00    +0.000 A 
ATOM     31  C   UNL     1      -5.187  54.089  53.634  0.00  0.00    +0.000 A 
BRANCH  31  32
ATOM     32  C   UNL     1      -4.272  55.056  54.178  0.00  0.00    +0.000 C 
ATOM     33  N   UNL     1      -3.526  55.831  54.614  0.00  0.00    +0.000 NA
ENDBRANCH  31  32
ENDBRANCH  23  26
ENDBRANCH   1  23
TORSDOF 7
ENDMDL
MODEL 9
REMARK VINA RESULT:      -6.3      2.977      9.395
REMARK  Name = 
REMARK  10 active torsions:
REMARK  status: ('A' for Active; 'I' for Inactive)
REMARK    1  A    between atoms: S_1  and  N_4
REMARK    2  A    between atoms: S_1  and  C_5
REMARK    3  A    between atoms: N_10  and  C_13
REMARK    4  A    between atoms: C_14  and  C_17
REMARK    5  A    between atoms: C_16  and  C_20
REMARK    6  A    between atoms: C_20  and  O_25
REMARK    7  A    between atoms: O_25  and  C_28
REMARK    8  A    between atoms: C_26  and  C_29
REMARK    9  A    between atoms: C_26  and  C_30
REMARK   10  A    between atoms: C_28  and  C_31
REMARK                            x       y       z     vdW  Elec       q    Type
REMARK                         _______ _______ _______ _____ _____    ______ ____
ROOT
ATOM      1  N   UNL     1     -11.494  56.498  49.886  0.00  0.00    +0.000 N 
ATOM      2  C   UNL     1     -10.588  55.548  49.421  0.00  0.00    +0.000 C 
ATOM      3  O   UNL     1     -10.938  54.658  48.664  0.00  0.00    +0.000 OA
ATOM      4  N   UNL     1      -9.333  55.653  49.993  0.00  0.00    +0.000 N 
ATOM      5  H   UNL     1     -11.164  57.193  50.500  0.00  0.00    +0.000 HD
ATOM      6  H   UNL     1      -9.118  56.389  50.611  0.00  0.00    +0.000 HD
ENDROOT
BRANCH   4   7
ATOM      7  C   UNL     1      -8.388  54.694  49.670  0.00  0.00    +0.000 A 
ATOM      8  S   UNL     1      -7.630  54.896  48.161  0.00  0.00    +0.000 S 
ATOM      9  C   UNL     1      -7.910  53.609  50.382  0.00  0.00    +0.000 A 
ATOM     10  C   UNL     1      -6.466  53.703  48.533  0.00  0.00    +0.000 A 
ATOM     11  C   UNL     1      -6.720  53.089  49.748  0.00  0.00    +0.000 A 
ATOM     12  C   UNL     1      -5.306  53.376  47.620  0.00  0.00    +0.000 C 
ATOM     13  C   UNL     1      -5.865  51.963  50.256  0.00  0.00    +0.000 C 
ATOM     14  C   UNL     1      -4.699  51.980  47.962  0.00  0.00    +0.000 C 
ATOM     15  C   UNL     1      -4.543  51.846  49.498  0.00  0.00    +0.000 C 
ATOM     16  C   UNL     1      -3.300  51.821  47.337  0.00  0.00    +0.000 C 
ATOM     17  C   UNL     1      -5.598  50.859  47.402  0.00  0.00    +0.000 C 
BRANCH   9  18
ATOM     18  C   UNL     1      -8.559  53.109  51.596  0.00  0.00    +0.000 C 
ATOM     19  O   UNL     1      -8.021  53.125  52.698  0.00  0.00    +0.000 OA
BRANCH  18  20
ATOM     20  O   UNL     1      -9.810  52.637  51.353  0.00  0.00    +0.000 OA
BRANCH  20  21
ATOM     21  C   UNL     1     -10.120  51.331  51.845  0.00  0.00    +0.000 C 
ATOM     22  C   UNL     1      -9.841  50.303  50.768  0.00  0.00    +0.000 C 
ENDBRANCH  20  21
ENDBRANCH  18  20
ENDBRANCH   9  18
ENDBRANCH   4   7
BRANCH   1  23
ATOM     23  S   UNL     1     -13.107  56.523  49.464  0.00  0.00    +0.000 S 
ATOM     24  O   UNL     1     -13.622  55.172  49.483  0.00  0.00    +0.000 OA
ATOM     25  O   UNL     1     -13.180  57.324  48.259  0.00  0.00    +0.000 OA
BRANCH  23  26
ATOM     26  C   UNL     1     -13.903  57.470  50.749  0.00  0.00    +0.000 A 
ATOM     27  C   UNL     1     -14.504  58.695  50.447  0.00  0.00    +0.000 A 
ATOM     28  C   UNL     1     -13.956  56.963  52.052  0.00  0.00    +0.000 A 
ATOM     29  C   UNL     1     -15.131  59.433  51.468  0.00  0.00    +0.000 A 
ATOM     30  C   UNL     1     -14.582  57.702  53.060  0.00  0.00    +0.000 A 
ATOM     31  C   UNL     1     -15.162  58.940  52.774  0.00  0.00    +0.000 A 
BRANCH  31  32
ATOM     32  C   UNL     1     -15.796  59.704  53.814  0.00  0.00    +0.000 C 
ATOM     33  N   UNL     1     -16.300  60.320  54.659  0.00  0.00    +0.000 NA
ENDBRANCH  31  32
ENDBRANCH  23  26
ENDBRANCH   1  23
TORSDOF 7
ENDMDL
