MODEL 1
REMARK VINA RESULT:      -7.4      0.000      0.000
REMARK  Name = 
REMARK  10 active torsions:
REMARK  status: ('A' for Active; 'I' for Inactive)
REMARK    1  A    between atoms: S_1  and  N_4
REMARK    2  A    between atoms: S_1  and  C_5
REMARK    3  A    between atoms: N_10  and  C_13
REMARK    4  A    between atoms: C_14  and  C_17
REMARK    5  A    between atoms: C_16  and  C_20
REMARK    6  A    between atoms: C_20  and  O_24
REMARK    7  A    between atoms: O_24  and  C_27
REMARK    8  A    between atoms: C_25  and  C_28
REMARK    9  A    between atoms: C_25  and  C_29
REMARK   10  A    between atoms: C_27  and  C_30
REMARK                            x       y       z     vdW  Elec       q    Type
REMARK                         _______ _______ _______ _____ _____    ______ ____
ROOT
ATOM      1  N   UNL     1      -9.701  51.698  48.733  0.00  0.00    +0.000 N 
ATOM      2  C   UNL     1     -10.762  52.577  48.932  0.00  0.00    +0.000 C 
ATOM      3  O   UNL     1     -11.859  52.368  48.428  0.00  0.00    +0.000 OA
ATOM      4  N   UNL     1     -10.428  53.699  49.656  0.00  0.00    +0.000 N 
ATOM      5  H   UNL     1      -8.860  51.857  49.219  0.00  0.00    +0.000 HD
ATOM      6  H   UNL     1      -9.514  53.826  49.997  0.00  0.00    +0.000 HD
ENDROOT
BRANCH   4   7
ATOM      7  C   UNL     1     -11.414  54.644  49.892  0.00  0.00    +0.000 A 
ATOM      8  S   UNL     1     -12.101  54.606  51.445  0.00  0.00    +0.000 S 
ATOM      9  C   UNL     1     -11.911  55.659  49.094  0.00  0.00    +0.000 A 
ATOM     10  C   UNL     1     -12.875  56.106  51.187  0.00  0.00    +0.000 A 
ATOM     11  C   UNL     1     -12.697  56.570  49.893  0.00  0.00    +0.000 A 
ATOM     12  C   UNL     1     -13.650  56.821  52.266  0.00  0.00    +0.000 C 
ATOM     13  C   UNL     1     -13.331  57.844  49.419  0.00  0.00    +0.000 C 
ATOM     14  C   UNL     1     -14.609  57.888  51.652  0.00  0.00    +0.000 C 
ATOM     15  C   UNL     1     -13.852  58.702  50.572  0.00  0.00    +0.000 C 
ATOM     16  C   UNL     1     -15.083  58.874  52.735  0.00  0.00    +0.000 C 
ATOM     17  C   UNL     1     -15.852  57.201  51.053  0.00  0.00    +0.000 C 
BRANCH   9  18
ATOM     18  C   UNL     1     -11.633  55.749  47.659  0.00  0.00    +0.000 C 
ATOM     19  O   UNL     1     -12.512  55.854  46.810  0.00  0.00    +0.000 OA
BRANCH  18  20
ATOM     20  O   UNL     1     -10.301  55.709  47.389  0.00  0.00    +0.000 OA
BRANCH  20  21
ATOM     21  C   UNL     1      -9.882  54.895  46.290  0.00  0.00    +0.000 C 
ATOM     22  C   UNL     1      -8.372  54.936  46.179  0.00  0.00    +0.000 C 
ENDBRANCH  20  21
ENDBRANCH  18  20
ENDBRANCH   9  18
ENDBRANCH   4   7
BRANCH   1  23
ATOM     23  S   UNL     1      -9.796  50.387  47.707  0.00  0.00    +0.000 S 
ATOM     24  O   UNL     1     -11.104  49.777  47.843  0.00  0.00    +0.000 OA
ATOM     25  O   UNL     1      -8.604  49.602  47.960  0.00  0.00    +0.000 OA
BRANCH  23  26
ATOM     26  C   UNL     1      -9.654  51.092  46.060  0.00  0.00    +0.000 A 
ATOM     27  N   UNL     1      -8.374  51.279  45.631  0.00  0.00    +0.000 NA
ATOM     28  C   UNL     1     -10.788  51.393  45.324  0.00  0.00    +0.000 A 
ATOM     29  C   UNL     1      -8.244  51.768  44.378  0.00  0.00    +0.000 A 
ATOM     30  C   UNL     1     -10.607  51.913  44.045  0.00  0.00    +0.000 A 
ATOM     31  C   UNL     1      -9.315  52.102  43.547  0.00  0.00    +0.000 A 
ATOM     32  C   UNL     1      -9.101  52.651  42.170  0.00  0.00    +0.000 C 
ENDBRANCH  23  26
ENDBRANCH   1  23
TORSDOF 6
ENDMDL
MODEL 2
REMARK VINA RESULT:      -7.0      3.237      4.913
REMARK  Name = 
REMARK  10 active torsions:
REMARK  status: ('A' for Active; 'I' for Inactive)
REMARK    1  A    between atoms: S_1  and  N_4
REMARK    2  A    between atoms: S_1  and  C_5
REMARK    3  A    between atoms: N_10  and  C_13
REMARK    4  A    between atoms: C_14  and  C_17
REMARK    5  A    between atoms: C_16  and  C_20
REMARK    6  A    between atoms: C_20  and  O_24
REMARK    7  A    between atoms: O_24  and  C_27
REMARK    8  A    between atoms: C_25  and  C_28
REMARK    9  A    between atoms: C_25  and  C_29
REMARK   10  A    between atoms: C_27  and  C_30
REMARK                            x       y       z     vdW  Elec       q    Type
REMARK                         _______ _______ _______ _____ _____    ______ ____
ROOT
ATOM      1  N   UNL     1      -8.386  52.711  48.895  0.00  0.00    +0.000 N 
ATOM      2  C   UNL     1      -9.286  53.728  49.199  0.00  0.00    +0.000 C 
ATOM      3  O   UNL     1      -8.895  54.840  49.531  0.00  0.00    +0.000 OA
ATOM      4  N   UNL     1     -10.604  53.332  49.170  0.00  0.00    +0.000 N 
ATOM      5  H   UNL     1      -8.737  51.856  48.556  0.00  0.00    +0.000 HD
ATOM      6  H   UNL     1     -10.849  52.408  48.936  0.00  0.00    +0.000 HD
ENDROOT
BRANCH   4   7
ATOM      7  C   UNL     1     -11.577  54.270  49.475  0.00  0.00    +0.000 A 
ATOM      8  S   UNL     1     -12.073  54.303  51.099  0.00  0.00    +0.000 S 
ATOM      9  C   UNL     1     -12.191  55.232  48.692  0.00  0.00    +0.000 A 
ATOM     10  C   UNL     1     -12.908  55.772  50.861  0.00  0.00    +0.000 A 
ATOM     11  C   UNL     1     -12.898  56.170  49.534  0.00  0.00    +0.000 A 
ATOM     12  C   UNL     1     -13.566  56.529  51.988  0.00  0.00    +0.000 C 
ATOM     13  C   UNL     1     -13.615  57.405  49.076  0.00  0.00    +0.000 C 
ATOM     14  C   UNL     1     -14.617  57.544  51.442  0.00  0.00    +0.000 C 
ATOM     15  C   UNL     1     -14.016  58.314  50.238  0.00  0.00    +0.000 C 
ATOM     16  C   UNL     1     -14.982  58.578  52.523  0.00  0.00    +0.000 C 
ATOM     17  C   UNL     1     -15.906  56.804  51.033  0.00  0.00    +0.000 C 
BRANCH   9  18
ATOM     18  C   UNL     1     -12.088  55.251  47.232  0.00  0.00    +0.000 C 
ATOM     19  O   UNL     1     -12.091  56.285  46.572  0.00  0.00    +0.000 OA
BRANCH  18  20
ATOM     20  O   UNL     1     -11.985  54.001  46.707  0.00  0.00    +0.000 OA
BRANCH  20  21
ATOM     21  C   UNL     1     -11.455  53.892  45.383  0.00  0.00    +0.000 C 
ATOM     22  C   UNL     1      -9.954  53.701  45.454  0.00  0.00    +0.000 C 
ENDBRANCH  20  21
ENDBRANCH  18  20
ENDBRANCH   9  18
ENDBRANCH   4   7
BRANCH   1  23
ATOM     23  S   UNL     1      -6.737  52.881  49.081  0.00  0.00    +0.000 S 
ATOM     24  O   UNL     1      -6.289  54.010  48.290  0.00  0.00    +0.000 OA
ATOM     25  O   UNL     1      -6.176  51.565  48.843  0.00  0.00    +0.000 OA
BRANCH  23  26
ATOM     26  C   UNL     1      -6.516  53.268  50.822  0.00  0.00    +0.000 A 
ATOM     27  N   UNL     1      -7.131  52.404  51.678  0.00  0.00    +0.000 NA
ATOM     28  C   UNL     1      -5.762  54.365  51.207  0.00  0.00    +0.000 A 
ATOM     29  C   UNL     1      -6.941  52.652  52.993  0.00  0.00    +0.000 A 
ATOM     30  C   UNL     1      -5.610  54.593  52.573  0.00  0.00    +0.000 A 
ATOM     31  C   UNL     1      -6.199  53.724  53.494  0.00  0.00    +0.000 A 
ATOM     32  C   UNL     1      -6.037  53.948  54.966  0.00  0.00    +0.000 C 
ENDBRANCH  23  26
ENDBRANCH   1  23
TORSDOF 6
ENDMDL
MODEL 3
REMARK VINA RESULT:      -7.0      4.021      7.676
REMARK  Name = 
REMARK  10 active torsions:
REMARK  status: ('A' for Active; 'I' for Inactive)
REMARK    1  A    between atoms: S_1  and  N_4
REMARK    2  A    between atoms: S_1  and  C_5
REMARK    3  A    between atoms: N_10  and  C_13
REMARK    4  A    between atoms: C_14  and  C_17
REMARK    5  A    between atoms: C_16  and  C_20
REMARK    6  A    between atoms: C_20  and  O_24
REMARK    7  A    between atoms: O_24  and  C_27
REMARK    8  A    between atoms: C_25  and  C_28
REMARK    9  A    between atoms: C_25  and  C_29
REMARK   10  A    between atoms: C_27  and  C_30
REMARK                            x       y       z     vdW  Elec       q    Type
REMARK                         _______ _______ _______ _____ _____    ______ ____
ROOT
ATOM      1  N   UNL     1     -14.450  55.071  51.214  0.00  0.00    +0.000 N 
ATOM      2  C   UNL     1     -13.136  55.265  51.629  0.00  0.00    +0.000 C 
ATOM      3  O   UNL     1     -12.796  56.302  52.185  0.00  0.00    +0.000 OA
ATOM      4  N   UNL     1     -12.285  54.241  51.282  0.00  0.00    +0.000 N 
ATOM      5  H   UNL     1     -14.703  54.195  50.845  0.00  0.00    +0.000 HD
ATOM      6  H   UNL     1     -12.616  53.452  50.796  0.00  0.00    +0.000 HD
ENDROOT
BRANCH   4   7
ATOM      7  C   UNL     1     -10.950  54.349  51.637  0.00  0.00    +0.000 A 
ATOM      8  S   UNL     1     -10.524  53.611  53.106  0.00  0.00    +0.000 S 
ATOM      9  C   UNL     1      -9.876  54.918  50.974  0.00  0.00    +0.000 A 
ATOM     10  C   UNL     1      -8.861  53.788  52.764  0.00  0.00    +0.000 A 
ATOM     11  C   UNL     1      -8.641  54.501  51.596  0.00  0.00    +0.000 A 
ATOM     12  C   UNL     1      -7.780  53.218  53.648  0.00  0.00    +0.000 C 
ATOM     13  C   UNL     1      -7.256  54.828  51.121  0.00  0.00    +0.000 C 
ATOM     14  C   UNL     1      -6.407  53.905  53.368  0.00  0.00    +0.000 C 
ATOM     15  C   UNL     1      -6.183  54.008  51.838  0.00  0.00    +0.000 C 
ATOM     16  C   UNL     1      -5.256  53.068  53.955  0.00  0.00    +0.000 C 
ATOM     17  C   UNL     1      -6.370  55.299  54.025  0.00  0.00    +0.000 C 
BRANCH   9  18
ATOM     18  C   UNL     1     -10.035  55.794  49.812  0.00  0.00    +0.000 C 
ATOM     19  O   UNL     1      -9.439  56.859  49.688  0.00  0.00    +0.000 OA
BRANCH  18  20
ATOM     20  O   UNL     1     -10.905  55.286  48.899  0.00  0.00    +0.000 OA
BRANCH  20  21
ATOM     21  C   UNL     1     -10.545  55.400  47.520  0.00  0.00    +0.000 C 
ATOM     22  C   UNL     1     -11.787  55.658  46.693  0.00  0.00    +0.000 C 
ENDBRANCH  20  21
ENDBRANCH  18  20
ENDBRANCH   9  18
ENDBRANCH   4   7
BRANCH   1  23
ATOM     23  S   UNL     1     -15.614  56.262  51.317  0.00  0.00    +0.000 S 
ATOM     24  O   UNL     1     -15.924  56.496  52.714  0.00  0.00    +0.000 OA
ATOM     25  O   UNL     1     -16.666  55.865  50.401  0.00  0.00    +0.000 OA
BRANCH  23  26
ATOM     26  C   UNL     1     -14.821  57.727  50.645  0.00  0.00    +0.000 A 
ATOM     27  N   UNL     1     -14.783  58.793  51.494  0.00  0.00    +0.000 NA
ATOM     28  C   UNL     1     -14.298  57.717  49.362  0.00  0.00    +0.000 A 
ATOM     29  C   UNL     1     -14.152  59.892  51.024  0.00  0.00    +0.000 A 
ATOM     30  C   UNL     1     -13.675  58.878  48.912  0.00  0.00    +0.000 A 
ATOM     31  C   UNL     1     -13.586  59.991  49.751  0.00  0.00    +0.000 A 
ATOM     32  C   UNL     1     -12.910  61.244  49.288  0.00  0.00    +0.000 C 
ENDBRANCH  23  26
ENDBRANCH   1  23
TORSDOF 6
ENDMDL
MODEL 4
REMARK VINA RESULT:      -6.8      3.769      5.551
REMARK  Name = 
REMARK  10 active torsions:
REMARK  status: ('A' for Active; 'I' for Inactive)
REMARK    1  A    between atoms: S_1  and  N_4
REMARK    2  A    between atoms: S_1  and  C_5
REMARK    3  A    between atoms: N_10  and  C_13
REMARK    4  A    between atoms: C_14  and  C_17
REMARK    5  A    between atoms: C_16  and  C_20
REMARK    6  A    between atoms: C_20  and  O_24
REMARK    7  A    between atoms: O_24  and  C_27
REMARK    8  A    between atoms: C_25  and  C_28
REMARK    9  A    between atoms: C_25  and  C_29
REMARK   10  A    between atoms: C_27  and  C_30
REMARK                            x       y       z     vdW  Elec       q    Type
REMARK                         _______ _______ _______ _____ _____    ______ ____
ROOT
ATOM      1  N   UNL     1      -7.927  53.166  50.495  0.00  0.00    +0.000 N 
ATOM      2  C   UNL     1      -8.939  54.095  50.723  0.00  0.00    +0.000 C 
ATOM      3  O   UNL     1      -8.841  54.929  51.615  0.00  0.00    +0.000 OA
ATOM      4  N   UNL     1     -10.045  53.920  49.924  0.00  0.00    +0.000 N 
ATOM      5  H   UNL     1      -8.005  52.565  49.720  0.00  0.00    +0.000 HD
ATOM      6  H   UNL     1     -10.076  53.200  49.254  0.00  0.00    +0.000 HD
ENDROOT
BRANCH   4   7
ATOM      7  C   UNL     1     -11.115  54.786  50.088  0.00  0.00    +0.000 A 
ATOM      8  S   UNL     1     -11.837  54.770  51.625  0.00  0.00    +0.000 S 
ATOM      9  C   UNL     1     -11.678  55.710  49.224  0.00  0.00    +0.000 A 
ATOM     10  C   UNL     1     -12.731  56.180  51.269  0.00  0.00    +0.000 A 
ATOM     11  C   UNL     1     -12.560  56.589  49.956  0.00  0.00    +0.000 A 
ATOM     12  C   UNL     1     -13.593  56.880  52.290  0.00  0.00    +0.000 C 
ATOM     13  C   UNL     1     -13.289  57.776  49.399  0.00  0.00    +0.000 C 
ATOM     14  C   UNL     1     -14.624  57.824  51.599  0.00  0.00    +0.000 C 
ATOM     15  C   UNL     1     -13.913  58.644  50.492  0.00  0.00    +0.000 C 
ATOM     16  C   UNL     1     -15.210  58.821  52.616  0.00  0.00    +0.000 C 
ATOM     17  C   UNL     1     -15.787  57.000  51.012  0.00  0.00    +0.000 C 
BRANCH   9  18
ATOM     18  C   UNL     1     -11.370  55.748  47.793  0.00  0.00    +0.000 C 
ATOM     19  O   UNL     1     -12.229  55.872  46.926  0.00  0.00    +0.000 OA
BRANCH  18  20
ATOM     20  O   UNL     1     -10.038  55.638  47.549  0.00  0.00    +0.000 OA
BRANCH  20  21
ATOM     21  C   UNL     1      -9.649  55.050  46.306  0.00  0.00    +0.000 C 
ATOM     22  C   UNL     1      -9.123  53.651  46.551  0.00  0.00    +0.000 C 
ENDBRANCH  20  21
ENDBRANCH  18  20
ENDBRANCH   9  18
ENDBRANCH   4   7
BRANCH   1  23
ATOM     23  S   UNL     1      -6.588  53.030  51.481  0.00  0.00    +0.000 S 
ATOM     24  O   UNL     1      -6.184  54.355  51.909  0.00  0.00    +0.000 OA
ATOM     25  O   UNL     1      -5.653  52.187  50.761  0.00  0.00    +0.000 OA
BRANCH  23  26
ATOM     26  C   UNL     1      -7.171  52.111  52.911  0.00  0.00    +0.000 A 
ATOM     27  N   UNL     1      -6.407  52.256  54.030  0.00  0.00    +0.000 NA
ATOM     28  C   UNL     1      -8.319  51.340  52.829  0.00  0.00    +0.000 A 
ATOM     29  C   UNL     1      -6.853  51.608  55.129  0.00  0.00    +0.000 A 
ATOM     30  C   UNL     1      -8.730  50.673  53.981  0.00  0.00    +0.000 A 
ATOM     31  C   UNL     1      -7.997  50.807  55.162  0.00  0.00    +0.000 A 
ATOM     32  C   UNL     1      -8.429  50.106  56.413  0.00  0.00    +0.000 C 
ENDBRANCH  23  26
ENDBRANCH   1  23
TORSDOF 6
ENDMDL
MODEL 5
REMARK VINA RESULT:      -6.6      3.906      7.560
REMARK  Name = 
REMARK  10 active torsions:
REMARK  status: ('A' for Active; 'I' for Inactive)
REMARK    1  A    between atoms: S_1  and  N_4
REMARK    2  A    between atoms: S_1  and  C_5
REMARK    3  A    between atoms: N_10  and  C_13
REMARK    4  A    between atoms: C_14  and  C_17
REMARK    5  A    between atoms: C_16  and  C_20
REMARK    6  A    between atoms: C_20  and  O_24
REMARK    7  A    between atoms: O_24  and  C_27
REMARK    8  A    between atoms: C_25  and  C_28
REMARK    9  A    between atoms: C_25  and  C_29
REMARK   10  A    between atoms: C_27  and  C_30
REMARK                            x       y       z     vdW  Elec       q    Type
REMARK                         _______ _______ _______ _____ _____    ______ ____
ROOT
ATOM      1  N   UNL     1      -7.889  55.954  50.760  0.00  0.00    +0.000 N 
ATOM      2  C   UNL     1      -8.333  55.141  49.721  0.00  0.00    +0.000 C 
ATOM      3  O   UNL     1      -8.655  53.977  49.923  0.00  0.00    +0.000 OA
ATOM      4  N   UNL     1      -8.287  55.744  48.484  0.00  0.00    +0.000 N 
ATOM      5  H   UNL     1      -7.715  56.905  50.574  0.00  0.00    +0.000 HD
ATOM      6  H   UNL     1      -7.976  56.672  48.386  0.00  0.00    +0.000 HD
ENDROOT
BRANCH   4   7
ATOM      7  C   UNL     1      -8.693  55.009  47.382  0.00  0.00    +0.000 A 
ATOM      8  S   UNL     1      -7.458  54.181  46.562  0.00  0.00    +0.000 S 
ATOM      9  C   UNL     1      -9.952  54.787  46.850  0.00  0.00    +0.000 A 
ATOM     10  C   UNL     1      -8.596  53.291  45.654  0.00  0.00    +0.000 A 
ATOM     11  C   UNL     1      -9.896  53.703  45.897  0.00  0.00    +0.000 A 
ATOM     12  C   UNL     1      -8.199  52.185  44.708  0.00  0.00    +0.000 C 
ATOM     13  C   UNL     1     -11.063  53.100  45.172  0.00  0.00    +0.000 C 
ATOM     14  C   UNL     1      -9.346  51.875  43.696  0.00  0.00    +0.000 C 
ATOM     15  C   UNL     1     -10.697  51.801  44.454  0.00  0.00    +0.000 C 
ATOM     16  C   UNL     1      -9.114  50.513  43.018  0.00  0.00    +0.000 C 
ATOM     17  C   UNL     1      -9.390  52.956  42.598  0.00  0.00    +0.000 C 
BRANCH   9  18
ATOM     18  C   UNL     1     -11.129  55.561  47.248  0.00  0.00    +0.000 C 
ATOM     19  O   UNL     1     -11.854  56.140  46.445  0.00  0.00    +0.000 OA
BRANCH  18  20
ATOM     20  O   UNL     1     -11.321  55.553  48.593  0.00  0.00    +0.000 OA
BRANCH  20  21
ATOM     21  C   UNL     1     -12.460  54.844  49.086  0.00  0.00    +0.000 C 
ATOM     22  C   UNL     1     -12.099  53.387  49.292  0.00  0.00    +0.000 C 
ENDBRANCH  20  21
ENDBRANCH  18  20
ENDBRANCH   9  18
ENDBRANCH   4   7
BRANCH   1  23
ATOM     23  S   UNL     1      -7.638  55.384  52.307  0.00  0.00    +0.000 S 
ATOM     24  O   UNL     1      -8.881  54.836  52.813  0.00  0.00    +0.000 OA
ATOM     25  O   UNL     1      -6.980  56.460  53.022  0.00  0.00    +0.000 OA
BRANCH  23  26
ATOM     26  C   UNL     1      -6.454  54.048  52.110  0.00  0.00    +0.000 A 
ATOM     27  N   UNL     1      -6.862  52.847  52.609  0.00  0.00    +0.000 NA
ATOM     28  C   UNL     1      -5.238  54.273  51.483  0.00  0.00    +0.000 A 
ATOM     29  C   UNL     1      -6.004  51.818  52.431  0.00  0.00    +0.000 A 
ATOM     30  C   UNL     1      -4.376  53.188  51.340  0.00  0.00    +0.000 A 
ATOM     31  C   UNL     1      -4.757  51.930  51.812  0.00  0.00    +0.000 A 
ATOM     32  C   UNL     1      -3.848  50.750  51.657  0.00  0.00    +0.000 C 
ENDBRANCH  23  26
ENDBRANCH   1  23
TORSDOF 6
ENDMDL
MODEL 6
REMARK VINA RESULT:      -6.6      3.912      8.090
REMARK  Name = 
REMARK  10 active torsions:
REMARK  status: ('A' for Active; 'I' for Inactive)
REMARK    1  A    between atoms: S_1  and  N_4
REMARK    2  A    between atoms: S_1  and  C_5
REMARK    3  A    between atoms: N_10  and  C_13
REMARK    4  A    between atoms: C_14  and  C_17
REMARK    5  A    between atoms: C_16  and  C_20
REMARK    6  A    between atoms: C_20  and  O_24
REMARK    7  A    between atoms: O_24  and  C_27
REMARK    8  A    between atoms: C_25  and  C_28
REMARK    9  A    between atoms: C_25  and  C_29
REMARK   10  A    between atoms: C_27  and  C_30
REMARK                            x       y       z     vdW  Elec       q    Type
REMARK                         _______ _______ _______ _____ _____    ______ ____
ROOT
ATOM      1  N   UNL     1     -11.531  56.816  49.103  0.00  0.00    +0.000 N 
ATOM      2  C   UNL     1     -10.743  55.884  49.772  0.00  0.00    +0.000 C 
ATOM      3  O   UNL     1     -11.222  54.835  50.188  0.00  0.00    +0.000 OA
ATOM      4  N   UNL     1      -9.447  56.295  49.978  0.00  0.00    +0.000 N 
ATOM      5  H   UNL     1     -11.095  57.608  48.714  0.00  0.00    +0.000 HD
ATOM      6  H   UNL     1      -9.137  57.172  49.655  0.00  0.00    +0.000 HD
ENDROOT
BRANCH   4   7
ATOM      7  C   UNL     1      -8.588  55.443  50.653  0.00  0.00    +0.000 A 
ATOM      8  S   UNL     1      -8.667  55.518  52.348  0.00  0.00    +0.000 S 
ATOM      9  C   UNL     1      -7.698  54.491  50.185  0.00  0.00    +0.000 A 
ATOM     10  C   UNL     1      -7.727  54.102  52.500  0.00  0.00    +0.000 A 
ATOM     11  C   UNL     1      -7.270  53.645  51.275  0.00  0.00    +0.000 A 
ATOM     12  C   UNL     1      -7.451  53.445  53.829  0.00  0.00    +0.000 C 
ATOM     13  C   UNL     1      -6.379  52.442  51.164  0.00  0.00    +0.000 C 
ATOM     14  C   UNL     1      -6.227  52.481  53.733  0.00  0.00    +0.000 C 
ATOM     15  C   UNL     1      -6.348  51.618  52.452  0.00  0.00    +0.000 C 
ATOM     16  C   UNL     1      -6.196  51.526  54.940  0.00  0.00    +0.000 C 
ATOM     17  C   UNL     1      -4.915  53.290  53.730  0.00  0.00    +0.000 C 
BRANCH   9  18
ATOM     18  C   UNL     1      -7.301  54.399  48.779  0.00  0.00    +0.000 C 
ATOM     19  O   UNL     1      -6.154  54.598  48.391  0.00  0.00    +0.000 OA
BRANCH  18  20
ATOM     20  O   UNL     1      -8.342  54.066  47.971  0.00  0.00    +0.000 OA
BRANCH  20  21
ATOM     21  C   UNL     1      -8.561  54.884  46.818  0.00  0.00    +0.000 C 
ATOM     22  C   UNL     1      -9.987  54.709  46.338  0.00  0.00    +0.000 C 
ENDBRANCH  20  21
ENDBRANCH  18  20
ENDBRANCH   9  18
ENDBRANCH   4   7
BRANCH   1  23
ATOM     23  S   UNL     1     -13.182  56.646  48.932  0.00  0.00    +0.000 S 
ATOM     24  O   UNL     1     -13.513  55.235  48.951  0.00  0.00    +0.000 OA
ATOM     25  O   UNL     1     -13.544  57.458  47.786  0.00  0.00    +0.000 OA
BRANCH  23  26
ATOM     26  C   UNL     1     -13.869  57.423  50.399  0.00  0.00    +0.000 A 
ATOM     27  N   UNL     1     -14.157  58.748  50.258  0.00  0.00    +0.000 NA
ATOM     28  C   UNL     1     -14.080  56.685  51.552  0.00  0.00    +0.000 A 
ATOM     29  C   UNL     1     -14.716  59.342  51.336  0.00  0.00    +0.000 A 
ATOM     30  C   UNL     1     -14.639  57.343  52.645  0.00  0.00    +0.000 A 
ATOM     31  C   UNL     1     -14.975  58.695  52.546  0.00  0.00    +0.000 A 
ATOM     32  C   UNL     1     -15.588  59.416  53.707  0.00  0.00    +0.000 C 
ENDBRANCH  23  26
ENDBRANCH   1  23
TORSDOF 6
ENDMDL
MODEL 7
REMARK VINA RESULT:      -6.3      4.024      8.441
REMARK  Name = 
REMARK  10 active torsions:
REMARK  status: ('A' for Active; 'I' for Inactive)
REMARK    1  A    between atoms: S_1  and  N_4
REMARK    2  A    between atoms: S_1  and  C_5
REMARK    3  A    between atoms: N_10  and  C_13
REMARK    4  A    between atoms: C_14  and  C_17
REMARK    5  A    between atoms: C_16  and  C_20
REMARK    6  A    between atoms: C_20  and  O_24
REMARK    7  A    between atoms: O_24  and  C_27
REMARK    8  A    between atoms: C_25  and  C_28
REMARK    9  A    between atoms: C_25  and  C_29
REMARK   10  A    between atoms: C_27  and  C_30
REMARK                            x       y       z     vdW  Elec       q    Type
REMARK                         _______ _______ _______ _____ _____    ______ ____
ROOT
ATOM      1  N   UNL     1     -12.744  55.498  49.275  0.00  0.00    +0.000 N 
ATOM      2  C   UNL     1     -11.591  55.330  50.036  0.00  0.00    +0.000 C 
ATOM      3  O   UNL     1     -11.096  56.269  50.648  0.00  0.00    +0.000 OA
ATOM      4  N   UNL     1     -11.049  54.068  49.955  0.00  0.00    +0.000 N 
ATOM      5  H   UNL     1     -13.156  54.705  48.863  0.00  0.00    +0.000 HD
ATOM      6  H   UNL     1     -11.475  53.369  49.408  0.00  0.00    +0.000 HD
ENDROOT
BRANCH   4   7
ATOM      7  C   UNL     1      -9.888  53.806  50.665  0.00  0.00    +0.000 A 
ATOM      8  S   UNL     1      -8.456  54.384  49.959  0.00  0.00    +0.000 S 
ATOM      9  C   UNL     1      -9.689  53.192  51.890  0.00  0.00    +0.000 A 
ATOM     10  C   UNL     1      -7.574  54.077  51.389  0.00  0.00    +0.000 A 
ATOM     11  C   UNL     1      -8.343  53.441  52.350  0.00  0.00    +0.000 A 
ATOM     12  C   UNL     1      -6.128  54.473  51.556  0.00  0.00    +0.000 C 
ATOM     13  C   UNL     1      -7.766  53.022  53.670  0.00  0.00    +0.000 C 
ATOM     14  C   UNL     1      -5.465  53.683  52.727  0.00  0.00    +0.000 C 
ATOM     15  C   UNL     1      -6.415  53.679  53.952  0.00  0.00    +0.000 C 
ATOM     16  C   UNL     1      -4.149  54.358  53.157  0.00  0.00    +0.000 C 
ATOM     17  C   UNL     1      -5.140  52.245  52.278  0.00  0.00    +0.000 C 
BRANCH   9  18
ATOM     18  C   UNL     1     -10.735  52.428  52.573  0.00  0.00    +0.000 C 
ATOM     19  O   UNL     1     -11.005  52.575  53.761  0.00  0.00    +0.000 OA
BRANCH  18  20
ATOM     20  O   UNL     1     -11.364  51.557  51.741  0.00  0.00    +0.000 OA
BRANCH  20  21
ATOM     21  C   UNL     1     -10.671  50.350  51.415  0.00  0.00    +0.000 C 
ATOM     22  C   UNL     1     -10.620  50.187  49.910  0.00  0.00    +0.000 C 
ENDBRANCH  20  21
ENDBRANCH  18  20
ENDBRANCH   9  18
ENDBRANCH   4   7
BRANCH   1  23
ATOM     23  S   UNL     1     -13.456  56.987  49.031  0.00  0.00    +0.000 S 
ATOM     24  O   UNL     1     -14.534  56.841  48.073  0.00  0.00    +0.000 OA
ATOM     25  O   UNL     1     -12.366  57.904  48.759  0.00  0.00    +0.000 OA
BRANCH  23  26
ATOM     26  C   UNL     1     -14.154  57.419  50.629  0.00  0.00    +0.000 A 
ATOM     27  N   UNL     1     -13.929  58.706  51.018  0.00  0.00    +0.000 NA
ATOM     28  C   UNL     1     -14.866  56.483  51.362  0.00  0.00    +0.000 A 
ATOM     29  C   UNL     1     -14.483  59.065  52.198  0.00  0.00    +0.000 A 
ATOM     30  C   UNL     1     -15.402  56.891  52.581  0.00  0.00    +0.000 A 
ATOM     31  C   UNL     1     -15.222  58.206  53.015  0.00  0.00    +0.000 A 
ATOM     32  C   UNL     1     -15.800  58.665  54.318  0.00  0.00    +0.000 C 
ENDBRANCH  23  26
ENDBRANCH   1  23
TORSDOF 6
ENDMDL
MODEL 8
REMARK VINA RESULT:      -6.3      4.037      8.118
REMARK  Name = 
REMARK  10 active torsions:
REMARK  status: ('A' for Active; 'I' for Inactive)
REMARK    1  A    between atoms: S_1  and  N_4
REMARK    2  A    between atoms: S_1  and  C_5
REMARK    3  A    between atoms: N_10  and  C_13
REMARK    4  A    between atoms: C_14  and  C_17
REMARK    5  A    between atoms: C_16  and  C_20
REMARK    6  A    between atoms: C_20  and  O_24
REMARK    7  A    between atoms: O_24  and  C_27
REMARK    8  A    between atoms: C_25  and  C_28
REMARK    9  A    between atoms: C_25  and  C_29
REMARK   10  A    between atoms: C_27  and  C_30
REMARK                            x       y       z     vdW  Elec       q    Type
REMARK                         _______ _______ _______ _____ _____    ______ ____
ROOT
ATOM      1  N   UNL     1      -8.183  55.220  51.617  0.00  0.00    +0.000 N 
ATOM      2  C   UNL     1      -8.303  54.430  50.478  0.00  0.00    +0.000 C 
ATOM      3  O   UNL     1      -7.647  53.404  50.349  0.00  0.00    +0.000 OA
ATOM      4  N   UNL     1      -9.141  54.956  49.521  0.00  0.00    +0.000 N 
ATOM      5  H   UNL     1      -8.784  55.993  51.721  0.00  0.00    +0.000 HD
ATOM      6  H   UNL     1      -9.606  55.810  49.672  0.00  0.00    +0.000 HD
ENDROOT
BRANCH   4   7
ATOM      7  C   UNL     1      -9.313  54.250  48.341  0.00  0.00    +0.000 A 
ATOM      8  S   UNL     1      -8.248  54.661  47.084  0.00  0.00    +0.000 S 
ATOM      9  C   UNL     1     -10.179  53.221  48.015  0.00  0.00    +0.000 A 
ATOM     10  C   UNL     1      -8.726  53.298  46.174  0.00  0.00    +0.000 A 
ATOM     11  C   UNL     1      -9.763  52.605  46.776  0.00  0.00    +0.000 A 
ATOM     12  C   UNL     1      -8.069  52.917  44.870  0.00  0.00    +0.000 C 
ATOM     13  C   UNL     1     -10.385  51.401  46.132  0.00  0.00    +0.000 C 
ATOM     14  C   UNL     1      -8.977  51.949  44.049  0.00  0.00    +0.000 C 
ATOM     15  C   UNL     1      -9.539  50.848  44.986  0.00  0.00    +0.000 C 
ATOM     16  C   UNL     1      -8.162  51.251  42.945  0.00  0.00    +0.000 C 
ATOM     17  C   UNL     1     -10.119  52.735  43.377  0.00  0.00    +0.000 C 
BRANCH   9  18
ATOM     18  C   UNL     1     -11.322  52.850  48.852  0.00  0.00    +0.000 C 
ATOM     19  O   UNL     1     -12.479  52.844  48.443  0.00  0.00    +0.000 OA
BRANCH  18  20
ATOM     20  O   UNL     1     -10.948  52.513  50.114  0.00  0.00    +0.000 OA
BRANCH  20  21
ATOM     21  C   UNL     1     -11.910  52.711  51.154  0.00  0.00    +0.000 C 
ATOM     22  C   UNL     1     -11.921  54.170  51.561  0.00  0.00    +0.000 C 
ENDBRANCH  20  21
ENDBRANCH  18  20
ENDBRANCH   9  18
ENDBRANCH   4   7
BRANCH   1  23
ATOM     23  S   UNL     1      -7.063  54.912  52.815  0.00  0.00    +0.000 S 
ATOM     24  O   UNL     1      -7.076  56.008  53.764  0.00  0.00    +0.000 OA
ATOM     25  O   UNL     1      -5.834  54.569  52.125  0.00  0.00    +0.000 OA
BRANCH  23  26
ATOM     26  C   UNL     1      -7.670  53.431  53.630  0.00  0.00    +0.000 A 
ATOM     27  N   UNL     1      -6.716  52.714  54.288  0.00  0.00    +0.000 NA
ATOM     28  C   UNL     1      -9.013  53.097  53.572  0.00  0.00    +0.000 A 
ATOM     29  C   UNL     1      -7.159  51.618  54.946  0.00  0.00    +0.000 A 
ATOM     30  C   UNL     1      -9.422  51.949  54.247  0.00  0.00    +0.000 A 
ATOM     31  C   UNL     1      -8.489  51.191  54.958  0.00  0.00    +0.000 A 
ATOM     32  C   UNL     1      -8.911  49.960  55.699  0.00  0.00    +0.000 C 
ENDBRANCH  23  26
ENDBRANCH   1  23
TORSDOF 6
ENDMDL
MODEL 9
REMARK VINA RESULT:      -6.3      2.476      3.546
REMARK  Name = 
REMARK  10 active torsions:
REMARK  status: ('A' for Active; 'I' for Inactive)
REMARK    1  A    between atoms: S_1  and  N_4
REMARK    2  A    between atoms: S_1  and  C_5
REMARK    3  A    between atoms: N_10  and  C_13
REMARK    4  A    between atoms: C_14  and  C_17
REMARK    5  A    between atoms: C_16  and  C_20
REMARK    6  A    between atoms: C_20  and  O_24
REMARK    7  A    between atoms: O_24  and  C_27
REMARK    8  A    between atoms: C_25  and  C_28
REMARK    9  A    between atoms: C_25  and  C_29
REMARK   10  A    between atoms: C_27  and  C_30
REMARK                            x       y       z     vdW  Elec       q    Type
REMARK                         _______ _______ _______ _____ _____    ______ ____
ROOT
ATOM      1  N   UNL     1     -10.776  54.032  45.129  0.00  0.00    +0.000 N 
ATOM      2  C   UNL     1     -11.300  54.340  46.381  0.00  0.00    +0.000 C 
ATOM      3  O   UNL     1     -11.687  53.458  47.138  0.00  0.00    +0.000 OA
ATOM      4  N   UNL     1     -11.408  55.690  46.623  0.00  0.00    +0.000 N 
ATOM      5  H   UNL     1     -10.402  54.761  44.583  0.00  0.00    +0.000 HD
ATOM      6  H   UNL     1     -11.118  56.349  45.952  0.00  0.00    +0.000 HD
ENDROOT
BRANCH   4   7
ATOM      7  C   UNL     1     -11.937  56.098  47.838  0.00  0.00    +0.000 A 
ATOM      8  S   UNL     1     -13.555  56.610  47.794  0.00  0.00    +0.000 S 
ATOM      9  C   UNL     1     -11.387  56.117  49.108  0.00  0.00    +0.000 A 
ATOM     10  C   UNL     1     -13.650  56.606  49.498  0.00  0.00    +0.000 A 
ATOM     11  C   UNL     1     -12.428  56.325  50.088  0.00  0.00    +0.000 A 
ATOM     12  C   UNL     1     -14.932  56.876  50.245  0.00  0.00    +0.000 C 
ATOM     13  C   UNL     1     -12.255  56.319  51.578  0.00  0.00    +0.000 C 
ATOM     14  C   UNL     1     -14.644  57.264  51.728  0.00  0.00    +0.000 C 
ATOM     15  C   UNL     1     -13.591  56.294  52.322  0.00  0.00    +0.000 C 
ATOM     16  C   UNL     1     -15.924  57.141  52.576  0.00  0.00    +0.000 C 
ATOM     17  C   UNL     1     -14.155  58.723  51.809  0.00  0.00    +0.000 C 
BRANCH   9  18
ATOM     18  C   UNL     1      -9.956  55.933  49.357  0.00  0.00    +0.000 C 
ATOM     19  O   UNL     1      -9.150  56.858  49.354  0.00  0.00    +0.000 OA
BRANCH  18  20
ATOM     20  O   UNL     1      -9.638  54.633  49.593  0.00  0.00    +0.000 OA
BRANCH  20  21
ATOM     21  C   UNL     1      -8.705  54.370  50.645  0.00  0.00    +0.000 C 
ATOM     22  C   UNL     1      -9.447  53.859  51.862  0.00  0.00    +0.000 C 
ENDBRANCH  20  21
ENDBRANCH  18  20
ENDBRANCH   9  18
ENDBRANCH   4   7
BRANCH   1  23
ATOM     23  S   UNL     1     -10.753  52.481  44.517  0.00  0.00    +0.000 S 
ATOM     24  O   UNL     1     -10.226  52.516  43.167  0.00  0.00    +0.000 OA
ATOM     25  O   UNL     1     -12.078  51.942  44.761  0.00  0.00    +0.000 OA
BRANCH  23  26
ATOM     26  C   UNL     1      -9.596  51.597  45.568  0.00  0.00    +0.000 A 
ATOM     27  N   UNL     1     -10.137  50.551  46.255  0.00  0.00    +0.000 NA
ATOM     28  C   UNL     1      -8.267  51.984  45.631  0.00  0.00    +0.000 A 
ATOM     29  C   UNL     1      -9.273  49.845  47.019  0.00  0.00    +0.000 A 
ATOM     30  C   UNL     1      -7.418  51.240  46.447  0.00  0.00    +0.000 A 
ATOM     31  C   UNL     1      -7.915  50.142  47.154  0.00  0.00    +0.000 A 
ATOM     32  C   UNL     1      -7.015  49.325  48.027  0.00  0.00    +0.000 C 
ENDBRANCH  23  26
ENDBRANCH   1  23
TORSDOF 6
ENDMDL
