MODEL 1
REMARK VINA RESULT:      -7.2      0.000      0.000
REMARK  Name = 
REMARK  10 active torsions:
REMARK  status: ('A' for Active; 'I' for Inactive)
REMARK    1  A    between atoms: S_1  and  N_4
REMARK    2  A    between atoms: S_1  and  C_5
REMARK    3  A    between atoms: N_10  and  C_13
REMARK    4  A    between atoms: C_14  and  C_17
REMARK    5  A    between atoms: C_16  and  C_20
REMARK    6  A    between atoms: C_20  and  O_24
REMARK    7  A    between atoms: O_24  and  C_27
REMARK    8  A    between atoms: C_25  and  C_28
REMARK    9  A    between atoms: C_25  and  C_29
REMARK   10  A    between atoms: C_27  and  C_30
REMARK                            x       y       z     vdW  Elec       q    Type
REMARK                         _______ _______ _______ _____ _____    ______ ____
ROOT
ATOM      1  N   UNL     1      -8.991  52.352  49.337  0.00  0.00    +0.000 N 
ATOM      2  C   UNL     1     -10.181  53.023  49.600  0.00  0.00    +0.000 C 
ATOM      3  O   UNL     1     -11.266  52.546  49.315  0.00  0.00    +0.000 OA
ATOM      4  N   UNL     1      -9.995  54.303  50.094  0.00  0.00    +0.000 N 
ATOM      5  H   UNL     1      -8.148  52.794  49.587  0.00  0.00    +0.000 HD
ATOM      6  H   UNL     1      -9.093  54.651  50.277  0.00  0.00    +0.000 HD
ENDROOT
BRANCH   4   7
ATOM      7  C   UNL     1     -11.120  55.076  50.323  0.00  0.00    +0.000 A 
ATOM      8  S   UNL     1     -11.670  55.102  51.930  0.00  0.00    +0.000 S 
ATOM      9  C   UNL     1     -11.859  55.883  49.476  0.00  0.00    +0.000 A 
ATOM     10  C   UNL     1     -12.734  56.394  51.593  0.00  0.00    +0.000 A 
ATOM     11  C   UNL     1     -12.745  56.726  50.248  0.00  0.00    +0.000 A 
ATOM     12  C   UNL     1     -13.551  57.076  52.663  0.00  0.00    +0.000 C 
ATOM     13  C   UNL     1     -13.648  57.798  49.708  0.00  0.00    +0.000 C 
ATOM     14  C   UNL     1     -14.741  57.868  52.041  0.00  0.00    +0.000 C 
ATOM     15  C   UNL     1     -14.240  58.674  50.814  0.00  0.00    +0.000 C 
ATOM     16  C   UNL     1     -15.314  58.870  53.059  0.00  0.00    +0.000 C 
ATOM     17  C   UNL     1     -15.871  56.900  51.637  0.00  0.00    +0.000 C 
BRANCH   9  18
ATOM     18  C   UNL     1     -11.710  55.848  48.019  0.00  0.00    +0.000 C 
ATOM     19  O   UNL     1     -12.663  55.828  47.249  0.00  0.00    +0.000 OA
BRANCH  18  20
ATOM     20  O   UNL     1     -10.406  55.847  47.633  0.00  0.00    +0.000 OA
BRANCH  20  21
ATOM     21  C   UNL     1     -10.051  55.004  46.533  0.00  0.00    +0.000 C 
ATOM     22  C   UNL     1      -8.562  55.112  46.274  0.00  0.00    +0.000 C 
ENDBRANCH  20  21
ENDBRANCH  18  20
ENDBRANCH   9  18
ENDBRANCH   4   7
BRANCH   1  23
ATOM     23  S   UNL     1      -8.902  50.845  48.627  0.00  0.00    +0.000 S 
ATOM     24  O   UNL     1      -9.982  49.997  49.080  0.00  0.00    +0.000 OA
ATOM     25  O   UNL     1      -7.520  50.435  48.796  0.00  0.00    +0.000 OA
BRANCH  23  26
ATOM     26  C   UNL     1      -9.139  51.199  46.897  0.00  0.00    +0.000 A 
ATOM     27  C   UNL     1     -10.435  51.257  46.363  0.00  0.00    +0.000 A 
ATOM     28  C   UNL     1      -8.040  51.491  46.093  0.00  0.00    +0.000 A 
ATOM     29  C   UNL     1     -10.615  51.564  45.012  0.00  0.00    +0.000 A 
ATOM     30  C   UNL     1      -8.223  51.793  44.738  0.00  0.00    +0.000 A 
ATOM     31  C   UNL     1      -9.512  51.826  44.186  0.00  0.00    +0.000 A 
ATOM     32  C   UNL     1      -9.692  52.137  42.729  0.00  0.00    +0.000 C 
ENDBRANCH  23  26
ENDBRANCH   1  23
TORSDOF 6
ENDMDL
MODEL 2
REMARK VINA RESULT:      -7.0      1.693      2.333
REMARK  Name = 
REMARK  10 active torsions:
REMARK  status: ('A' for Active; 'I' for Inactive)
REMARK    1  A    between atoms: S_1  and  N_4
REMARK    2  A    between atoms: S_1  and  C_5
REMARK    3  A    between atoms: N_10  and  C_13
REMARK    4  A    between atoms: C_14  and  C_17
REMARK    5  A    between atoms: C_16  and  C_20
REMARK    6  A    between atoms: C_20  and  O_24
REMARK    7  A    between atoms: O_24  and  C_27
REMARK    8  A    between atoms: C_25  and  C_28
REMARK    9  A    between atoms: C_25  and  C_29
REMARK   10  A    between atoms: C_27  and  C_30
REMARK                            x       y       z     vdW  Elec       q    Type
REMARK                         _______ _______ _______ _____ _____    ______ ____
ROOT
ATOM      1  N   UNL     1      -8.033  53.383  49.685  0.00  0.00    +0.000 N 
ATOM      2  C   UNL     1      -9.165  54.192  49.722  0.00  0.00    +0.000 C 
ATOM      3  O   UNL     1      -9.241  55.223  49.076  0.00  0.00    +0.000 OA
ATOM      4  N   UNL     1     -10.115  53.770  50.636  0.00  0.00    +0.000 N 
ATOM      5  H   UNL     1      -8.033  52.565  50.233  0.00  0.00    +0.000 HD
ATOM      6  H   UNL     1      -9.988  52.943  51.156  0.00  0.00    +0.000 HD
ENDROOT
BRANCH   4   7
ATOM      7  C   UNL     1     -11.248  54.549  50.796  0.00  0.00    +0.000 A 
ATOM      8  S   UNL     1     -11.423  55.272  52.324  0.00  0.00    +0.000 S 
ATOM      9  C   UNL     1     -12.252  54.890  49.908  0.00  0.00    +0.000 A 
ATOM     10  C   UNL     1     -12.687  56.268  51.757  0.00  0.00    +0.000 A 
ATOM     11  C   UNL     1     -13.041  55.974  50.450  0.00  0.00    +0.000 A 
ATOM     12  C   UNL     1     -13.323  57.341  52.609  0.00  0.00    +0.000 C 
ATOM     13  C   UNL     1     -14.169  56.686  49.759  0.00  0.00    +0.000 C 
ATOM     14  C   UNL     1     -14.712  57.761  52.037  0.00  0.00    +0.000 C 
ATOM     15  C   UNL     1     -14.603  57.951  50.502  0.00  0.00    +0.000 C 
ATOM     16  C   UNL     1     -15.163  59.101  52.646  0.00  0.00    +0.000 C 
ATOM     17  C   UNL     1     -15.773  56.698  52.384  0.00  0.00    +0.000 C 
BRANCH   9  18
ATOM     18  C   UNL     1     -12.430  54.220  48.618  0.00  0.00    +0.000 C 
ATOM     19  O   UNL     1     -12.561  53.006  48.507  0.00  0.00    +0.000 OA
BRANCH  18  20
ATOM     20  O   UNL     1     -12.438  55.095  47.577  0.00  0.00    +0.000 OA
BRANCH  20  21
ATOM     21  C   UNL     1     -11.323  55.056  46.682  0.00  0.00    +0.000 C 
ATOM     22  C   UNL     1     -11.686  54.238  45.459  0.00  0.00    +0.000 C 
ENDBRANCH  20  21
ENDBRANCH  18  20
ENDBRANCH   9  18
ENDBRANCH   4   7
BRANCH   1  23
ATOM     23  S   UNL     1      -6.678  53.709  48.769  0.00  0.00    +0.000 S 
ATOM     24  O   UNL     1      -5.636  52.741  49.026  0.00  0.00    +0.000 OA
ATOM     25  O   UNL     1      -6.432  55.127  48.961  0.00  0.00    +0.000 OA
BRANCH  23  26
ATOM     26  C   UNL     1      -7.258  53.497  47.098  0.00  0.00    +0.000 A 
ATOM     27  C   UNL     1      -7.597  52.219  46.630  0.00  0.00    +0.000 A 
ATOM     28  C   UNL     1      -7.445  54.611  46.283  0.00  0.00    +0.000 A 
ATOM     29  C   UNL     1      -8.080  52.063  45.327  0.00  0.00    +0.000 A 
ATOM     30  C   UNL     1      -7.924  54.451  44.977  0.00  0.00    +0.000 A 
ATOM     31  C   UNL     1      -8.239  53.175  44.487  0.00  0.00    +0.000 A 
ATOM     32  C   UNL     1      -8.737  53.018  43.080  0.00  0.00    +0.000 C 
ENDBRANCH  23  26
ENDBRANCH   1  23
TORSDOF 6
ENDMDL
MODEL 3
REMARK VINA RESULT:      -6.9      2.886      4.592
REMARK  Name = 
REMARK  10 active torsions:
REMARK  status: ('A' for Active; 'I' for Inactive)
REMARK    1  A    between atoms: S_1  and  N_4
REMARK    2  A    between atoms: S_1  and  C_5
REMARK    3  A    between atoms: N_10  and  C_13
REMARK    4  A    between atoms: C_14  and  C_17
REMARK    5  A    between atoms: C_16  and  C_20
REMARK    6  A    between atoms: C_20  and  O_24
REMARK    7  A    between atoms: O_24  and  C_27
REMARK    8  A    between atoms: C_25  and  C_28
REMARK    9  A    between atoms: C_25  and  C_29
REMARK   10  A    between atoms: C_27  and  C_30
REMARK                            x       y       z     vdW  Elec       q    Type
REMARK                         _______ _______ _______ _____ _____    ______ ____
ROOT
ATOM      1  N   UNL     1      -8.369  52.711  48.901  0.00  0.00    +0.000 N 
ATOM      2  C   UNL     1      -9.278  53.732  49.161  0.00  0.00    +0.000 C 
ATOM      3  O   UNL     1      -8.917  54.840  49.519  0.00  0.00    +0.000 OA
ATOM      4  N   UNL     1     -10.599  53.327  49.087  0.00  0.00    +0.000 N 
ATOM      5  H   UNL     1      -8.725  51.838  48.620  0.00  0.00    +0.000 HD
ATOM      6  H   UNL     1     -10.835  52.408  48.822  0.00  0.00    +0.000 HD
ENDROOT
BRANCH   4   7
ATOM      7  C   UNL     1     -11.578  54.255  49.397  0.00  0.00    +0.000 A 
ATOM      8  S   UNL     1     -12.083  54.263  51.019  0.00  0.00    +0.000 S 
ATOM      9  C   UNL     1     -12.193  55.224  48.625  0.00  0.00    +0.000 A 
ATOM     10  C   UNL     1     -12.929  55.729  50.796  0.00  0.00    +0.000 A 
ATOM     11  C   UNL     1     -12.914  56.146  49.474  0.00  0.00    +0.000 A 
ATOM     12  C   UNL     1     -13.602  56.462  51.930  0.00  0.00    +0.000 C 
ATOM     13  C   UNL     1     -13.640  57.383  49.029  0.00  0.00    +0.000 C 
ATOM     14  C   UNL     1     -14.659  57.475  51.395  0.00  0.00    +0.000 C 
ATOM     15  C   UNL     1     -14.059  58.268  50.205  0.00  0.00    +0.000 C 
ATOM     16  C   UNL     1     -15.041  58.488  52.490  0.00  0.00    +0.000 C 
ATOM     17  C   UNL     1     -15.940  56.731  50.967  0.00  0.00    +0.000 C 
BRANCH   9  18
ATOM     18  C   UNL     1     -12.082  55.262  47.164  0.00  0.00    +0.000 C 
ATOM     19  O   UNL     1     -12.055  56.304  46.522  0.00  0.00    +0.000 OA
BRANCH  18  20
ATOM     20  O   UNL     1     -12.006  54.017  46.620  0.00  0.00    +0.000 OA
BRANCH  20  21
ATOM     21  C   UNL     1     -11.410  53.906  45.325  0.00  0.00    +0.000 C 
ATOM     22  C   UNL     1      -9.913  53.721  45.472  0.00  0.00    +0.000 C 
ENDBRANCH  20  21
ENDBRANCH  18  20
ENDBRANCH   9  18
ENDBRANCH   4   7
BRANCH   1  23
ATOM     23  S   UNL     1      -6.714  52.874  49.033  0.00  0.00    +0.000 S 
ATOM     24  O   UNL     1      -6.246  54.015  48.278  0.00  0.00    +0.000 OA
ATOM     25  O   UNL     1      -6.188  51.547  48.770  0.00  0.00    +0.000 OA
BRANCH  23  26
ATOM     26  C   UNL     1      -6.477  53.200  50.768  0.00  0.00    +0.000 A 
ATOM     27  C   UNL     1      -5.769  54.339  51.179  0.00  0.00    +0.000 A 
ATOM     28  C   UNL     1      -7.060  52.362  51.717  0.00  0.00    +0.000 A 
ATOM     29  C   UNL     1      -5.612  54.605  52.542  0.00  0.00    +0.000 A 
ATOM     30  C   UNL     1      -6.897  52.628  53.081  0.00  0.00    +0.000 A 
ATOM     31  C   UNL     1      -6.166  53.748  53.505  0.00  0.00    +0.000 A 
ATOM     32  C   UNL     1      -5.987  54.011  54.971  0.00  0.00    +0.000 C 
ENDBRANCH  23  26
ENDBRANCH   1  23
TORSDOF 6
ENDMDL
MODEL 4
REMARK VINA RESULT:      -6.8      3.386      8.122
REMARK  Name = 
REMARK  10 active torsions:
REMARK  status: ('A' for Active; 'I' for Inactive)
REMARK    1  A    between atoms: S_1  and  N_4
REMARK    2  A    between atoms: S_1  and  C_5
REMARK    3  A    between atoms: N_10  and  C_13
REMARK    4  A    between atoms: C_14  and  C_17
REMARK    5  A    between atoms: C_16  and  C_20
REMARK    6  A    between atoms: C_20  and  O_24
REMARK    7  A    between atoms: O_24  and  C_27
REMARK    8  A    between atoms: C_25  and  C_28
REMARK    9  A    between atoms: C_25  and  C_29
REMARK   10  A    between atoms: C_27  and  C_30
REMARK                            x       y       z     vdW  Elec       q    Type
REMARK                         _______ _______ _______ _____ _____    ______ ____
ROOT
ATOM      1  N   UNL     1     -11.620  56.698  49.137  0.00  0.00    +0.000 N 
ATOM      2  C   UNL     1     -10.609  55.826  49.530  0.00  0.00    +0.000 C 
ATOM      3  O   UNL     1     -10.846  54.693  49.909  0.00  0.00    +0.000 OA
ATOM      4  N   UNL     1      -9.354  56.412  49.554  0.00  0.00    +0.000 N 
ATOM      5  H   UNL     1     -11.362  57.602  48.846  0.00  0.00    +0.000 HD
ATOM      6  H   UNL     1      -9.223  57.344  49.265  0.00  0.00    +0.000 HD
ENDROOT
BRANCH   4   7
ATOM      7  C   UNL     1      -8.292  55.644  49.997  0.00  0.00    +0.000 A 
ATOM      8  S   UNL     1      -7.867  55.865  51.628  0.00  0.00    +0.000 S 
ATOM      9  C   UNL     1      -7.534  54.679  49.357  0.00  0.00    +0.000 A 
ATOM     10  C   UNL     1      -6.850  54.494  51.594  0.00  0.00    +0.000 A 
ATOM     11  C   UNL     1      -6.754  53.943  50.327  0.00  0.00    +0.000 A 
ATOM     12  C   UNL     1      -6.152  53.967  52.825  0.00  0.00    +0.000 C 
ATOM     13  C   UNL     1      -5.870  52.762  50.044  0.00  0.00    +0.000 C 
ATOM     14  C   UNL     1      -4.962  53.037  52.440  0.00  0.00    +0.000 C 
ATOM     15  C   UNL     1      -5.410  52.059  51.324  0.00  0.00    +0.000 C 
ATOM     16  C   UNL     1      -4.519  52.196  53.652  0.00  0.00    +0.000 C 
ATOM     17  C   UNL     1      -3.755  53.880  51.980  0.00  0.00    +0.000 C 
BRANCH   9  18
ATOM     18  C   UNL     1      -7.571  54.477  47.907  0.00  0.00    +0.000 C 
ATOM     19  O   UNL     1      -6.598  54.649  47.182  0.00  0.00    +0.000 OA
BRANCH  18  20
ATOM     20  O   UNL     1      -8.796  54.076  47.472  0.00  0.00    +0.000 OA
BRANCH  20  21
ATOM     21  C   UNL     1      -9.266  54.634  46.241  0.00  0.00    +0.000 C 
ATOM     22  C   UNL     1     -10.775  54.508  46.174  0.00  0.00    +0.000 C 
ENDBRANCH  20  21
ENDBRANCH  18  20
ENDBRANCH   9  18
ENDBRANCH   4   7
BRANCH   1  23
ATOM     23  S   UNL     1     -13.242  56.308  49.129  0.00  0.00    +0.000 S 
ATOM     24  O   UNL     1     -13.437  54.907  49.425  0.00  0.00    +0.000 OA
ATOM     25  O   UNL     1     -13.755  56.881  47.897  0.00  0.00    +0.000 OA
BRANCH  23  26
ATOM     26  C   UNL     1     -13.897  57.275  50.473  0.00  0.00    +0.000 A 
ATOM     27  C   UNL     1     -14.416  58.556  50.229  0.00  0.00    +0.000 A 
ATOM     28  C   UNL     1     -13.963  56.729  51.753  0.00  0.00    +0.000 A 
ATOM     29  C   UNL     1     -14.956  59.298  51.282  0.00  0.00    +0.000 A 
ATOM     30  C   UNL     1     -14.500  57.477  52.807  0.00  0.00    +0.000 A 
ATOM     31  C   UNL     1     -14.995  58.770  52.581  0.00  0.00    +0.000 A 
ATOM     32  C   UNL     1     -15.553  59.565  53.725  0.00  0.00    +0.000 C 
ENDBRANCH  23  26
ENDBRANCH   1  23
TORSDOF 6
ENDMDL
MODEL 5
REMARK VINA RESULT:      -6.7      3.426      7.652
REMARK  Name = 
REMARK  10 active torsions:
REMARK  status: ('A' for Active; 'I' for Inactive)
REMARK    1  A    between atoms: S_1  and  N_4
REMARK    2  A    between atoms: S_1  and  C_5
REMARK    3  A    between atoms: N_10  and  C_13
REMARK    4  A    between atoms: C_14  and  C_17
REMARK    5  A    between atoms: C_16  and  C_20
REMARK    6  A    between atoms: C_20  and  O_24
REMARK    7  A    between atoms: O_24  and  C_27
REMARK    8  A    between atoms: C_25  and  C_28
REMARK    9  A    between atoms: C_25  and  C_29
REMARK   10  A    between atoms: C_27  and  C_30
REMARK                            x       y       z     vdW  Elec       q    Type
REMARK                         _______ _______ _______ _____ _____    ______ ____
ROOT
ATOM      1  N   UNL     1     -14.566  55.128  51.145  0.00  0.00    +0.000 N 
ATOM      2  C   UNL     1     -13.251  55.201  51.594  0.00  0.00    +0.000 C 
ATOM      3  O   UNL     1     -12.829  56.172  52.198  0.00  0.00    +0.000 OA
ATOM      4  N   UNL     1     -12.469  54.134  51.185  0.00  0.00    +0.000 N 
ATOM      5  H   UNL     1     -14.843  54.318  50.659  0.00  0.00    +0.000 HD
ATOM      6  H   UNL     1     -12.855  53.388  50.670  0.00  0.00    +0.000 HD
ENDROOT
BRANCH   4   7
ATOM      7  C   UNL     1     -11.127  54.150  51.524  0.00  0.00    +0.000 A 
ATOM      8  S   UNL     1     -10.740  53.390  52.994  0.00  0.00    +0.000 S 
ATOM      9  C   UNL     1     -10.022  54.637  50.849  0.00  0.00    +0.000 A 
ATOM     10  C   UNL     1      -9.071  53.450  52.637  0.00  0.00    +0.000 A 
ATOM     11  C   UNL     1      -8.811  54.139  51.463  0.00  0.00    +0.000 A 
ATOM     12  C   UNL     1      -8.026  52.813  53.520  0.00  0.00    +0.000 C 
ATOM     13  C   UNL     1      -7.409  54.368  50.977  0.00  0.00    +0.000 C 
ATOM     14  C   UNL     1      -6.612  53.401  53.230  0.00  0.00    +0.000 C 
ATOM     15  C   UNL     1      -6.390  53.481  51.697  0.00  0.00    +0.000 C 
ATOM     16  C   UNL     1      -5.517  52.492  53.816  0.00  0.00    +0.000 C 
ATOM     17  C   UNL     1      -6.472  54.794  53.877  0.00  0.00    +0.000 C 
BRANCH   9  18
ATOM     18  C   UNL     1     -10.131  55.517  49.683  0.00  0.00    +0.000 C 
ATOM     19  O   UNL     1      -9.731  56.675  49.679  0.00  0.00    +0.000 OA
BRANCH  18  20
ATOM     20  O   UNL     1     -10.715  54.898  48.622  0.00  0.00    +0.000 OA
BRANCH  20  21
ATOM     21  C   UNL     1     -11.837  55.551  48.021  0.00  0.00    +0.000 C 
ATOM     22  C   UNL     1     -11.736  55.444  46.513  0.00  0.00    +0.000 C 
ENDBRANCH  20  21
ENDBRANCH  18  20
ENDBRANCH   9  18
ENDBRANCH   4   7
BRANCH   1  23
ATOM     23  S   UNL     1     -15.704  56.325  51.380  0.00  0.00    +0.000 S 
ATOM     24  O   UNL     1     -15.975  56.510  52.788  0.00  0.00    +0.000 OA
ATOM     25  O   UNL     1     -16.778  56.003  50.457  0.00  0.00    +0.000 OA
BRANCH  23  26
ATOM     26  C   UNL     1     -14.892  57.782  50.756  0.00  0.00    +0.000 A 
ATOM     27  C   UNL     1     -14.711  58.896  51.589  0.00  0.00    +0.000 A 
ATOM     28  C   UNL     1     -14.371  57.786  49.464  0.00  0.00    +0.000 A 
ATOM     29  C   UNL     1     -14.047  60.026  51.102  0.00  0.00    +0.000 A 
ATOM     30  C   UNL     1     -13.711  58.921  48.977  0.00  0.00    +0.000 A 
ATOM     31  C   UNL     1     -13.549  60.051  49.791  0.00  0.00    +0.000 A 
ATOM     32  C   UNL     1     -12.853  61.266  49.250  0.00  0.00    +0.000 C 
ENDBRANCH  23  26
ENDBRANCH   1  23
TORSDOF 6
ENDMDL
MODEL 6
REMARK VINA RESULT:      -6.7      3.226      8.800
REMARK  Name = 
REMARK  10 active torsions:
REMARK  status: ('A' for Active; 'I' for Inactive)
REMARK    1  A    between atoms: S_1  and  N_4
REMARK    2  A    between atoms: S_1  and  C_5
REMARK    3  A    between atoms: N_10  and  C_13
REMARK    4  A    between atoms: C_14  and  C_17
REMARK    5  A    between atoms: C_16  and  C_20
REMARK    6  A    between atoms: C_20  and  O_24
REMARK    7  A    between atoms: O_24  and  C_27
REMARK    8  A    between atoms: C_25  and  C_28
REMARK    9  A    between atoms: C_25  and  C_29
REMARK   10  A    between atoms: C_27  and  C_30
REMARK                            x       y       z     vdW  Elec       q    Type
REMARK                         _______ _______ _______ _____ _____    ______ ____
ROOT
ATOM      1  N   UNL     1     -11.602  56.699  49.286  0.00  0.00    +0.000 N 
ATOM      2  C   UNL     1     -10.670  55.693  49.053  0.00  0.00    +0.000 C 
ATOM      3  O   UNL     1     -11.003  54.578  48.690  0.00  0.00    +0.000 OA
ATOM      4  N   UNL     1      -9.375  56.052  49.386  0.00  0.00    +0.000 N 
ATOM      5  H   UNL     1     -11.268  57.577  49.583  0.00  0.00    +0.000 HD
ATOM      6  H   UNL     1      -9.165  56.960  49.706  0.00  0.00    +0.000 HD
ENDROOT
BRANCH   4   7
ATOM      7  C   UNL     1      -8.385  55.094  49.255  0.00  0.00    +0.000 A 
ATOM      8  S   UNL     1      -7.808  54.857  47.674  0.00  0.00    +0.000 S 
ATOM      9  C   UNL     1      -7.736  54.318  50.200  0.00  0.00    +0.000 A 
ATOM     10  C   UNL     1      -6.501  53.918  48.244  0.00  0.00    +0.000 A 
ATOM     11  C   UNL     1      -6.568  53.701  49.611  0.00  0.00    +0.000 A 
ATOM     12  C   UNL     1      -5.411  53.403  47.335  0.00  0.00    +0.000 C 
ATOM     13  C   UNL     1      -5.554  52.855  50.326  0.00  0.00    +0.000 C 
ATOM     14  C   UNL     1      -4.634  52.227  48.001  0.00  0.00    +0.000 C 
ATOM     15  C   UNL     1      -4.310  52.590  49.474  0.00  0.00    +0.000 C 
ATOM     16  C   UNL     1      -3.300  51.980  47.274  0.00  0.00    +0.000 C 
ATOM     17  C   UNL     1      -5.465  50.931  47.926  0.00  0.00    +0.000 C 
BRANCH   9  18
ATOM     18  C   UNL     1      -8.209  54.190  51.580  0.00  0.00    +0.000 C 
ATOM     19  O   UNL     1      -7.590  54.628  52.543  0.00  0.00    +0.000 OA
BRANCH  18  20
ATOM     20  O   UNL     1      -9.403  53.544  51.659  0.00  0.00    +0.000 OA
BRANCH  20  21
ATOM     21  C   UNL     1     -10.224  53.827  52.795  0.00  0.00    +0.000 C 
ATOM     22  C   UNL     1     -10.996  55.108  52.553  0.00  0.00    +0.000 C 
ENDBRANCH  20  21
ENDBRANCH  18  20
ENDBRANCH   9  18
ENDBRANCH   4   7
BRANCH   1  23
ATOM     23  S   UNL     1     -13.248  56.514  49.092  0.00  0.00    +0.000 S 
ATOM     24  O   UNL     1     -13.632  55.128  49.236  0.00  0.00    +0.000 OA
ATOM     25  O   UNL     1     -13.564  57.246  47.878  0.00  0.00    +0.000 OA
BRANCH  23  26
ATOM     26  C   UNL     1     -13.922  57.441  50.456  0.00  0.00    +0.000 A 
ATOM     27  C   UNL     1     -14.413  58.739  50.249  0.00  0.00    +0.000 A 
ATOM     28  C   UNL     1     -14.029  56.848  51.712  0.00  0.00    +0.000 A 
ATOM     29  C   UNL     1     -14.968  59.449  51.316  0.00  0.00    +0.000 A 
ATOM     30  C   UNL     1     -14.581  57.564  52.781  0.00  0.00    +0.000 A 
ATOM     31  C   UNL     1     -15.049  58.873  52.593  0.00  0.00    +0.000 A 
ATOM     32  C   UNL     1     -15.623  59.633  53.752  0.00  0.00    +0.000 C 
ENDBRANCH  23  26
ENDBRANCH   1  23
TORSDOF 6
ENDMDL
MODEL 7
REMARK VINA RESULT:      -6.5      3.228      7.950
REMARK  Name = 
REMARK  10 active torsions:
REMARK  status: ('A' for Active; 'I' for Inactive)
REMARK    1  A    between atoms: S_1  and  N_4
REMARK    2  A    between atoms: S_1  and  C_5
REMARK    3  A    between atoms: N_10  and  C_13
REMARK    4  A    between atoms: C_14  and  C_17
REMARK    5  A    between atoms: C_16  and  C_20
REMARK    6  A    between atoms: C_20  and  O_24
REMARK    7  A    between atoms: O_24  and  C_27
REMARK    8  A    between atoms: C_25  and  C_28
REMARK    9  A    between atoms: C_25  and  C_29
REMARK   10  A    between atoms: C_27  and  C_30
REMARK                            x       y       z     vdW  Elec       q    Type
REMARK                         _______ _______ _______ _____ _____    ______ ____
ROOT
ATOM      1  N   UNL     1     -12.860  55.434  49.365  0.00  0.00    +0.000 N 
ATOM      2  C   UNL     1     -11.766  55.284  50.212  0.00  0.00    +0.000 C 
ATOM      3  O   UNL     1     -11.226  56.239  50.741  0.00  0.00    +0.000 OA
ATOM      4  N   UNL     1     -11.302  53.982  50.287  0.00  0.00    +0.000 N 
ATOM      5  H   UNL     1     -13.248  54.622  48.965  0.00  0.00    +0.000 HD
ATOM      6  H   UNL     1     -11.759  53.250  49.812  0.00  0.00    +0.000 HD
ENDROOT
BRANCH   4   7
ATOM      7  C   UNL     1     -10.173  53.742  51.052  0.00  0.00    +0.000 A 
ATOM      8  S   UNL     1     -10.470  53.250  52.651  0.00  0.00    +0.000 S 
ATOM      9  C   UNL     1      -8.828  53.785  50.730  0.00  0.00    +0.000 A 
ATOM     10  C   UNL     1      -8.832  52.821  52.870  0.00  0.00    +0.000 A 
ATOM     11  C   UNL     1      -8.052  53.152  51.773  0.00  0.00    +0.000 A 
ATOM     12  C   UNL     1      -8.325  52.156  54.126  0.00  0.00    +0.000 C 
ATOM     13  C   UNL     1      -6.568  52.920  51.761  0.00  0.00    +0.000 C 
ATOM     14  C   UNL     1      -6.778  52.302  54.254  0.00  0.00    +0.000 C 
ATOM     15  C   UNL     1      -6.115  51.989  52.888  0.00  0.00    +0.000 C 
ATOM     16  C   UNL     1      -6.224  51.303  55.286  0.00  0.00    +0.000 C 
ATOM     17  C   UNL     1      -6.416  53.724  54.727  0.00  0.00    +0.000 C 
BRANCH   9  18
ATOM     18  C   UNL     1      -8.329  54.389  49.492  0.00  0.00    +0.000 C 
ATOM     19  O   UNL     1      -7.540  55.326  49.475  0.00  0.00    +0.000 OA
BRANCH  18  20
ATOM     20  O   UNL     1      -8.836  53.787  48.383  0.00  0.00    +0.000 OA
BRANCH  20  21
ATOM     21  C   UNL     1      -8.741  54.505  47.149  0.00  0.00    +0.000 C 
ATOM     22  C   UNL     1     -10.031  55.263  46.907  0.00  0.00    +0.000 C 
ENDBRANCH  20  21
ENDBRANCH  18  20
ENDBRANCH   9  18
ENDBRANCH   4   7
BRANCH   1  23
ATOM     23  S   UNL     1     -13.557  56.901  48.986  0.00  0.00    +0.000 S 
ATOM     24  O   UNL     1     -14.636  56.731  48.038  0.00  0.00    +0.000 OA
ATOM     25  O   UNL     1     -12.439  57.776  48.682  0.00  0.00    +0.000 OA
BRANCH  23  26
ATOM     26  C   UNL     1     -14.240  57.438  50.541  0.00  0.00    +0.000 A 
ATOM     27  C   UNL     1     -14.907  56.523  51.369  0.00  0.00    +0.000 A 
ATOM     28  C   UNL     1     -14.045  58.750  50.967  0.00  0.00    +0.000 A 
ATOM     29  C   UNL     1     -15.414  56.944  52.601  0.00  0.00    +0.000 A 
ATOM     30  C   UNL     1     -14.558  59.170  52.200  0.00  0.00    +0.000 A 
ATOM     31  C   UNL     1     -15.252  58.272  53.024  0.00  0.00    +0.000 A 
ATOM     32  C   UNL     1     -15.811  58.741  54.335  0.00  0.00    +0.000 C 
ENDBRANCH  23  26
ENDBRANCH   1  23
TORSDOF 6
ENDMDL
MODEL 8
REMARK VINA RESULT:      -6.5      3.571      8.934
REMARK  Name = 
REMARK  10 active torsions:
REMARK  status: ('A' for Active; 'I' for Inactive)
REMARK    1  A    between atoms: S_1  and  N_4
REMARK    2  A    between atoms: S_1  and  C_5
REMARK    3  A    between atoms: N_10  and  C_13
REMARK    4  A    between atoms: C_14  and  C_17
REMARK    5  A    between atoms: C_16  and  C_20
REMARK    6  A    between atoms: C_20  and  O_24
REMARK    7  A    between atoms: O_24  and  C_27
REMARK    8  A    between atoms: C_25  and  C_28
REMARK    9  A    between atoms: C_25  and  C_29
REMARK   10  A    between atoms: C_27  and  C_30
REMARK                            x       y       z     vdW  Elec       q    Type
REMARK                         _______ _______ _______ _____ _____    ______ ____
ROOT
ATOM      1  N   UNL     1     -12.070  55.758  50.668  0.00  0.00    +0.000 N 
ATOM      2  C   UNL     1     -10.754  55.502  50.295  0.00  0.00    +0.000 C 
ATOM      3  O   UNL     1     -10.277  55.950  49.267  0.00  0.00    +0.000 OA
ATOM      4  N   UNL     1     -10.106  54.612  51.135  0.00  0.00    +0.000 N 
ATOM      5  H   UNL     1     -12.396  55.363  51.508  0.00  0.00    +0.000 HD
ATOM      6  H   UNL     1     -10.551  54.255  51.938  0.00  0.00    +0.000 HD
ENDROOT
BRANCH   4   7
ATOM      7  C   UNL     1      -8.813  54.241  50.809  0.00  0.00    +0.000 A 
ATOM      8  S   UNL     1      -8.665  52.744  50.019  0.00  0.00    +0.000 S 
ATOM      9  C   UNL     1      -7.607  54.901  50.968  0.00  0.00    +0.000 A 
ATOM     10  C   UNL     1      -7.034  53.061  49.629  0.00  0.00    +0.000 A 
ATOM     11  C   UNL     1      -6.581  54.245  50.189  0.00  0.00    +0.000 A 
ATOM     12  C   UNL     1      -6.208  52.137  48.766  0.00  0.00    +0.000 C 
ATOM     13  C   UNL     1      -5.160  54.702  50.027  0.00  0.00    +0.000 C 
ATOM     14  C   UNL     1      -4.684  52.407  48.953  0.00  0.00    +0.000 C 
ATOM     15  C   UNL     1      -4.423  53.936  48.926  0.00  0.00    +0.000 C 
ATOM     16  C   UNL     1      -3.878  51.772  47.806  0.00  0.00    +0.000 C 
ATOM     17  C   UNL     1      -4.194  51.791  50.279  0.00  0.00    +0.000 C 
BRANCH   9  18
ATOM     18  C   UNL     1      -7.461  56.091  51.810  0.00  0.00    +0.000 C 
ATOM     19  O   UNL     1      -7.396  57.227  51.357  0.00  0.00    +0.000 OA
BRANCH  18  20
ATOM     20  O   UNL     1      -7.414  55.784  53.134  0.00  0.00    +0.000 OA
BRANCH  20  21
ATOM     21  C   UNL     1      -6.142  55.409  53.673  0.00  0.00    +0.000 C 
ATOM     22  C   UNL     1      -6.339  54.358  54.746  0.00  0.00    +0.000 C 
ENDBRANCH  20  21
ENDBRANCH  18  20
ENDBRANCH   9  18
ENDBRANCH   4   7
BRANCH   1  23
ATOM     23  S   UNL     1     -13.129  56.693  49.781  0.00  0.00    +0.000 S 
ATOM     24  O   UNL     1     -14.066  55.865  49.056  0.00  0.00    +0.000 OA
ATOM     25  O   UNL     1     -12.286  57.644  49.079  0.00  0.00    +0.000 OA
BRANCH  23  26
ATOM     26  C   UNL     1     -14.014  57.599  51.034  0.00  0.00    +0.000 A 
ATOM     27  C   UNL     1     -14.053  57.120  52.352  0.00  0.00    +0.000 A 
ATOM     28  C   UNL     1     -14.605  58.821  50.719  0.00  0.00    +0.000 A 
ATOM     29  C   UNL     1     -14.724  57.850  53.337  0.00  0.00    +0.000 A 
ATOM     30  C   UNL     1     -15.281  59.548  51.707  0.00  0.00    +0.000 A 
ATOM     31  C   UNL     1     -15.351  59.065  53.022  0.00  0.00    +0.000 A 
ATOM     32  C   UNL     1     -16.092  59.847  54.065  0.00  0.00    +0.000 C 
ENDBRANCH  23  26
ENDBRANCH   1  23
TORSDOF 6
ENDMDL
MODEL 9
REMARK VINA RESULT:      -6.5      3.501      8.056
REMARK  Name = 
REMARK  10 active torsions:
REMARK  status: ('A' for Active; 'I' for Inactive)
REMARK    1  A    between atoms: S_1  and  N_4
REMARK    2  A    between atoms: S_1  and  C_5
REMARK    3  A    between atoms: N_10  and  C_13
REMARK    4  A    between atoms: C_14  and  C_17
REMARK    5  A    between atoms: C_16  and  C_20
REMARK    6  A    between atoms: C_20  and  O_24
REMARK    7  A    between atoms: O_24  and  C_27
REMARK    8  A    between atoms: C_25  and  C_28
REMARK    9  A    between atoms: C_25  and  C_29
REMARK   10  A    between atoms: C_27  and  C_30
REMARK                            x       y       z     vdW  Elec       q    Type
REMARK                         _______ _______ _______ _____ _____    ______ ____
ROOT
ATOM      1  N   UNL     1     -11.503  56.680  49.269  0.00  0.00    +0.000 N 
ATOM      2  C   UNL     1     -10.739  55.701  49.897  0.00  0.00    +0.000 C 
ATOM      3  O   UNL     1     -11.225  54.650  50.277  0.00  0.00    +0.000 OA
ATOM      4  N   UNL     1      -9.433  56.092  50.140  0.00  0.00    +0.000 N 
ATOM      5  H   UNL     1     -11.052  57.509  48.991  0.00  0.00    +0.000 HD
ATOM      6  H   UNL     1      -9.100  56.968  49.838  0.00  0.00    +0.000 HD
ENDROOT
BRANCH   4   7
ATOM      7  C   UNL     1      -8.612  55.211  50.823  0.00  0.00    +0.000 A 
ATOM      8  S   UNL     1      -8.624  55.370  52.515  0.00  0.00    +0.000 S 
ATOM      9  C   UNL     1      -7.810  54.178  50.373  0.00  0.00    +0.000 A 
ATOM     10  C   UNL     1      -7.778  53.900  52.703  0.00  0.00    +0.000 A 
ATOM     11  C   UNL     1      -7.398  53.353  51.487  0.00  0.00    +0.000 A 
ATOM     12  C   UNL     1      -7.495  53.290  54.055  0.00  0.00    +0.000 C 
ATOM     13  C   UNL     1      -6.593  52.088  51.408  0.00  0.00    +0.000 C 
ATOM     14  C   UNL     1      -6.344  52.242  53.968  0.00  0.00    +0.000 C 
ATOM     15  C   UNL     1      -6.569  51.328  52.736  0.00  0.00    +0.000 C 
ATOM     16  C   UNL     1      -6.332  51.348  55.221  0.00  0.00    +0.000 C 
ATOM     17  C   UNL     1      -4.980  52.957  53.880  0.00  0.00    +0.000 C 
BRANCH   9  18
ATOM     18  C   UNL     1      -7.473  53.995  48.959  0.00  0.00    +0.000 C 
ATOM     19  O   UNL     1      -7.880  53.053  48.290  0.00  0.00    +0.000 OA
BRANCH  18  20
ATOM     20  O   UNL     1      -6.671  54.987  48.487  0.00  0.00    +0.000 OA
BRANCH  20  21
ATOM     21  C   UNL     1      -5.397  55.152  49.117  0.00  0.00    +0.000 C 
ATOM     22  C   UNL     1      -4.486  54.007  48.720  0.00  0.00    +0.000 C 
ENDBRANCH  20  21
ENDBRANCH  18  20
ENDBRANCH   9  18
ENDBRANCH   4   7
BRANCH   1  23
ATOM     23  S   UNL     1     -13.136  56.538  48.959  0.00  0.00    +0.000 S 
ATOM     24  O   UNL     1     -13.544  55.151  48.966  0.00  0.00    +0.000 OA
ATOM     25  O   UNL     1     -13.365  57.369  47.790  0.00  0.00    +0.000 OA
BRANCH  23  26
ATOM     26  C   UNL     1     -13.885  57.364  50.348  0.00  0.00    +0.000 A 
ATOM     27  C   UNL     1     -13.920  56.737  51.602  0.00  0.00    +0.000 A 
ATOM     28  C   UNL     1     -14.369  58.662  50.204  0.00  0.00    +0.000 A 
ATOM     29  C   UNL     1     -14.483  57.402  52.695  0.00  0.00    +0.000 A 
ATOM     30  C   UNL     1     -14.937  59.324  51.299  0.00  0.00    +0.000 A 
ATOM     31  C   UNL     1     -15.004  58.697  52.552  0.00  0.00    +0.000 A 
ATOM     32  C   UNL     1     -15.629  59.413  53.712  0.00  0.00    +0.000 C 
ENDBRANCH  23  26
ENDBRANCH   1  23
TORSDOF 6
ENDMDL
