MODEL 1
REMARK VINA RESULT:      -7.9      0.000      0.000
REMARK  Name = 
REMARK  9 active torsions:
REMARK  status: ('A' for Active; 'I' for Inactive)
REMARK    1  A    between atoms: S_1  and  N_4
REMARK    2  A    between atoms: S_1  and  C_5
REMARK    3  A    between atoms: N_10  and  C_13
REMARK    4  A    between atoms: C_16  and  C_19
REMARK    5  A    between atoms: C_19  and  O_23
REMARK    6  A    between atoms: O_23  and  C_26
REMARK    7  A    between atoms: C_24  and  C_27
REMARK    8  A    between atoms: C_24  and  C_28
REMARK    9  A    between atoms: C_26  and  C_29
REMARK                            x       y       z     vdW  Elec       q    Type
REMARK                         _______ _______ _______ _____ _____    ______ ____
ROOT
ATOM      1  C   UNL     1     -10.960  54.425  51.495  0.00  0.00    +0.000 A 
ATOM      2  S   UNL     1     -10.536  53.847  53.038  0.00  0.00    +0.000 S 
ATOM      3  C   UNL     1      -9.878  54.913  50.783  0.00  0.00    +0.000 A 
ATOM      4  C   UNL     1      -8.868  53.987  52.686  0.00  0.00    +0.000 A 
ATOM      5  C   UNL     1      -8.647  54.552  51.442  0.00  0.00    +0.000 A 
ATOM      6  C   UNL     1      -7.785  53.551  53.643  0.00  0.00    +0.000 C 
ATOM      7  C   UNL     1      -7.266  54.841  50.930  0.00  0.00    +0.000 C 
ATOM      8  C   UNL     1      -6.414  54.206  53.278  0.00  0.00    +0.000 C 
ATOM      9  C   UNL     1      -6.190  54.118  51.745  0.00  0.00    +0.000 C 
ATOM     10  C   UNL     1      -5.253  53.463  53.966  0.00  0.00    +0.000 C 
ATOM     11  C   UNL     1      -6.381  55.672  53.758  0.00  0.00    +0.000 C 
ENDROOT
BRANCH   1  15
ATOM     12  N   UNL     1     -14.462  55.186  51.151  0.00  0.00    +0.000 N 
ATOM     13  C   UNL     1     -13.134  55.351  51.530  0.00  0.00    +0.000 C 
ATOM     14  O   UNL     1     -12.763  56.373  52.098  0.00  0.00    +0.000 OA
ATOM     15  N   UNL     1     -12.297  54.320  51.157  0.00  0.00    +0.000 N 
ATOM     16  H   UNL     1     -14.750  54.318  50.788  0.00  0.00    +0.000 HD
ATOM     17  H   UNL     1     -12.639  53.538  50.666  0.00  0.00    +0.000 HD
BRANCH  12  18
ATOM     18  S   UNL     1     -15.588  56.422  51.292  0.00  0.00    +0.000 S 
ATOM     19  O   UNL     1     -15.747  56.723  52.694  0.00  0.00    +0.000 OA
ATOM     20  O   UNL     1     -16.729  55.988  50.514  0.00  0.00    +0.000 OA
BRANCH  18  21
ATOM     21  C   UNL     1     -14.849  57.826  50.458  0.00  0.00    +0.000 A 
ATOM     22  N   UNL     1     -14.356  57.561  49.215  0.00  0.00    +0.000 NA
ATOM     23  C   UNL     1     -14.826  59.076  51.070  0.00  0.00    +0.000 A 
ATOM     24  C   UNL     1     -13.844  58.622  48.550  0.00  0.00    +0.000 A 
ATOM     25  C   UNL     1     -14.269  60.133  50.353  0.00  0.00    +0.000 A 
ATOM     26  C   UNL     1     -13.777  59.908  49.071  0.00  0.00    +0.000 A 
ENDBRANCH  18  21
ENDBRANCH  12  18
ENDBRANCH   1  15
BRANCH   3  27
ATOM     27  C   UNL     1      -9.976  55.742  49.580  0.00  0.00    +0.000 C 
ATOM     28  O   UNL     1      -9.743  56.944  49.562  0.00  0.00    +0.000 OA
BRANCH  27  29
ATOM     29  O   UNL     1     -10.551  55.052  48.551  0.00  0.00    +0.000 OA
BRANCH  29  30
ATOM     30  C   UNL     1     -11.642  55.688  47.875  0.00  0.00    +0.000 C 
ATOM     31  C   UNL     1     -11.659  55.259  46.426  0.00  0.00    +0.000 C 
ENDBRANCH  29  30
ENDBRANCH  27  29
ENDBRANCH   3  27
TORSDOF 6
ENDMDL
MODEL 2
REMARK VINA RESULT:      -7.5      2.790      7.639
REMARK  Name = 
REMARK  9 active torsions:
REMARK  status: ('A' for Active; 'I' for Inactive)
REMARK    1  A    between atoms: S_1  and  N_4
REMARK    2  A    between atoms: S_1  and  C_5
REMARK    3  A    between atoms: N_10  and  C_13
REMARK    4  A    between atoms: C_16  and  C_19
REMARK    5  A    between atoms: C_19  and  O_23
REMARK    6  A    between atoms: O_23  and  C_26
REMARK    7  A    between atoms: C_24  and  C_27
REMARK    8  A    between atoms: C_24  and  C_28
REMARK    9  A    between atoms: C_26  and  C_29
REMARK                            x       y       z     vdW  Elec       q    Type
REMARK                         _______ _______ _______ _____ _____    ______ ____
ROOT
ATOM      1  C   UNL     1     -11.018  54.816  50.158  0.00  0.00    +0.000 A 
ATOM      2  S   UNL     1     -11.677  54.812  51.726  0.00  0.00    +0.000 S 
ATOM      3  C   UNL     1     -11.650  55.706  49.307  0.00  0.00    +0.000 A 
ATOM      4  C   UNL     1     -12.637  56.184  51.379  0.00  0.00    +0.000 A 
ATOM      5  C   UNL     1     -12.520  56.578  50.058  0.00  0.00    +0.000 A 
ATOM      6  C   UNL     1     -13.513  56.858  52.408  0.00  0.00    +0.000 C 
ATOM      7  C   UNL     1     -13.314  57.719  49.491  0.00  0.00    +0.000 C 
ATOM      8  C   UNL     1     -14.595  57.755  51.726  0.00  0.00    +0.000 C 
ATOM      9  C   UNL     1     -13.941  58.582  50.589  0.00  0.00    +0.000 C 
ATOM     10  C   UNL     1     -15.202  58.745  52.739  0.00  0.00    +0.000 C 
ATOM     11  C   UNL     1     -15.744  56.879  51.183  0.00  0.00    +0.000 C 
ENDROOT
BRANCH   1  15
ATOM     12  N   UNL     1      -7.660  53.529  49.979  0.00  0.00    +0.000 N 
ATOM     13  C   UNL     1      -8.685  54.442  50.203  0.00  0.00    +0.000 C 
ATOM     14  O   UNL     1      -8.447  55.560  50.648  0.00  0.00    +0.000 OA
ATOM     15  N   UNL     1      -9.952  53.960  49.947  0.00  0.00    +0.000 N 
ATOM     16  H   UNL     1      -7.870  52.678  49.529  0.00  0.00    +0.000 HD
ATOM     17  H   UNL     1     -10.092  53.039  49.628  0.00  0.00    +0.000 HD
BRANCH  12  18
ATOM     18  S   UNL     1      -6.079  53.830  50.454  0.00  0.00    +0.000 S 
ATOM     19  O   UNL     1      -5.716  55.145  49.985  0.00  0.00    +0.000 OA
ATOM     20  O   UNL     1      -5.325  52.675  50.017  0.00  0.00    +0.000 OA
BRANCH  18  21
ATOM     21  C   UNL     1      -6.120  53.822  52.246  0.00  0.00    +0.000 A 
ATOM     22  N   UNL     1      -5.599  54.935  52.836  0.00  0.00    +0.000 NA
ATOM     23  C   UNL     1      -6.673  52.746  52.933  0.00  0.00    +0.000 A 
ATOM     24  C   UNL     1      -5.671  54.970  54.187  0.00  0.00    +0.000 A 
ATOM     25  C   UNL     1      -6.706  52.819  54.324  0.00  0.00    +0.000 A 
ATOM     26  C   UNL     1      -6.206  53.949  54.964  0.00  0.00    +0.000 A 
ENDBRANCH  18  21
ENDBRANCH  12  18
ENDBRANCH   1  15
BRANCH   3  27
ATOM     27  C   UNL     1     -11.513  55.709  47.849  0.00  0.00    +0.000 C 
ATOM     28  O   UNL     1     -12.446  55.519  47.079  0.00  0.00    +0.000 OA
BRANCH  27  29
ATOM     29  O   UNL     1     -10.199  55.739  47.477  0.00  0.00    +0.000 OA
BRANCH  29  30
ATOM     30  C   UNL     1      -9.794  54.824  46.452  0.00  0.00    +0.000 C 
ATOM     31  C   UNL     1      -8.303  54.933  46.236  0.00  0.00    +0.000 C 
ENDBRANCH  29  30
ENDBRANCH  27  29
ENDBRANCH   3  27
TORSDOF 6
ENDMDL
MODEL 3
REMARK VINA RESULT:      -7.1      2.330      3.073
REMARK  Name = 
REMARK  9 active torsions:
REMARK  status: ('A' for Active; 'I' for Inactive)
REMARK    1  A    between atoms: S_1  and  N_4
REMARK    2  A    between atoms: S_1  and  C_5
REMARK    3  A    between atoms: N_10  and  C_13
REMARK    4  A    between atoms: C_16  and  C_19
REMARK    5  A    between atoms: C_19  and  O_23
REMARK    6  A    between atoms: O_23  and  C_26
REMARK    7  A    between atoms: C_24  and  C_27
REMARK    8  A    between atoms: C_24  and  C_28
REMARK    9  A    between atoms: C_26  and  C_29
REMARK                            x       y       z     vdW  Elec       q    Type
REMARK                         _______ _______ _______ _____ _____    ______ ____
ROOT
ATOM      1  C   UNL     1      -9.996  54.948  50.784  0.00  0.00    +0.000 A 
ATOM      2  S   UNL     1     -10.034  54.944  52.484  0.00  0.00    +0.000 S 
ATOM      3  C   UNL     1      -9.471  53.782  50.251  0.00  0.00    +0.000 A 
ATOM      4  C   UNL     1      -9.603  53.290  52.540  0.00  0.00    +0.000 A 
ATOM      5  C   UNL     1      -9.348  52.778  51.280  0.00  0.00    +0.000 A 
ATOM      6  C   UNL     1      -9.507  52.506  53.827  0.00  0.00    +0.000 C 
ATOM      7  C   UNL     1      -8.887  51.365  51.068  0.00  0.00    +0.000 C 
ATOM      8  C   UNL     1      -8.668  51.203  53.631  0.00  0.00    +0.000 C 
ATOM      9  C   UNL     1      -9.098  50.502  52.315  0.00  0.00    +0.000 C 
ATOM     10  C   UNL     1      -8.910  50.217  54.790  0.00  0.00    +0.000 C 
ATOM     11  C   UNL     1      -7.161  51.540  53.611  0.00  0.00    +0.000 C 
ENDROOT
BRANCH   1  15
ATOM     12  N   UNL     1     -12.290  57.291  49.298  0.00  0.00    +0.000 N 
ATOM     13  C   UNL     1     -11.852  56.121  49.908  0.00  0.00    +0.000 C 
ATOM     14  O   UNL     1     -12.644  55.240  50.226  0.00  0.00    +0.000 OA
ATOM     15  N   UNL     1     -10.497  56.081  50.170  0.00  0.00    +0.000 N 
ATOM     16  H   UNL     1     -11.623  57.934  48.965  0.00  0.00    +0.000 HD
ATOM     17  H   UNL     1      -9.909  56.833  49.930  0.00  0.00    +0.000 HD
BRANCH  12  18
ATOM     18  S   UNL     1     -13.921  57.642  49.114  0.00  0.00    +0.000 S 
ATOM     19  O   UNL     1     -14.559  56.495  48.517  0.00  0.00    +0.000 OA
ATOM     20  O   UNL     1     -13.960  58.922  48.439  0.00  0.00    +0.000 OA
BRANCH  18  21
ATOM     21  C   UNL     1     -14.540  57.873  50.781  0.00  0.00    +0.000 A 
ATOM     22  N   UNL     1     -15.213  56.805  51.296  0.00  0.00    +0.000 NA
ATOM     23  C   UNL     1     -14.304  59.064  51.460  0.00  0.00    +0.000 A 
ATOM     24  C   UNL     1     -15.640  56.942  52.572  0.00  0.00    +0.000 A 
ATOM     25  C   UNL     1     -14.781  59.166  52.766  0.00  0.00    +0.000 A 
ATOM     26  C   UNL     1     -15.453  58.088  53.336  0.00  0.00    +0.000 A 
ENDBRANCH  18  21
ENDBRANCH  12  18
ENDBRANCH   1  15
BRANCH   3  27
ATOM     27  C   UNL     1      -9.033  53.622  48.863  0.00  0.00    +0.000 C 
ATOM     28  O   UNL     1      -7.858  53.594  48.521  0.00  0.00    +0.000 OA
BRANCH  27  29
ATOM     29  O   UNL     1     -10.087  53.718  47.999  0.00  0.00    +0.000 OA
BRANCH  29  30
ATOM     30  C   UNL     1      -9.963  54.662  46.929  0.00  0.00    +0.000 C 
ATOM     31  C   UNL     1     -11.337  55.120  46.495  0.00  0.00    +0.000 C 
ENDBRANCH  29  30
ENDBRANCH  27  29
ENDBRANCH   3  27
TORSDOF 6
ENDMDL
MODEL 4
REMARK VINA RESULT:      -7.1      2.560      3.939
REMARK  Name = 
REMARK  9 active torsions:
REMARK  status: ('A' for Active; 'I' for Inactive)
REMARK    1  A    between atoms: S_1  and  N_4
REMARK    2  A    between atoms: S_1  and  C_5
REMARK    3  A    between atoms: N_10  and  C_13
REMARK    4  A    between atoms: C_16  and  C_19
REMARK    5  A    between atoms: C_19  and  O_23
REMARK    6  A    between atoms: O_23  and  C_26
REMARK    7  A    between atoms: C_24  and  C_27
REMARK    8  A    between atoms: C_24  and  C_28
REMARK    9  A    between atoms: C_26  and  C_29
REMARK                            x       y       z     vdW  Elec       q    Type
REMARK                         _______ _______ _______ _____ _____    ______ ____
ROOT
ATOM      1  C   UNL     1     -11.515  53.486  49.948  0.00  0.00    +0.000 A 
ATOM      2  S   UNL     1     -11.026  54.111  48.443  0.00  0.00    +0.000 S 
ATOM      3  C   UNL     1     -10.552  52.687  50.541  0.00  0.00    +0.000 A 
ATOM      4  C   UNL     1      -9.427  53.552  48.675  0.00  0.00    +0.000 A 
ATOM      5  C   UNL     1      -9.297  52.822  49.843  0.00  0.00    +0.000 A 
ATOM      6  C   UNL     1      -8.309  53.824  47.697  0.00  0.00    +0.000 C 
ATOM      7  C   UNL     1      -8.005  52.168  50.238  0.00  0.00    +0.000 C 
ATOM      8  C   UNL     1      -7.119  52.835  47.912  0.00  0.00    +0.000 C 
ATOM      9  C   UNL     1      -6.821  52.705  49.429  0.00  0.00    +0.000 C 
ATOM     10  C   UNL     1      -5.843  53.358  47.224  0.00  0.00    +0.000 C 
ATOM     11  C   UNL     1      -7.453  51.461  47.293  0.00  0.00    +0.000 C 
ENDROOT
BRANCH   1  15
ATOM     12  N   UNL     1     -14.180  55.371  51.467  0.00  0.00    +0.000 N 
ATOM     13  C   UNL     1     -12.886  55.050  51.070  0.00  0.00    +0.000 C 
ATOM     14  O   UNL     1     -11.952  55.815  51.285  0.00  0.00    +0.000 OA
ATOM     15  N   UNL     1     -12.774  53.861  50.378  0.00  0.00    +0.000 N 
ATOM     16  H   UNL     1     -14.890  54.696  51.370  0.00  0.00    +0.000 HD
ATOM     17  H   UNL     1     -13.563  53.301  50.197  0.00  0.00    +0.000 HD
BRANCH  12  18
ATOM     18  S   UNL     1     -14.569  56.875  52.102  0.00  0.00    +0.000 S 
ATOM     19  O   UNL     1     -13.616  57.180  53.141  0.00  0.00    +0.000 OA
ATOM     20  O   UNL     1     -15.980  56.801  52.416  0.00  0.00    +0.000 OA
BRANCH  18  21
ATOM     21  C   UNL     1     -14.361  58.025  50.742  0.00  0.00    +0.000 A 
ATOM     22  N   UNL     1     -14.273  57.447  49.511  0.00  0.00    +0.000 NA
ATOM     23  C   UNL     1     -14.323  59.395  50.980  0.00  0.00    +0.000 A 
ATOM     24  C   UNL     1     -14.170  58.304  48.468  0.00  0.00    +0.000 A 
ATOM     25  C   UNL     1     -14.196  60.237  49.876  0.00  0.00    +0.000 A 
ATOM     26  C   UNL     1     -14.126  59.687  48.599  0.00  0.00    +0.000 A 
ENDBRANCH  18  21
ENDBRANCH  12  18
ENDBRANCH   1  15
BRANCH   3  27
ATOM     27  C   UNL     1     -10.796  51.781  51.665  0.00  0.00    +0.000 C 
ATOM     28  O   UNL     1     -10.931  50.569  51.543  0.00  0.00    +0.000 OA
BRANCH  27  29
ATOM     29  O   UNL     1     -11.057  52.475  52.812  0.00  0.00    +0.000 OA
BRANCH  29  30
ATOM     30  C   UNL     1      -9.930  52.838  53.620  0.00  0.00    +0.000 C 
ATOM     31  C   UNL     1      -9.709  54.331  53.539  0.00  0.00    +0.000 C 
ENDBRANCH  29  30
ENDBRANCH  27  29
ENDBRANCH   3  27
TORSDOF 6
ENDMDL
MODEL 5
REMARK VINA RESULT:      -6.9      4.144      7.564
REMARK  Name = 
REMARK  9 active torsions:
REMARK  status: ('A' for Active; 'I' for Inactive)
REMARK    1  A    between atoms: S_1  and  N_4
REMARK    2  A    between atoms: S_1  and  C_5
REMARK    3  A    between atoms: N_10  and  C_13
REMARK    4  A    between atoms: C_16  and  C_19
REMARK    5  A    between atoms: C_19  and  O_23
REMARK    6  A    between atoms: O_23  and  C_26
REMARK    7  A    between atoms: C_24  and  C_27
REMARK    8  A    between atoms: C_24  and  C_28
REMARK    9  A    between atoms: C_26  and  C_29
REMARK                            x       y       z     vdW  Elec       q    Type
REMARK                         _______ _______ _______ _____ _____    ______ ____
ROOT
ATOM      1  C   UNL     1      -8.769  54.957  47.250  0.00  0.00    +0.000 A 
ATOM      2  S   UNL     1      -7.525  54.229  46.346  0.00  0.00    +0.000 S 
ATOM      3  C   UNL     1     -10.034  54.621  46.799  0.00  0.00    +0.000 A 
ATOM      4  C   UNL     1      -8.643  53.244  45.508  0.00  0.00    +0.000 A 
ATOM      5  C   UNL     1      -9.951  53.535  45.853  0.00  0.00    +0.000 A 
ATOM      6  C   UNL     1      -8.226  52.195  44.504  0.00  0.00    +0.000 C 
ATOM      7  C   UNL     1     -11.119  52.850  45.206  0.00  0.00    +0.000 C 
ATOM      8  C   UNL     1      -9.421  51.792  43.582  0.00  0.00    +0.000 C 
ATOM      9  C   UNL     1     -10.696  51.592  44.443  0.00  0.00    +0.000 C 
ATOM     10  C   UNL     1      -9.129  50.464  42.857  0.00  0.00    +0.000 C 
ATOM     11  C   UNL     1      -9.646  52.873  42.503  0.00  0.00    +0.000 C 
ENDROOT
BRANCH   1  15
ATOM     12  N   UNL     1      -7.704  56.005  50.526  0.00  0.00    +0.000 N 
ATOM     13  C   UNL     1      -8.116  55.145  49.513  0.00  0.00    +0.000 C 
ATOM     14  O   UNL     1      -8.186  53.935  49.704  0.00  0.00    +0.000 OA
ATOM     15  N   UNL     1      -8.363  55.758  48.302  0.00  0.00    +0.000 N 
ATOM     16  H   UNL     1      -7.754  56.977  50.374  0.00  0.00    +0.000 HD
ATOM     17  H   UNL     1      -8.254  56.730  48.191  0.00  0.00    +0.000 HD
BRANCH  12  18
ATOM     18  S   UNL     1      -7.125  55.440  51.995  0.00  0.00    +0.000 S 
ATOM     19  O   UNL     1      -6.979  56.569  52.881  0.00  0.00    +0.000 OA
ATOM     20  O   UNL     1      -5.972  54.630  51.663  0.00  0.00    +0.000 OA
BRANCH  18  21
ATOM     21  C   UNL     1      -8.407  54.352  52.616  0.00  0.00    +0.000 A 
ATOM     22  N   UNL     1      -7.982  53.104  52.963  0.00  0.00    +0.000 NA
ATOM     23  C   UNL     1      -9.717  54.806  52.737  0.00  0.00    +0.000 A 
ATOM     24  C   UNL     1      -8.927  52.288  53.484  0.00  0.00    +0.000 A 
ATOM     25  C   UNL     1     -10.658  53.922  53.261  0.00  0.00    +0.000 A 
ATOM     26  C   UNL     1     -10.260  52.645  53.649  0.00  0.00    +0.000 A 
ENDBRANCH  18  21
ENDBRANCH  12  18
ENDBRANCH   1  15
BRANCH   3  27
ATOM     27  C   UNL     1     -11.266  55.320  47.170  0.00  0.00    +0.000 C 
ATOM     28  O   UNL     1     -11.878  56.065  46.414  0.00  0.00    +0.000 OA
BRANCH  27  29
ATOM     29  O   UNL     1     -11.518  55.199  48.507  0.00  0.00    +0.000 OA
BRANCH  29  30
ATOM     30  C   UNL     1     -12.393  54.137  48.907  0.00  0.00    +0.000 C 
ATOM     31  C   UNL     1     -11.630  53.145  49.754  0.00  0.00    +0.000 C 
ENDBRANCH  29  30
ENDBRANCH  27  29
ENDBRANCH   3  27
TORSDOF 6
ENDMDL
MODEL 6
REMARK VINA RESULT:      -6.9      2.273      2.975
REMARK  Name = 
REMARK  9 active torsions:
REMARK  status: ('A' for Active; 'I' for Inactive)
REMARK    1  A    between atoms: S_1  and  N_4
REMARK    2  A    between atoms: S_1  and  C_5
REMARK    3  A    between atoms: N_10  and  C_13
REMARK    4  A    between atoms: C_16  and  C_19
REMARK    5  A    between atoms: C_19  and  O_23
REMARK    6  A    between atoms: O_23  and  C_26
REMARK    7  A    between atoms: C_24  and  C_27
REMARK    8  A    between atoms: C_24  and  C_28
REMARK    9  A    between atoms: C_26  and  C_29
REMARK                            x       y       z     vdW  Elec       q    Type
REMARK                         _______ _______ _______ _____ _____    ______ ____
ROOT
ATOM      1  C   UNL     1      -8.483  55.665  49.871  0.00  0.00    +0.000 A 
ATOM      2  S   UNL     1      -7.960  55.986  51.457  0.00  0.00    +0.000 S 
ATOM      3  C   UNL     1      -7.781  54.636  49.267  0.00  0.00    +0.000 A 
ATOM      4  C   UNL     1      -6.972  54.591  51.467  0.00  0.00    +0.000 A 
ATOM      5  C   UNL     1      -6.977  53.944  50.244  0.00  0.00    +0.000 A 
ATOM      6  C   UNL     1      -6.186  54.145  52.677  0.00  0.00    +0.000 C 
ATOM      7  C   UNL     1      -6.137  52.728  49.979  0.00  0.00    +0.000 C 
ATOM      8  C   UNL     1      -5.049  53.152  52.277  0.00  0.00    +0.000 C 
ATOM      9  C   UNL     1      -5.604  52.107  51.273  0.00  0.00    +0.000 C 
ATOM     10  C   UNL     1      -4.529  52.390  53.510  0.00  0.00    +0.000 C 
ATOM     11  C   UNL     1      -3.859  53.925  51.669  0.00  0.00    +0.000 C 
ENDROOT
BRANCH   1  15
ATOM     12  N   UNL     1     -11.806  56.757  49.019  0.00  0.00    +0.000 N 
ATOM     13  C   UNL     1     -10.802  55.919  49.493  0.00  0.00    +0.000 C 
ATOM     14  O   UNL     1     -11.071  54.831  49.990  0.00  0.00    +0.000 OA
ATOM     15  N   UNL     1      -9.529  56.444  49.410  0.00  0.00    +0.000 N 
ATOM     16  H   UNL     1     -11.555  57.577  48.536  0.00  0.00    +0.000 HD
ATOM     17  H   UNL     1      -9.370  57.341  49.036  0.00  0.00    +0.000 HD
BRANCH  12  18
ATOM     18  S   UNL     1     -13.433  56.415  49.248  0.00  0.00    +0.000 S 
ATOM     19  O   UNL     1     -13.553  55.014  49.570  0.00  0.00    +0.000 OA
ATOM     20  O   UNL     1     -14.101  56.946  48.080  0.00  0.00    +0.000 OA
BRANCH  18  21
ATOM     21  C   UNL     1     -13.923  57.400  50.664  0.00  0.00    +0.000 A 
ATOM     22  N   UNL     1     -14.451  58.619  50.359  0.00  0.00    +0.000 NA
ATOM     23  C   UNL     1     -13.775  56.900  51.954  0.00  0.00    +0.000 A 
ATOM     24  C   UNL     1     -14.877  59.353  51.414  0.00  0.00    +0.000 A 
ATOM     25  C   UNL     1     -14.209  57.701  53.009  0.00  0.00    +0.000 A 
ATOM     26  C   UNL     1     -14.776  58.943  52.738  0.00  0.00    +0.000 A 
ENDBRANCH  18  21
ENDBRANCH  12  18
ENDBRANCH   1  15
BRANCH   3  27
ATOM     27  C   UNL     1      -7.794  54.347  47.832  0.00  0.00    +0.000 C 
ATOM     28  O   UNL     1      -6.848  54.568  47.086  0.00  0.00    +0.000 OA
BRANCH  27  29
ATOM     29  O   UNL     1      -9.047  54.003  47.409  0.00  0.00    +0.000 OA
BRANCH  29  30
ATOM     30  C   UNL     1      -9.543  54.670  46.243  0.00  0.00    +0.000 C 
ATOM     31  C   UNL     1     -11.036  54.463  46.138  0.00  0.00    +0.000 C 
ENDBRANCH  29  30
ENDBRANCH  27  29
ENDBRANCH   3  27
TORSDOF 6
ENDMDL
MODEL 7
REMARK VINA RESULT:      -6.8      3.610      6.033
REMARK  Name = 
REMARK  9 active torsions:
REMARK  status: ('A' for Active; 'I' for Inactive)
REMARK    1  A    between atoms: S_1  and  N_4
REMARK    2  A    between atoms: S_1  and  C_5
REMARK    3  A    between atoms: N_10  and  C_13
REMARK    4  A    between atoms: C_16  and  C_19
REMARK    5  A    between atoms: C_19  and  O_23
REMARK    6  A    between atoms: O_23  and  C_26
REMARK    7  A    between atoms: C_24  and  C_27
REMARK    8  A    between atoms: C_24  and  C_28
REMARK    9  A    between atoms: C_26  and  C_29
REMARK                            x       y       z     vdW  Elec       q    Type
REMARK                         _______ _______ _______ _____ _____    ______ ____
ROOT
ATOM      1  C   UNL     1     -11.073  53.298  47.617  0.00  0.00    +0.000 A 
ATOM      2  S   UNL     1     -12.051  52.483  46.489  0.00  0.00    +0.000 S 
ATOM      3  C   UNL     1      -9.720  53.175  47.350  0.00  0.00    +0.000 A 
ATOM      4  C   UNL     1     -10.710  52.176  45.474  0.00  0.00    +0.000 A 
ATOM      5  C   UNL     1      -9.523  52.611  46.036  0.00  0.00    +0.000 A 
ATOM      6  C   UNL     1     -10.831  51.495  44.131  0.00  0.00    +0.000 C 
ATOM      7  C   UNL     1      -8.196  52.398  45.369  0.00  0.00    +0.000 C 
ATOM      8  C   UNL     1      -9.451  50.939  43.654  0.00  0.00    +0.000 C 
ATOM      9  C   UNL     1      -8.351  52.007  43.897  0.00  0.00    +0.000 C 
ATOM     10  C   UNL     1      -9.479  50.627  42.146  0.00  0.00    +0.000 C 
ATOM     11  C   UNL     1      -9.122  49.627  44.398  0.00  0.00    +0.000 C 
ENDROOT
BRANCH   1  15
ATOM     12  N   UNL     1     -12.847  55.875  49.399  0.00  0.00    +0.000 N 
ATOM     13  C   UNL     1     -12.175  55.256  48.351  0.00  0.00    +0.000 C 
ATOM     14  O   UNL     1     -12.047  55.815  47.267  0.00  0.00    +0.000 OA
ATOM     15  N   UNL     1     -11.742  53.974  48.621  0.00  0.00    +0.000 N 
ATOM     16  H   UNL     1     -12.846  55.445  50.285  0.00  0.00    +0.000 HD
ATOM     17  H   UNL     1     -11.904  53.555  49.497  0.00  0.00    +0.000 HD
BRANCH  12  18
ATOM     18  S   UNL     1     -13.659  57.329  49.201  0.00  0.00    +0.000 S 
ATOM     19  O   UNL     1     -14.706  57.126  48.229  0.00  0.00    +0.000 OA
ATOM     20  O   UNL     1     -12.626  58.311  48.954  0.00  0.00    +0.000 OA
BRANCH  18  21
ATOM     21  C   UNL     1     -14.387  57.679  50.802  0.00  0.00    +0.000 A 
ATOM     22  N   UNL     1     -14.967  56.608  51.415  0.00  0.00    +0.000 NA
ATOM     23  C   UNL     1     -14.318  58.960  51.341  0.00  0.00    +0.000 A 
ATOM     24  C   UNL     1     -15.473  56.843  52.648  0.00  0.00    +0.000 A 
ATOM     25  C   UNL     1     -14.872  59.157  52.605  0.00  0.00    +0.000 A 
ATOM     26  C   UNL     1     -15.452  58.083  53.274  0.00  0.00    +0.000 A 
ENDBRANCH  18  21
ENDBRANCH  12  18
ENDBRANCH   1  15
BRANCH   3  27
ATOM     27  C   UNL     1      -8.649  53.496  48.296  0.00  0.00    +0.000 C 
ATOM     28  O   UNL     1      -8.585  53.039  49.430  0.00  0.00    +0.000 OA
BRANCH  27  29
ATOM     29  O   UNL     1      -7.867  54.513  47.827  0.00  0.00    +0.000 OA
BRANCH  29  30
ATOM     30  C   UNL     1      -6.779  54.930  48.661  0.00  0.00    +0.000 C 
ATOM     31  C   UNL     1      -5.537  54.147  48.303  0.00  0.00    +0.000 C 
ENDBRANCH  29  30
ENDBRANCH  27  29
ENDBRANCH   3  27
TORSDOF 6
ENDMDL
MODEL 8
REMARK VINA RESULT:      -6.6      2.950      4.490
REMARK  Name = 
REMARK  9 active torsions:
REMARK  status: ('A' for Active; 'I' for Inactive)
REMARK    1  A    between atoms: S_1  and  N_4
REMARK    2  A    between atoms: S_1  and  C_5
REMARK    3  A    between atoms: N_10  and  C_13
REMARK    4  A    between atoms: C_16  and  C_19
REMARK    5  A    between atoms: C_19  and  O_23
REMARK    6  A    between atoms: O_23  and  C_26
REMARK    7  A    between atoms: C_24  and  C_27
REMARK    8  A    between atoms: C_24  and  C_28
REMARK    9  A    between atoms: C_26  and  C_29
REMARK                            x       y       z     vdW  Elec       q    Type
REMARK                         _______ _______ _______ _____ _____    ______ ____
ROOT
ATOM      1  C   UNL     1      -8.708  55.271  49.218  0.00  0.00    +0.000 A 
ATOM      2  S   UNL     1      -8.128  54.918  47.659  0.00  0.00    +0.000 S 
ATOM      3  C   UNL     1      -8.122  54.493  50.202  0.00  0.00    +0.000 A 
ATOM      4  C   UNL     1      -6.896  53.915  48.290  0.00  0.00    +0.000 A 
ATOM      5  C   UNL     1      -6.988  53.783  49.664  0.00  0.00    +0.000 A 
ATOM      6  C   UNL     1      -5.850  53.251  47.426  0.00  0.00    +0.000 C 
ATOM      7  C   UNL     1      -6.059  52.901  50.447  0.00  0.00    +0.000 C 
ATOM      8  C   UNL     1      -5.170  52.063  48.178  0.00  0.00    +0.000 C 
ATOM      9  C   UNL     1      -4.830  52.495  49.629  0.00  0.00    +0.000 C 
ATOM     10  C   UNL     1      -3.853  51.660  47.486  0.00  0.00    +0.000 C 
ATOM     11  C   UNL     1      -6.097  50.829  48.171  0.00  0.00    +0.000 C 
ENDROOT
BRANCH   1  15
ATOM     12  N   UNL     1     -11.877  56.980  49.201  0.00  0.00    +0.000 N 
ATOM     13  C   UNL     1     -10.976  55.926  49.098  0.00  0.00    +0.000 C 
ATOM     14  O   UNL     1     -11.366  54.780  48.902  0.00  0.00    +0.000 OA
ATOM     15  N   UNL     1      -9.656  56.275  49.298  0.00  0.00    +0.000 N 
ATOM     16  H   UNL     1     -11.530  57.900  49.259  0.00  0.00    +0.000 HD
ATOM     17  H   UNL     1      -9.398  57.205  49.492  0.00  0.00    +0.000 HD
BRANCH  12  18
ATOM     18  S   UNL     1     -13.536  56.734  49.233  0.00  0.00    +0.000 S 
ATOM     19  O   UNL     1     -13.774  55.322  49.409  0.00  0.00    +0.000 OA
ATOM     20  O   UNL     1     -14.043  57.409  48.057  0.00  0.00    +0.000 OA
BRANCH  18  21
ATOM     21  C   UNL     1     -14.114  57.624  50.677  0.00  0.00    +0.000 A 
ATOM     22  N   UNL     1     -14.600  58.873  50.425  0.00  0.00    +0.000 NA
ATOM     23  C   UNL     1     -14.068  57.030  51.935  0.00  0.00    +0.000 A 
ATOM     24  C   UNL     1     -15.091  59.537  51.497  0.00  0.00    +0.000 A 
ATOM     25  C   UNL     1     -14.566  57.762  53.011  0.00  0.00    +0.000 A 
ATOM     26  C   UNL     1     -15.093  59.032  52.791  0.00  0.00    +0.000 A 
ENDBRANCH  18  21
ENDBRANCH  12  18
ENDBRANCH   1  15
BRANCH   3  27
ATOM     27  C   UNL     1      -8.630  54.354  51.569  0.00  0.00    +0.000 C 
ATOM     28  O   UNL     1      -9.243  53.372  51.969  0.00  0.00    +0.000 OA
BRANCH  27  29
ATOM     29  O   UNL     1      -8.515  55.527  52.260  0.00  0.00    +0.000 OA
BRANCH  29  30
ATOM     30  C   UNL     1      -7.259  55.780  52.901  0.00  0.00    +0.000 C 
ATOM     31  C   UNL     1      -7.216  55.064  54.232  0.00  0.00    +0.000 C 
ENDBRANCH  29  30
ENDBRANCH  27  29
ENDBRANCH   3  27
TORSDOF 6
ENDMDL
MODEL 9
REMARK VINA RESULT:      -6.5      4.030      7.711
REMARK  Name = 
REMARK  9 active torsions:
REMARK  status: ('A' for Active; 'I' for Inactive)
REMARK    1  A    between atoms: S_1  and  N_4
REMARK    2  A    between atoms: S_1  and  C_5
REMARK    3  A    between atoms: N_10  and  C_13
REMARK    4  A    between atoms: C_16  and  C_19
REMARK    5  A    between atoms: C_19  and  O_23
REMARK    6  A    between atoms: O_23  and  C_26
REMARK    7  A    between atoms: C_24  and  C_27
REMARK    8  A    between atoms: C_24  and  C_28
REMARK    9  A    between atoms: C_26  and  C_29
REMARK                            x       y       z     vdW  Elec       q    Type
REMARK                         _______ _______ _______ _____ _____    ______ ____
ROOT
ATOM      1  C   UNL     1     -11.783  56.013  47.798  0.00  0.00    +0.000 A 
ATOM      2  S   UNL     1     -13.422  56.463  47.742  0.00  0.00    +0.000 S 
ATOM      3  C   UNL     1     -11.245  56.085  49.072  0.00  0.00    +0.000 A 
ATOM      4  C   UNL     1     -13.521  56.504  49.448  0.00  0.00    +0.000 A 
ATOM      5  C   UNL     1     -12.296  56.266  50.044  0.00  0.00    +0.000 A 
ATOM      6  C   UNL     1     -14.805  56.784  50.193  0.00  0.00    +0.000 C 
ATOM      7  C   UNL     1     -12.108  56.314  51.533  0.00  0.00    +0.000 C 
ATOM      8  C   UNL     1     -14.519  57.214  51.667  0.00  0.00    +0.000 C 
ATOM      9  C   UNL     1     -13.444  56.279  52.280  0.00  0.00    +0.000 C 
ATOM     10  C   UNL     1     -15.791  57.096  52.528  0.00  0.00    +0.000 C 
ATOM     11  C   UNL     1     -14.060  58.688  51.710  0.00  0.00    +0.000 C 
ENDROOT
BRANCH   1  15
ATOM     12  N   UNL     1     -10.610  53.961  45.082  0.00  0.00    +0.000 N 
ATOM     13  C   UNL     1     -11.181  54.278  46.310  0.00  0.00    +0.000 C 
ATOM     14  O   UNL     1     -11.656  53.405  47.029  0.00  0.00    +0.000 OA
ATOM     15  N   UNL     1     -11.219  55.628  46.595  0.00  0.00    +0.000 N 
ATOM     16  H   UNL     1     -10.149  54.667  44.574  0.00  0.00    +0.000 HD
ATOM     17  H   UNL     1     -10.859  56.293  45.965  0.00  0.00    +0.000 HD
BRANCH  12  18
ATOM     18  S   UNL     1     -10.682  52.413  44.440  0.00  0.00    +0.000 S 
ATOM     19  O   UNL     1     -10.182  52.467  43.088  0.00  0.00    +0.000 OA
ATOM     20  O   UNL     1     -12.034  51.960  44.690  0.00  0.00    +0.000 OA
BRANCH  18  21
ATOM     21  C   UNL     1      -9.572  51.434  45.451  0.00  0.00    +0.000 A 
ATOM     22  N   UNL     1      -8.298  51.914  45.534  0.00  0.00    +0.000 NA
ATOM     23  C   UNL     1     -10.033  50.293  46.099  0.00  0.00    +0.000 A 
ATOM     24  C   UNL     1      -7.461  51.218  46.338  0.00  0.00    +0.000 A 
ATOM     25  C   UNL     1      -9.128  49.597  46.899  0.00  0.00    +0.000 A 
ATOM     26  C   UNL     1      -7.824  50.068  47.029  0.00  0.00    +0.000 A 
ENDBRANCH  18  21
ENDBRANCH  12  18
ENDBRANCH   1  15
BRANCH   3  27
ATOM     27  C   UNL     1      -9.814  56.060  49.376  0.00  0.00    +0.000 C 
ATOM     28  O   UNL     1      -9.161  57.058  49.655  0.00  0.00    +0.000 OA
BRANCH  27  29
ATOM     29  O   UNL     1      -9.274  54.834  49.108  0.00  0.00    +0.000 OA
BRANCH  29  30
ATOM     30  C   UNL     1      -9.294  53.871  50.168  0.00  0.00    +0.000 C 
ATOM     31  C   UNL     1      -9.727  52.529  49.625  0.00  0.00    +0.000 C 
ENDBRANCH  29  30
ENDBRANCH  27  29
ENDBRANCH   3  27
TORSDOF 6
ENDMDL
