MODEL 1
REMARK VINA RESULT:      -7.7      0.000      0.000
REMARK  Name = 
REMARK  9 active torsions:
REMARK  status: ('A' for Active; 'I' for Inactive)
REMARK    1  A    between atoms: S_1  and  N_4
REMARK    2  A    between atoms: S_1  and  N_5
REMARK    3  A    between atoms: N_12  and  C_15
REMARK    4  A    between atoms: C_17  and  C_20
REMARK    5  A    between atoms: C_20  and  O_24
REMARK    6  A    between atoms: O_24  and  C_27
REMARK    7  A    between atoms: C_25  and  C_28
REMARK    8  A    between atoms: C_25  and  C_29
REMARK    9  A    between atoms: C_27  and  C_30
REMARK                            x       y       z     vdW  Elec       q    Type
REMARK                         _______ _______ _______ _____ _____    ______ ____
ROOT
ATOM      1  N   UNL     1      -7.817  53.438  49.780  0.00  0.00    +0.000 N 
ATOM      2  C   UNL     1      -8.818  54.390  49.966  0.00  0.00    +0.000 C 
ATOM      3  O   UNL     1      -8.598  55.517  50.387  0.00  0.00    +0.000 OA
ATOM      4  N   UNL     1     -10.081  53.880  49.731  0.00  0.00    +0.000 N 
ATOM      5  H   UNL     1      -8.065  52.543  49.453  0.00  0.00    +0.000 HD
ATOM      6  H   UNL     1     -10.211  52.956  49.418  0.00  0.00    +0.000 HD
ENDROOT
BRANCH   4   7
ATOM      7  C   UNL     1     -11.154  54.724  49.953  0.00  0.00    +0.000 A 
ATOM      8  S   UNL     1     -11.767  54.709  51.534  0.00  0.00    +0.000 S 
ATOM      9  C   UNL     1     -11.778  55.636  49.120  0.00  0.00    +0.000 A 
ATOM     10  C   UNL     1     -12.700  56.103  51.227  0.00  0.00    +0.000 A 
ATOM     11  C   UNL     1     -12.631  56.501  49.901  0.00  0.00    +0.000 A 
ATOM     12  C   UNL     1     -13.488  56.799  52.304  0.00  0.00    +0.000 C 
ATOM     13  C   UNL     1     -13.417  57.676  49.390  0.00  0.00    +0.000 C 
ATOM     14  C   UNL     1     -14.578  57.727  51.689  0.00  0.00    +0.000 C 
ATOM     15  C   UNL     1     -13.969  58.546  50.523  0.00  0.00    +0.000 C 
ATOM     16  C   UNL     1     -15.090  58.720  52.748  0.00  0.00    +0.000 C 
ATOM     17  C   UNL     1     -15.776  56.887  51.203  0.00  0.00    +0.000 C 
BRANCH   9  18
ATOM     18  C   UNL     1     -11.545  55.677  47.673  0.00  0.00    +0.000 C 
ATOM     19  O   UNL     1     -12.449  55.676  46.846  0.00  0.00    +0.000 OA
BRANCH  18  20
ATOM     20  O   UNL     1     -10.221  55.719  47.364  0.00  0.00    +0.000 OA
BRANCH  20  21
ATOM     21  C   UNL     1      -9.755  54.828  46.345  0.00  0.00    +0.000 C 
ATOM     22  C   UNL     1      -8.245  54.912  46.252  0.00  0.00    +0.000 C 
ENDBRANCH  20  21
ENDBRANCH  18  20
ENDBRANCH   9  18
ENDBRANCH   4   7
BRANCH   1  23
ATOM     23  S   UNL     1      -6.221  53.764  50.090  0.00  0.00    +0.000 S 
ATOM     24  O   UNL     1      -5.481  52.697  49.460  0.00  0.00    +0.000 OA
ATOM     25  O   UNL     1      -5.944  55.144  49.769  0.00  0.00    +0.000 OA
BRANCH  23  26
ATOM     26  N   UNL     1      -6.194  53.525  51.766  0.00  0.00    +0.000 NA
ATOM     27  C   UNL     1      -6.383  52.153  52.263  0.00  0.00    +0.000 C 
ATOM     28  C   UNL     1      -5.469  54.533  52.569  0.00  0.00    +0.000 C 
ATOM     29  C   UNL     1      -7.345  52.090  53.447  0.00  0.00    +0.000 C 
ATOM     30  C   UNL     1      -5.025  54.101  53.964  0.00  0.00    +0.000 C 
ATOM     31  C   UNL     1      -6.691  52.378  54.793  0.00  0.00    +0.000 C 
ATOM     32  C   UNL     1      -6.167  53.800  54.927  0.00  0.00    +0.000 C 
ENDBRANCH  23  26
ENDBRANCH   1  23
TORSDOF 6
ENDMDL
MODEL 2
REMARK VINA RESULT:      -7.4      2.944      7.975
REMARK  Name = 
REMARK  9 active torsions:
REMARK  status: ('A' for Active; 'I' for Inactive)
REMARK    1  A    between atoms: S_1  and  N_4
REMARK    2  A    between atoms: S_1  and  N_5
REMARK    3  A    between atoms: N_12  and  C_15
REMARK    4  A    between atoms: C_17  and  C_20
REMARK    5  A    between atoms: C_20  and  O_24
REMARK    6  A    between atoms: O_24  and  C_27
REMARK    7  A    between atoms: C_25  and  C_28
REMARK    8  A    between atoms: C_25  and  C_29
REMARK    9  A    between atoms: C_27  and  C_30
REMARK                            x       y       z     vdW  Elec       q    Type
REMARK                         _______ _______ _______ _____ _____    ______ ____
ROOT
ATOM      1  N   UNL     1     -14.506  55.291  51.158  0.00  0.00    +0.000 N 
ATOM      2  C   UNL     1     -13.207  55.456  51.633  0.00  0.00    +0.000 C 
ATOM      3  O   UNL     1     -12.839  56.450  52.245  0.00  0.00    +0.000 OA
ATOM      4  N   UNL     1     -12.367  54.431  51.239  0.00  0.00    +0.000 N 
ATOM      5  H   UNL     1     -14.732  54.473  50.659  0.00  0.00    +0.000 HD
ATOM      6  H   UNL     1     -12.703  53.662  50.724  0.00  0.00    +0.000 HD
ENDROOT
BRANCH   4   7
ATOM      7  C   UNL     1     -11.036  54.531  51.601  0.00  0.00    +0.000 A 
ATOM      8  S   UNL     1     -10.623  53.759  53.052  0.00  0.00    +0.000 S 
ATOM      9  C   UNL     1      -9.959  55.101  50.945  0.00  0.00    +0.000 A 
ATOM     10  C   UNL     1      -8.960  53.929  52.714  0.00  0.00    +0.000 A 
ATOM     11  C   UNL     1      -8.729  54.670  51.566  0.00  0.00    +0.000 A 
ATOM     12  C   UNL     1      -7.893  53.320  53.586  0.00  0.00    +0.000 C 
ATOM     13  C   UNL     1      -7.336  54.993  51.105  0.00  0.00    +0.000 C 
ATOM     14  C   UNL     1      -6.511  53.993  53.330  0.00  0.00    +0.000 C 
ATOM     15  C   UNL     1      -6.276  54.139  51.806  0.00  0.00    +0.000 C 
ATOM     16  C   UNL     1      -5.382  53.117  53.902  0.00  0.00    +0.000 C 
ATOM     17  C   UNL     1      -6.453  55.365  54.030  0.00  0.00    +0.000 C 
BRANCH   9  18
ATOM     18  C   UNL     1     -10.115  55.984  49.783  0.00  0.00    +0.000 C 
ATOM     19  O   UNL     1      -9.471  57.015  49.632  0.00  0.00    +0.000 OA
BRANCH  18  20
ATOM     20  O   UNL     1     -11.045  55.521  48.904  0.00  0.00    +0.000 OA
BRANCH  20  21
ATOM     21  C   UNL     1     -10.610  55.261  47.565  0.00  0.00    +0.000 C 
ATOM     22  C   UNL     1     -11.720  55.616  46.596  0.00  0.00    +0.000 C 
ENDBRANCH  20  21
ENDBRANCH  18  20
ENDBRANCH   9  18
ENDBRANCH   4   7
BRANCH   1  23
ATOM     23  S   UNL     1     -15.687  56.429  51.407  0.00  0.00    +0.000 S 
ATOM     24  O   UNL     1     -16.882  55.880  50.810  0.00  0.00    +0.000 OA
ATOM     25  O   UNL     1     -15.674  56.836  52.791  0.00  0.00    +0.000 OA
BRANCH  23  26
ATOM     26  N   UNL     1     -15.109  57.673  50.415  0.00  0.00    +0.000 NA
ATOM     27  C   UNL     1     -14.691  58.925  51.064  0.00  0.00    +0.000 C 
ATOM     28  C   UNL     1     -14.555  57.273  49.103  0.00  0.00    +0.000 C 
ATOM     29  C   UNL     1     -15.201  60.161  50.328  0.00  0.00    +0.000 C 
ATOM     30  C   UNL     1     -13.617  58.270  48.428  0.00  0.00    +0.000 C 
ATOM     31  C   UNL     1     -14.323  60.594  49.160  0.00  0.00    +0.000 C 
ATOM     32  C   UNL     1     -14.276  59.584  48.023  0.00  0.00    +0.000 C 
ENDBRANCH  23  26
ENDBRANCH   1  23
TORSDOF 6
ENDMDL
MODEL 3
REMARK VINA RESULT:      -7.2      2.045      7.644
REMARK  Name = 
REMARK  9 active torsions:
REMARK  status: ('A' for Active; 'I' for Inactive)
REMARK    1  A    between atoms: S_1  and  N_4
REMARK    2  A    between atoms: S_1  and  N_5
REMARK    3  A    between atoms: N_12  and  C_15
REMARK    4  A    between atoms: C_17  and  C_20
REMARK    5  A    between atoms: C_20  and  O_24
REMARK    6  A    between atoms: O_24  and  C_27
REMARK    7  A    between atoms: C_25  and  C_28
REMARK    8  A    between atoms: C_25  and  C_29
REMARK    9  A    between atoms: C_27  and  C_30
REMARK                            x       y       z     vdW  Elec       q    Type
REMARK                         _______ _______ _______ _____ _____    ______ ____
ROOT
ATOM      1  N   UNL     1     -11.568  56.796  49.225  0.00  0.00    +0.000 N 
ATOM      2  C   UNL     1     -10.743  55.845  49.822  0.00  0.00    +0.000 C 
ATOM      3  O   UNL     1     -11.133  54.733  50.150  0.00  0.00    +0.000 OA
ATOM      4  N   UNL     1      -9.483  56.340  50.100  0.00  0.00    +0.000 N 
ATOM      5  H   UNL     1     -11.193  57.679  49.001  0.00  0.00    +0.000 HD
ATOM      6  H   UNL     1      -9.221  57.253  49.842  0.00  0.00    +0.000 HD
ENDROOT
BRANCH   4   7
ATOM      7  C   UNL     1      -8.604  55.497  50.758  0.00  0.00    +0.000 A 
ATOM      8  S   UNL     1      -8.722  55.512  52.449  0.00  0.00    +0.000 S 
ATOM      9  C   UNL     1      -7.683  54.588  50.269  0.00  0.00    +0.000 A 
ATOM     10  C   UNL     1      -7.744  54.120  52.567  0.00  0.00    +0.000 A 
ATOM     11  C   UNL     1      -7.242  53.723  51.339  0.00  0.00    +0.000 A 
ATOM     12  C   UNL     1      -7.488  53.424  53.878  0.00  0.00    +0.000 C 
ATOM     13  C   UNL     1      -6.311  52.551  51.210  0.00  0.00    +0.000 C 
ATOM     14  C   UNL     1      -6.237  52.498  53.784  0.00  0.00    +0.000 C 
ATOM     15  C   UNL     1      -6.292  51.680  52.470  0.00  0.00    +0.000 C 
ATOM     16  C   UNL     1      -6.223  51.506  54.960  0.00  0.00    +0.000 C 
ATOM     17  C   UNL     1      -4.948  53.341  53.854  0.00  0.00    +0.000 C 
BRANCH   9  18
ATOM     18  C   UNL     1      -7.279  54.548  48.860  0.00  0.00    +0.000 C 
ATOM     19  O   UNL     1      -6.149  54.827  48.477  0.00  0.00    +0.000 OA
BRANCH  18  20
ATOM     20  O   UNL     1      -8.296  54.164  48.042  0.00  0.00    +0.000 OA
BRANCH  20  21
ATOM     21  C   UNL     1      -8.526  54.950  46.868  0.00  0.00    +0.000 C 
ATOM     22  C   UNL     1      -9.980  54.833  46.459  0.00  0.00    +0.000 C 
ENDBRANCH  20  21
ENDBRANCH  18  20
ENDBRANCH   9  18
ENDBRANCH   4   7
BRANCH   1  23
ATOM     23  S   UNL     1     -13.160  56.489  48.876  0.00  0.00    +0.000 S 
ATOM     24  O   UNL     1     -13.470  57.316  47.734  0.00  0.00    +0.000 OA
ATOM     25  O   UNL     1     -13.373  55.062  48.832  0.00  0.00    +0.000 OA
BRANCH  23  26
ATOM     26  N   UNL     1     -13.894  57.159  50.246  0.00  0.00    +0.000 NA
ATOM     27  C   UNL     1     -14.500  58.493  50.112  0.00  0.00    +0.000 C 
ATOM     28  C   UNL     1     -14.359  56.211  51.281  0.00  0.00    +0.000 C 
ATOM     29  C   UNL     1     -14.161  59.408  51.285  0.00  0.00    +0.000 C 
ATOM     30  C   UNL     1     -15.419  56.729  52.250  0.00  0.00    +0.000 C 
ATOM     31  C   UNL     1     -15.071  59.229  52.495  0.00  0.00    +0.000 C 
ATOM     32  C   UNL     1     -14.950  57.864  53.154  0.00  0.00    +0.000 C 
ENDBRANCH  23  26
ENDBRANCH   1  23
TORSDOF 6
ENDMDL
MODEL 4
REMARK VINA RESULT:      -7.2      1.480      1.713
REMARK  Name = 
REMARK  9 active torsions:
REMARK  status: ('A' for Active; 'I' for Inactive)
REMARK    1  A    between atoms: S_1  and  N_4
REMARK    2  A    between atoms: S_1  and  N_5
REMARK    3  A    between atoms: N_12  and  C_15
REMARK    4  A    between atoms: C_17  and  C_20
REMARK    5  A    between atoms: C_20  and  O_24
REMARK    6  A    between atoms: O_24  and  C_27
REMARK    7  A    between atoms: C_25  and  C_28
REMARK    8  A    between atoms: C_25  and  C_29
REMARK    9  A    between atoms: C_27  and  C_30
REMARK                            x       y       z     vdW  Elec       q    Type
REMARK                         _______ _______ _______ _____ _____    ______ ____
ROOT
ATOM      1  N   UNL     1      -8.081  52.665  50.268  0.00  0.00    +0.000 N 
ATOM      2  C   UNL     1      -9.056  53.659  50.245  0.00  0.00    +0.000 C 
ATOM      3  O   UNL     1      -8.798  54.846  50.097  0.00  0.00    +0.000 OA
ATOM      4  N   UNL     1     -10.319  53.167  50.518  0.00  0.00    +0.000 N 
ATOM      5  H   UNL     1      -8.356  51.730  50.407  0.00  0.00    +0.000 HD
ATOM      6  H   UNL     1     -10.475  52.205  50.658  0.00  0.00    +0.000 HD
ENDROOT
BRANCH   4   7
ATOM      7  C   UNL     1     -11.353  54.083  50.588  0.00  0.00    +0.000 A 
ATOM      8  S   UNL     1     -11.677  54.685  52.139  0.00  0.00    +0.000 S 
ATOM      9  C   UNL     1     -12.132  54.648  49.594  0.00  0.00    +0.000 A 
ATOM     10  C   UNL     1     -12.678  55.908  51.496  0.00  0.00    +0.000 A 
ATOM     11  C   UNL     1     -12.852  55.781  50.128  0.00  0.00    +0.000 A 
ATOM     12  C   UNL     1     -13.279  56.991  52.353  0.00  0.00    +0.000 C 
ATOM     13  C   UNL     1     -13.738  56.717  49.356  0.00  0.00    +0.000 C 
ATOM     14  C   UNL     1     -14.478  57.674  51.630  0.00  0.00    +0.000 C 
ATOM     15  C   UNL     1     -14.100  57.971  50.157  0.00  0.00    +0.000 C 
ATOM     16  C   UNL     1     -14.816  59.012  52.311  0.00  0.00    +0.000 C 
ATOM     17  C   UNL     1     -15.726  56.771  51.706  0.00  0.00    +0.000 C 
BRANCH   9  18
ATOM     18  C   UNL     1     -12.157  54.137  48.220  0.00  0.00    +0.000 C 
ATOM     19  O   UNL     1     -11.978  54.845  47.236  0.00  0.00    +0.000 OA
BRANCH  18  20
ATOM     20  O   UNL     1     -12.396  52.798  48.171  0.00  0.00    +0.000 OA
BRANCH  20  21
ATOM     21  C   UNL     1     -11.617  52.025  47.252  0.00  0.00    +0.000 C 
ATOM     22  C   UNL     1     -12.539  51.280  46.309  0.00  0.00    +0.000 C 
ENDBRANCH  20  21
ENDBRANCH  18  20
ENDBRANCH   9  18
ENDBRANCH   4   7
BRANCH   1  23
ATOM     23  S   UNL     1      -6.470  53.004  50.067  0.00  0.00    +0.000 S 
ATOM     24  O   UNL     1      -5.834  51.729  49.834  0.00  0.00    +0.000 OA
ATOM     25  O   UNL     1      -6.324  54.084  49.121  0.00  0.00    +0.000 OA
BRANCH  23  26
ATOM     26  N   UNL     1      -6.083  53.525  51.631  0.00  0.00    +0.000 NA
ATOM     27  C   UNL     1      -6.775  52.876  52.756  0.00  0.00    +0.000 C 
ATOM     28  C   UNL     1      -4.759  54.155  51.812  0.00  0.00    +0.000 C 
ATOM     29  C   UNL     1      -7.253  53.879  53.802  0.00  0.00    +0.000 C 
ATOM     30  C   UNL     1      -4.207  54.183  53.235  0.00  0.00    +0.000 C 
ATOM     31  C   UNL     1      -6.187  54.273  54.817  0.00  0.00    +0.000 C 
ATOM     32  C   UNL     1      -5.015  55.030  54.212  0.00  0.00    +0.000 C 
ENDBRANCH  23  26
ENDBRANCH   1  23
TORSDOF 6
ENDMDL
MODEL 5
REMARK VINA RESULT:      -7.1      3.409      8.405
REMARK  Name = 
REMARK  9 active torsions:
REMARK  status: ('A' for Active; 'I' for Inactive)
REMARK    1  A    between atoms: S_1  and  N_4
REMARK    2  A    between atoms: S_1  and  N_5
REMARK    3  A    between atoms: N_12  and  C_15
REMARK    4  A    between atoms: C_17  and  C_20
REMARK    5  A    between atoms: C_20  and  O_24
REMARK    6  A    between atoms: O_24  and  C_27
REMARK    7  A    between atoms: C_25  and  C_28
REMARK    8  A    between atoms: C_25  and  C_29
REMARK    9  A    between atoms: C_27  and  C_30
REMARK                            x       y       z     vdW  Elec       q    Type
REMARK                         _______ _______ _______ _____ _____    ______ ____
ROOT
ATOM      1  N   UNL     1     -12.958  55.789  48.991  0.00  0.00    +0.000 N 
ATOM      2  C   UNL     1     -12.135  55.147  48.068  0.00  0.00    +0.000 C 
ATOM      3  O   UNL     1     -11.706  55.693  47.061  0.00  0.00    +0.000 OA
ATOM      4  N   UNL     1     -11.956  53.808  48.362  0.00  0.00    +0.000 N 
ATOM      5  H   UNL     1     -13.280  55.285  49.773  0.00  0.00    +0.000 HD
ATOM      6  H   UNL     1     -12.344  53.405  49.172  0.00  0.00    +0.000 HD
ENDROOT
BRANCH   4   7
ATOM      7  C   UNL     1     -11.210  53.059  47.469  0.00  0.00    +0.000 A 
ATOM      8  S   UNL     1     -12.095  52.353  46.207  0.00  0.00    +0.000 S 
ATOM      9  C   UNL     1      -9.847  52.838  47.390  0.00  0.00    +0.000 A 
ATOM     10  C   UNL     1     -10.660  51.959  45.372  0.00  0.00    +0.000 A 
ATOM     11  C   UNL     1      -9.524  52.259  46.106  0.00  0.00    +0.000 A 
ATOM     12  C   UNL     1     -10.670  51.363  43.989  0.00  0.00    +0.000 C 
ATOM     13  C   UNL     1      -8.148  51.948  45.590  0.00  0.00    +0.000 C 
ATOM     14  C   UNL     1      -9.303  50.691  43.661  0.00  0.00    +0.000 C 
ATOM     15  C   UNL     1      -8.145  51.627  44.093  0.00  0.00    +0.000 C 
ATOM     16  C   UNL     1      -9.179  50.454  42.145  0.00  0.00    +0.000 C 
ATOM     17  C   UNL     1      -9.200  49.325  44.368  0.00  0.00    +0.000 C 
BRANCH   9  18
ATOM     18  C   UNL     1      -8.922  53.185  48.474  0.00  0.00    +0.000 C 
ATOM     19  O   UNL     1      -8.164  52.376  48.995  0.00  0.00    +0.000 OA
BRANCH  18  20
ATOM     20  O   UNL     1      -9.006  54.497  48.824  0.00  0.00    +0.000 OA
BRANCH  20  21
ATOM     21  C   UNL     1      -8.581  54.853  50.143  0.00  0.00    +0.000 C 
ATOM     22  C   UNL     1      -9.790  55.212  50.983  0.00  0.00    +0.000 C 
ENDBRANCH  20  21
ENDBRANCH  18  20
ENDBRANCH   9  18
ENDBRANCH   4   7
BRANCH   1  23
ATOM     23  S   UNL     1     -13.409  57.375  48.816  0.00  0.00    +0.000 S 
ATOM     24  O   UNL     1     -12.183  58.134  48.885  0.00  0.00    +0.000 OA
ATOM     25  O   UNL     1     -14.290  57.499  47.680  0.00  0.00    +0.000 OA
BRANCH  23  26
ATOM     26  N   UNL     1     -14.265  57.596  50.261  0.00  0.00    +0.000 NA
ATOM     27  C   UNL     1     -14.545  58.977  50.683  0.00  0.00    +0.000 C 
ATOM     28  C   UNL     1     -15.121  56.475  50.703  0.00  0.00    +0.000 C 
ATOM     29  C   UNL     1     -14.283  59.195  52.171  0.00  0.00    +0.000 C 
ATOM     30  C   UNL     1     -16.235  56.817  51.690  0.00  0.00    +0.000 C 
ATOM     31  C   UNL     1     -15.445  58.793  53.071  0.00  0.00    +0.000 C 
ATOM     32  C   UNL     1     -15.747  57.302  53.051  0.00  0.00    +0.000 C 
ENDBRANCH  23  26
ENDBRANCH   1  23
TORSDOF 6
ENDMDL
MODEL 6
REMARK VINA RESULT:      -6.9      3.242      8.133
REMARK  Name = 
REMARK  9 active torsions:
REMARK  status: ('A' for Active; 'I' for Inactive)
REMARK    1  A    between atoms: S_1  and  N_4
REMARK    2  A    between atoms: S_1  and  N_5
REMARK    3  A    between atoms: N_12  and  C_15
REMARK    4  A    between atoms: C_17  and  C_20
REMARK    5  A    between atoms: C_20  and  O_24
REMARK    6  A    between atoms: O_24  and  C_27
REMARK    7  A    between atoms: C_25  and  C_28
REMARK    8  A    between atoms: C_25  and  C_29
REMARK    9  A    between atoms: C_27  and  C_30
REMARK                            x       y       z     vdW  Elec       q    Type
REMARK                         _______ _______ _______ _____ _____    ______ ____
ROOT
ATOM      1  N   UNL     1     -14.076  55.443  51.534  0.00  0.00    +0.000 N 
ATOM      2  C   UNL     1     -12.890  55.337  50.812  0.00  0.00    +0.000 C 
ATOM      3  O   UNL     1     -12.096  56.260  50.689  0.00  0.00    +0.000 OA
ATOM      4  N   UNL     1     -12.772  54.120  50.166  0.00  0.00    +0.000 N 
ATOM      5  H   UNL     1     -14.678  54.665  51.579  0.00  0.00    +0.000 HD
ATOM      6  H   UNL     1     -13.451  53.415  50.273  0.00  0.00    +0.000 HD
ENDROOT
BRANCH   4   7
ATOM      7  C   UNL     1     -11.660  53.935  49.364  0.00  0.00    +0.000 A 
ATOM      8  S   UNL     1     -11.872  54.352  47.735  0.00  0.00    +0.000 S 
ATOM      9  C   UNL     1     -10.376  53.527  49.675  0.00  0.00    +0.000 A 
ATOM     10  C   UNL     1     -10.192  54.258  47.454  0.00  0.00    +0.000 A 
ATOM     11  C   UNL     1      -9.497  53.801  48.561  0.00  0.00    +0.000 A 
ATOM     12  C   UNL     1      -9.571  54.648  46.138  0.00  0.00    +0.000 C 
ATOM     13  C   UNL     1      -8.010  53.587  48.526  0.00  0.00    +0.000 C 
ATOM     14  C   UNL     1      -8.140  54.048  45.995  0.00  0.00    +0.000 C 
ATOM     15  C   UNL     1      -7.354  54.255  47.314  0.00  0.00    +0.000 C 
ATOM     16  C   UNL     1      -7.374  54.765  44.870  0.00  0.00    +0.000 C 
ATOM     17  C   UNL     1      -8.227  52.551  45.636  0.00  0.00    +0.000 C 
BRANCH   9  18
ATOM     18  C   UNL     1     -10.023  52.936  50.971  0.00  0.00    +0.000 C 
ATOM     19  O   UNL     1      -9.641  51.779  51.099  0.00  0.00    +0.000 OA
BRANCH  18  20
ATOM     20  O   UNL     1     -10.165  53.819  51.996  0.00  0.00    +0.000 OA
BRANCH  20  21
ATOM     21  C   UNL     1      -9.166  54.835  52.131  0.00  0.00    +0.000 C 
ATOM     22  C   UNL     1      -8.699  54.897  53.571  0.00  0.00    +0.000 C 
ENDBRANCH  20  21
ENDBRANCH  18  20
ENDBRANCH   9  18
ENDBRANCH   4   7
BRANCH   1  23
ATOM     23  S   UNL     1     -14.508  56.838  52.321  0.00  0.00    +0.000 S 
ATOM     24  O   UNL     1     -15.860  56.620  52.777  0.00  0.00    +0.000 OA
ATOM     25  O   UNL     1     -13.466  57.203  53.251  0.00  0.00    +0.000 OA
BRANCH  23  26
ATOM     26  N   UNL     1     -14.543  57.913  51.014  0.00  0.00    +0.000 NA
ATOM     27  C   UNL     1     -14.995  57.392  49.714  0.00  0.00    +0.000 C 
ATOM     28  C   UNL     1     -14.657  59.350  51.340  0.00  0.00    +0.000 C 
ATOM     29  C   UNL     1     -14.107  57.854  48.562  0.00  0.00    +0.000 C 
ATOM     30  C   UNL     1     -15.168  60.262  50.227  0.00  0.00    +0.000 C 
ATOM     31  C   UNL     1     -14.465  59.232  48.018  0.00  0.00    +0.000 C 
ATOM     32  C   UNL     1     -14.247  60.359  49.015  0.00  0.00    +0.000 C 
ENDBRANCH  23  26
ENDBRANCH   1  23
TORSDOF 6
ENDMDL
MODEL 7
REMARK VINA RESULT:      -6.9      2.349      7.698
REMARK  Name = 
REMARK  9 active torsions:
REMARK  status: ('A' for Active; 'I' for Inactive)
REMARK    1  A    between atoms: S_1  and  N_4
REMARK    2  A    between atoms: S_1  and  N_5
REMARK    3  A    between atoms: N_12  and  C_15
REMARK    4  A    between atoms: C_17  and  C_20
REMARK    5  A    between atoms: C_20  and  O_24
REMARK    6  A    between atoms: O_24  and  C_27
REMARK    7  A    between atoms: C_25  and  C_28
REMARK    8  A    between atoms: C_25  and  C_29
REMARK    9  A    between atoms: C_27  and  C_30
REMARK                            x       y       z     vdW  Elec       q    Type
REMARK                         _______ _______ _______ _____ _____    ______ ____
ROOT
ATOM      1  N   UNL     1     -11.752  56.778  49.528  0.00  0.00    +0.000 N 
ATOM      2  C   UNL     1     -11.294  55.637  50.183  0.00  0.00    +0.000 C 
ATOM      3  O   UNL     1     -12.003  54.666  50.410  0.00  0.00    +0.000 OA
ATOM      4  N   UNL     1      -9.997  55.775  50.641  0.00  0.00    +0.000 N 
ATOM      5  H   UNL     1     -11.132  57.530  49.392  0.00  0.00    +0.000 HD
ATOM      6  H   UNL     1      -9.473  56.588  50.457  0.00  0.00    +0.000 HD
ENDROOT
BRANCH   4   7
ATOM      7  C   UNL     1      -9.468  54.724  51.368  0.00  0.00    +0.000 A 
ATOM      8  S   UNL     1      -9.926  54.674  52.999  0.00  0.00    +0.000 S 
ATOM      9  C   UNL     1      -8.675  53.660  50.976  0.00  0.00    +0.000 A 
ATOM     10  C   UNL     1      -9.304  53.094  53.164  0.00  0.00    +0.000 A 
ATOM     11  C   UNL     1      -8.653  52.662  52.020  0.00  0.00    +0.000 A 
ATOM     12  C   UNL     1      -9.473  52.289  54.426  0.00  0.00    +0.000 C 
ATOM     13  C   UNL     1      -7.980  51.320  51.957  0.00  0.00    +0.000 C 
ATOM     14  C   UNL     1      -8.450  51.115  54.480  0.00  0.00    +0.000 C 
ATOM     15  C   UNL     1      -8.402  50.401  53.106  0.00  0.00    +0.000 C 
ATOM     16  C   UNL     1      -8.885  50.082  55.535  0.00  0.00    +0.000 C 
ATOM     17  C   UNL     1      -7.057  51.644  54.875  0.00  0.00    +0.000 C 
BRANCH   9  18
ATOM     18  C   UNL     1      -8.006  53.607  49.671  0.00  0.00    +0.000 C 
ATOM     19  O   UNL     1      -8.610  53.632  48.606  0.00  0.00    +0.000 OA
BRANCH  18  20
ATOM     20  O   UNL     1      -6.653  53.531  49.788  0.00  0.00    +0.000 OA
BRANCH  20  21
ATOM     21  C   UNL     1      -5.981  54.650  50.375  0.00  0.00    +0.000 C 
ATOM     22  C   UNL     1      -4.965  54.156  51.384  0.00  0.00    +0.000 C 
ENDBRANCH  20  21
ENDBRANCH  18  20
ENDBRANCH   9  18
ENDBRANCH   4   7
BRANCH   1  23
ATOM     23  S   UNL     1     -13.307  56.909  48.967  0.00  0.00    +0.000 S 
ATOM     24  O   UNL     1     -13.287  58.007  48.030  0.00  0.00    +0.000 OA
ATOM     25  O   UNL     1     -13.782  55.606  48.566  0.00  0.00    +0.000 OA
BRANCH  23  26
ATOM     26  N   UNL     1     -14.086  57.418  50.381  0.00  0.00    +0.000 NA
ATOM     27  C   UNL     1     -14.581  58.803  50.426  0.00  0.00    +0.000 C 
ATOM     28  C   UNL     1     -14.694  56.364  51.220  0.00  0.00    +0.000 C 
ATOM     29  C   UNL     1     -14.260  59.493  51.749  0.00  0.00    +0.000 C 
ATOM     30  C   UNL     1     -15.780  56.812  52.196  0.00  0.00    +0.000 C 
ATOM     31  C   UNL     1     -15.265  59.206  52.858  0.00  0.00    +0.000 C 
ATOM     32  C   UNL     1     -15.294  57.749  53.296  0.00  0.00    +0.000 C 
ENDBRANCH  23  26
ENDBRANCH   1  23
TORSDOF 6
ENDMDL
MODEL 8
REMARK VINA RESULT:      -6.9      3.368      5.206
REMARK  Name = 
REMARK  9 active torsions:
REMARK  status: ('A' for Active; 'I' for Inactive)
REMARK    1  A    between atoms: S_1  and  N_4
REMARK    2  A    between atoms: S_1  and  N_5
REMARK    3  A    between atoms: N_12  and  C_15
REMARK    4  A    between atoms: C_17  and  C_20
REMARK    5  A    between atoms: C_20  and  O_24
REMARK    6  A    between atoms: O_24  and  C_27
REMARK    7  A    between atoms: C_25  and  C_28
REMARK    8  A    between atoms: C_25  and  C_29
REMARK    9  A    between atoms: C_27  and  C_30
REMARK                            x       y       z     vdW  Elec       q    Type
REMARK                         _______ _______ _______ _____ _____    ______ ____
ROOT
ATOM      1  N   UNL     1      -8.672  51.594  48.835  0.00  0.00    +0.000 N 
ATOM      2  C   UNL     1      -9.854  52.314  48.992  0.00  0.00    +0.000 C 
ATOM      3  O   UNL     1     -10.929  51.942  48.541  0.00  0.00    +0.000 OA
ATOM      4  N   UNL     1      -9.650  53.535  49.608  0.00  0.00    +0.000 N 
ATOM      5  H   UNL     1      -7.838  51.959  49.210  0.00  0.00    +0.000 HD
ATOM      6  H   UNL     1      -8.760  53.804  49.931  0.00  0.00    +0.000 HD
ENDROOT
BRANCH   4   7
ATOM      7  C   UNL     1     -10.750  54.362  49.751  0.00  0.00    +0.000 A 
ATOM      8  S   UNL     1     -11.470  54.343  51.285  0.00  0.00    +0.000 S 
ATOM      9  C   UNL     1     -11.330  55.259  48.871  0.00  0.00    +0.000 A 
ATOM     10  C   UNL     1     -12.403  55.720  50.906  0.00  0.00    +0.000 A 
ATOM     11  C   UNL     1     -12.249  56.113  49.586  0.00  0.00    +0.000 A 
ATOM     12  C   UNL     1     -13.276  56.408  51.922  0.00  0.00    +0.000 C 
ATOM     13  C   UNL     1     -13.017  57.272  49.015  0.00  0.00    +0.000 C 
ATOM     14  C   UNL     1     -14.335  57.314  51.227  0.00  0.00    +0.000 C 
ATOM     15  C   UNL     1     -13.660  58.138  50.102  0.00  0.00    +0.000 C 
ATOM     16  C   UNL     1     -14.935  58.303  52.242  0.00  0.00    +0.000 C 
ATOM     17  C   UNL     1     -15.483  56.452  50.665  0.00  0.00    +0.000 C 
BRANCH   9  18
ATOM     18  C   UNL     1     -10.997  55.297  47.443  0.00  0.00    +0.000 C 
ATOM     19  O   UNL     1      -9.920  55.694  47.015  0.00  0.00    +0.000 OA
BRANCH  18  20
ATOM     20  O   UNL     1     -12.015  54.841  46.663  0.00  0.00    +0.000 OA
BRANCH  20  21
ATOM     21  C   UNL     1     -11.665  54.239  45.413  0.00  0.00    +0.000 C 
ATOM     22  C   UNL     1     -12.128  52.797  45.399  0.00  0.00    +0.000 C 
ENDBRANCH  20  21
ENDBRANCH  18  20
ENDBRANCH   9  18
ENDBRANCH   4   7
BRANCH   1  23
ATOM     23  S   UNL     1      -8.624  50.139  48.040  0.00  0.00    +0.000 S 
ATOM     24  O   UNL     1      -7.296  49.621  48.265  0.00  0.00    +0.000 OA
ATOM     25  O   UNL     1      -9.788  49.363  48.393  0.00  0.00    +0.000 OA
BRANCH  23  26
ATOM     26  N   UNL     1      -8.731  50.678  46.438  0.00  0.00    +0.000 NA
ATOM     27  C   UNL     1      -7.716  51.637  45.972  0.00  0.00    +0.000 C 
ATOM     28  C   UNL     1      -9.440  49.797  45.487  0.00  0.00    +0.000 C 
ATOM     29  C   UNL     1      -8.324  52.782  45.166  0.00  0.00    +0.000 C 
ATOM     30  C   UNL     1      -9.136  50.009  44.006  0.00  0.00    +0.000 C 
ATOM     31  C   UNL     1      -8.544  52.455  43.694  0.00  0.00    +0.000 C 
ATOM     32  C   UNL     1      -9.574  51.362  43.457  0.00  0.00    +0.000 C 
ENDBRANCH  23  26
ENDBRANCH   1  23
TORSDOF 6
ENDMDL
MODEL 9
REMARK VINA RESULT:      -6.8      3.032      5.949
REMARK  Name = 
REMARK  9 active torsions:
REMARK  status: ('A' for Active; 'I' for Inactive)
REMARK    1  A    between atoms: S_1  and  N_4
REMARK    2  A    between atoms: S_1  and  N_5
REMARK    3  A    between atoms: N_12  and  C_15
REMARK    4  A    between atoms: C_17  and  C_20
REMARK    5  A    between atoms: C_20  and  O_24
REMARK    6  A    between atoms: O_24  and  C_27
REMARK    7  A    between atoms: C_25  and  C_28
REMARK    8  A    between atoms: C_25  and  C_29
REMARK    9  A    between atoms: C_27  and  C_30
REMARK                            x       y       z     vdW  Elec       q    Type
REMARK                         _______ _______ _______ _____ _____    ______ ____
ROOT
ATOM      1  N   UNL     1      -8.269  53.355  47.057  0.00  0.00    +0.000 N 
ATOM      2  C   UNL     1      -9.306  53.740  47.903  0.00  0.00    +0.000 C 
ATOM      3  O   UNL     1     -10.019  52.941  48.495  0.00  0.00    +0.000 OA
ATOM      4  N   UNL     1      -9.505  55.108  47.905  0.00  0.00    +0.000 N 
ATOM      5  H   UNL     1      -7.744  54.050  46.599  0.00  0.00    +0.000 HD
ATOM      6  H   UNL     1      -8.922  55.712  47.390  0.00  0.00    +0.000 HD
ENDROOT
BRANCH   4   7
ATOM      7  C   UNL     1     -10.558  55.593  48.660  0.00  0.00    +0.000 A 
ATOM      8  S   UNL     1     -11.989  55.882  47.799  0.00  0.00    +0.000 S 
ATOM      9  C   UNL     1     -10.668  55.822  50.020  0.00  0.00    +0.000 A 
ATOM     10  C   UNL     1     -12.870  56.064  49.248  0.00  0.00    +0.000 A 
ATOM     11  C   UNL     1     -12.056  56.019  50.368  0.00  0.00    +0.000 A 
ATOM     12  C   UNL     1     -14.365  56.240  49.266  0.00  0.00    +0.000 C 
ATOM     13  C   UNL     1     -12.609  56.211  51.752  0.00  0.00    +0.000 C 
ATOM     14  C   UNL     1     -14.842  56.830  50.627  0.00  0.00    +0.000 C 
ATOM     15  C   UNL     1     -14.135  56.091  51.791  0.00  0.00    +0.000 C 
ATOM     16  C   UNL     1     -16.359  56.628  50.790  0.00  0.00    +0.000 C 
ATOM     17  C   UNL     1     -14.553  58.343  50.679  0.00  0.00    +0.000 C 
BRANCH   9  18
ATOM     18  C   UNL     1      -9.509  55.826  50.920  0.00  0.00    +0.000 C 
ATOM     19  O   UNL     1      -9.466  55.183  51.962  0.00  0.00    +0.000 OA
BRANCH  18  20
ATOM     20  O   UNL     1      -8.502  56.616  50.461  0.00  0.00    +0.000 OA
BRANCH  20  21
ATOM     21  C   UNL     1      -7.172  56.294  50.880  0.00  0.00    +0.000 C 
ATOM     22  C   UNL     1      -6.486  55.478  49.802  0.00  0.00    +0.000 C 
ENDBRANCH  20  21
ENDBRANCH  18  20
ENDBRANCH   9  18
ENDBRANCH   4   7
BRANCH   1  23
ATOM     23  S   UNL     1      -7.887  51.761  46.799  0.00  0.00    +0.000 S 
ATOM     24  O   UNL     1      -6.452  51.683  46.933  0.00  0.00    +0.000 OA
ATOM     25  O   UNL     1      -8.750  50.927  47.600  0.00  0.00    +0.000 OA
BRANCH  23  26
ATOM     26  N   UNL     1      -8.285  51.628  45.158  0.00  0.00    +0.000 NA
ATOM     27  C   UNL     1      -8.612  52.866  44.433  0.00  0.00    +0.000 C 
ATOM     28  C   UNL     1      -7.769  50.441  44.445  0.00  0.00    +0.000 C 
ATOM     29  C   UNL     1      -9.841  52.710  43.541  0.00  0.00    +0.000 C 
ATOM     30  C   UNL     1      -7.696  50.540  42.923  0.00  0.00    +0.000 C 
ATOM     31  C   UNL     1      -9.542  52.109  42.173  0.00  0.00    +0.000 C 
ATOM     32  C   UNL     1      -9.048  50.672  42.231  0.00  0.00    +0.000 C 
ENDBRANCH  23  26
ENDBRANCH   1  23
TORSDOF 6
ENDMDL
