MODEL 1
REMARK VINA RESULT:      -7.9      0.000      0.000
REMARK  Name = 
REMARK  9 active torsions:
REMARK  status: ('A' for Active; 'I' for Inactive)
REMARK    1  A    between atoms: S_1  and  N_4
REMARK    2  A    between atoms: S_1  and  C_5
REMARK    3  A    between atoms: N_10  and  C_13
REMARK    4  A    between atoms: C_16  and  C_20
REMARK    5  A    between atoms: C_20  and  O_24
REMARK    6  A    between atoms: O_24  and  C_27
REMARK    7  A    between atoms: C_25  and  C_28
REMARK    8  A    between atoms: C_25  and  C_29
REMARK    9  A    between atoms: C_27  and  C_30
REMARK                            x       y       z     vdW  Elec       q    Type
REMARK                         _______ _______ _______ _____ _____    ______ ____
ROOT
ATOM      1  N   UNL     1     -14.351  55.178  51.117  0.00  0.00    +0.000 N 
ATOM      2  C   UNL     1     -13.052  55.304  51.587  0.00  0.00    +0.000 C 
ATOM      3  O   UNL     1     -12.693  56.294  52.209  0.00  0.00    +0.000 OA
ATOM      4  N   UNL     1     -12.218  54.283  51.181  0.00  0.00    +0.000 N 
ATOM      5  H   UNL     1     -14.594  54.354  50.636  0.00  0.00    +0.000 HD
ATOM      6  H   UNL     1     -12.565  53.521  50.664  0.00  0.00    +0.000 HD
ENDROOT
BRANCH   4   7
ATOM      7  C   UNL     1     -10.879  54.359  51.521  0.00  0.00    +0.000 A 
ATOM      8  S   UNL     1     -10.471  53.646  53.009  0.00  0.00    +0.000 S 
ATOM      9  C   UNL     1      -9.791  54.872  50.839  0.00  0.00    +0.000 A 
ATOM     10  C   UNL     1      -8.807  53.759  52.655  0.00  0.00    +0.000 A 
ATOM     11  C   UNL     1      -8.567  54.432  51.468  0.00  0.00    +0.000 A 
ATOM     12  C   UNL     1      -7.743  53.181  53.555  0.00  0.00    +0.000 C 
ATOM     13  C   UNL     1      -7.174  54.703  50.981  0.00  0.00    +0.000 C 
ATOM     14  C   UNL     1      -6.353  53.822  53.258  0.00  0.00    +0.000 C 
ATOM     15  C   UNL     1      -6.124  53.876  51.726  0.00  0.00    +0.000 C 
ATOM     16  C   UNL     1      -5.224  52.972  53.870  0.00  0.00    +0.000 C 
ATOM     17  C   UNL     1      -6.276  55.232  53.876  0.00  0.00    +0.000 C 
BRANCH   9  18
ATOM     18  C   UNL     1      -9.927  55.721  49.653  0.00  0.00    +0.000 C 
ATOM     19  O   UNL     1      -9.517  56.876  49.607  0.00  0.00    +0.000 OA
BRANCH  18  20
ATOM     20  O   UNL     1     -10.548  55.081  48.627  0.00  0.00    +0.000 OA
BRANCH  20  21
ATOM     21  C   UNL     1     -11.630  55.767  47.989  0.00  0.00    +0.000 C 
ATOM     22  C   UNL     1     -11.639  55.429  46.511  0.00  0.00    +0.000 C 
ENDBRANCH  20  21
ENDBRANCH  18  20
ENDBRANCH   9  18
ENDBRANCH   4   7
BRANCH   1  23
ATOM     23  S   UNL     1     -15.528  56.343  51.323  0.00  0.00    +0.000 S 
ATOM     24  O   UNL     1     -15.793  56.504  52.731  0.00  0.00    +0.000 OA
ATOM     25  O   UNL     1     -16.589  55.977  50.406  0.00  0.00    +0.000 OA
BRANCH  23  26
ATOM     26  C   UNL     1     -14.795  57.837  50.684  0.00  0.00    +0.000 A 
ATOM     27  C   UNL     1     -14.666  58.953  51.520  0.00  0.00    +0.000 A 
ATOM     28  C   UNL     1     -14.321  57.870  49.367  0.00  0.00    +0.000 A 
ATOM     29  C   UNL     1     -14.075  60.117  51.024  0.00  0.00    +0.000 A 
ATOM     30  C   UNL     1     -13.722  59.037  48.884  0.00  0.00    +0.000 A 
ATOM     31  C   UNL     1     -13.605  60.147  49.714  0.00  0.00    +0.000 A 
ATOM     32  F   UNL     1     -13.037  61.266  49.243  0.00  0.00    +0.000 F 
ENDBRANCH  23  26
ENDBRANCH   1  23
TORSDOF 6
ENDMDL
MODEL 2
REMARK VINA RESULT:      -7.5      4.318      7.693
REMARK  Name = 
REMARK  9 active torsions:
REMARK  status: ('A' for Active; 'I' for Inactive)
REMARK    1  A    between atoms: S_1  and  N_4
REMARK    2  A    between atoms: S_1  and  C_5
REMARK    3  A    between atoms: N_10  and  C_13
REMARK    4  A    between atoms: C_16  and  C_20
REMARK    5  A    between atoms: C_20  and  O_24
REMARK    6  A    between atoms: O_24  and  C_27
REMARK    7  A    between atoms: C_25  and  C_28
REMARK    8  A    between atoms: C_25  and  C_29
REMARK    9  A    between atoms: C_27  and  C_30
REMARK                            x       y       z     vdW  Elec       q    Type
REMARK                         _______ _______ _______ _____ _____    ______ ____
ROOT
ATOM      1  N   UNL     1      -9.666  51.742  48.638  0.00  0.00    +0.000 N 
ATOM      2  C   UNL     1     -10.743  52.577  48.896  0.00  0.00    +0.000 C 
ATOM      3  O   UNL     1     -11.845  52.363  48.410  0.00  0.00    +0.000 OA
ATOM      4  N   UNL     1     -10.410  53.695  49.632  0.00  0.00    +0.000 N 
ATOM      5  H   UNL     1      -8.804  51.950  49.067  0.00  0.00    +0.000 HD
ATOM      6  H   UNL     1      -9.498  53.819  49.979  0.00  0.00    +0.000 HD
ENDROOT
BRANCH   4   7
ATOM      7  C   UNL     1     -11.394  54.638  49.869  0.00  0.00    +0.000 A 
ATOM      8  S   UNL     1     -12.075  54.595  51.425  0.00  0.00    +0.000 S 
ATOM      9  C   UNL     1     -11.896  55.654  49.075  0.00  0.00    +0.000 A 
ATOM     10  C   UNL     1     -12.853  56.092  51.173  0.00  0.00    +0.000 A 
ATOM     11  C   UNL     1     -12.683  56.561  49.880  0.00  0.00    +0.000 A 
ATOM     12  C   UNL     1     -13.629  56.798  52.256  0.00  0.00    +0.000 C 
ATOM     13  C   UNL     1     -13.325  57.832  49.410  0.00  0.00    +0.000 C 
ATOM     14  C   UNL     1     -14.599  57.856  51.648  0.00  0.00    +0.000 C 
ATOM     15  C   UNL     1     -13.855  58.681  50.568  0.00  0.00    +0.000 C 
ATOM     16  C   UNL     1     -15.081  58.835  52.735  0.00  0.00    +0.000 C 
ATOM     17  C   UNL     1     -15.838  57.159  51.053  0.00  0.00    +0.000 C 
BRANCH   9  18
ATOM     18  C   UNL     1     -11.624  55.747  47.639  0.00  0.00    +0.000 C 
ATOM     19  O   UNL     1     -12.508  55.845  46.796  0.00  0.00    +0.000 OA
BRANCH  18  20
ATOM     20  O   UNL     1     -10.293  55.716  47.363  0.00  0.00    +0.000 OA
BRANCH  20  21
ATOM     21  C   UNL     1      -9.871  54.885  46.277  0.00  0.00    +0.000 C 
ATOM     22  C   UNL     1      -8.365  54.975  46.128  0.00  0.00    +0.000 C 
ENDBRANCH  20  21
ENDBRANCH  18  20
ENDBRANCH   9  18
ENDBRANCH   4   7
BRANCH   1  23
ATOM     23  S   UNL     1      -9.747  50.405  47.644  0.00  0.00    +0.000 S 
ATOM     24  O   UNL     1     -11.000  49.726  47.866  0.00  0.00    +0.000 OA
ATOM     25  O   UNL     1      -8.487  49.715  47.832  0.00  0.00    +0.000 OA
BRANCH  23  26
ATOM     26  C   UNL     1      -9.721  51.072  45.992  0.00  0.00    +0.000 A 
ATOM     27  C   UNL     1     -10.929  51.366  45.348  0.00  0.00    +0.000 A 
ATOM     28  C   UNL     1      -8.495  51.333  45.367  0.00  0.00    +0.000 A 
ATOM     29  C   UNL     1     -10.906  51.908  44.061  0.00  0.00    +0.000 A 
ATOM     30  C   UNL     1      -8.484  51.884  44.083  0.00  0.00    +0.000 A 
ATOM     31  C   UNL     1      -9.686  52.165  43.443  0.00  0.00    +0.000 A 
ATOM     32  F   UNL     1      -9.670  52.686  42.207  0.00  0.00    +0.000 F 
ENDBRANCH  23  26
ENDBRANCH   1  23
TORSDOF 6
ENDMDL
MODEL 3
REMARK VINA RESULT:      -7.4      3.322      7.762
REMARK  Name = 
REMARK  9 active torsions:
REMARK  status: ('A' for Active; 'I' for Inactive)
REMARK    1  A    between atoms: S_1  and  N_4
REMARK    2  A    between atoms: S_1  and  C_5
REMARK    3  A    between atoms: N_10  and  C_13
REMARK    4  A    between atoms: C_16  and  C_20
REMARK    5  A    between atoms: C_20  and  O_24
REMARK    6  A    between atoms: O_24  and  C_27
REMARK    7  A    between atoms: C_25  and  C_28
REMARK    8  A    between atoms: C_25  and  C_29
REMARK    9  A    between atoms: C_27  and  C_30
REMARK                            x       y       z     vdW  Elec       q    Type
REMARK                         _______ _______ _______ _____ _____    ______ ____
ROOT
ATOM      1  N   UNL     1      -8.150  53.040  49.543  0.00  0.00    +0.000 N 
ATOM      2  C   UNL     1      -9.058  54.074  49.723  0.00  0.00    +0.000 C 
ATOM      3  O   UNL     1      -8.696  55.179  50.100  0.00  0.00    +0.000 OA
ATOM      4  N   UNL     1     -10.372  53.689  49.553  0.00  0.00    +0.000 N 
ATOM      5  H   UNL     1      -8.491  52.173  49.223  0.00  0.00    +0.000 HD
ATOM      6  H   UNL     1     -10.599  52.776  49.266  0.00  0.00    +0.000 HD
ENDROOT
BRANCH   4   7
ATOM      7  C   UNL     1     -11.362  54.624  49.796  0.00  0.00    +0.000 A 
ATOM      8  S   UNL     1     -11.998  54.607  51.372  0.00  0.00    +0.000 S 
ATOM      9  C   UNL     1     -11.900  55.615  48.995  0.00  0.00    +0.000 A 
ATOM     10  C   UNL     1     -12.804  56.087  51.108  0.00  0.00    +0.000 A 
ATOM     11  C   UNL     1     -12.677  56.528  49.802  0.00  0.00    +0.000 A 
ATOM     12  C   UNL     1     -13.559  56.807  52.197  0.00  0.00    +0.000 C 
ATOM     13  C   UNL     1     -13.350  57.780  49.322  0.00  0.00    +0.000 C 
ATOM     14  C   UNL     1     -14.561  57.837  51.594  0.00  0.00    +0.000 C 
ATOM     15  C   UNL     1     -13.860  58.648  50.474  0.00  0.00    +0.000 C 
ATOM     16  C   UNL     1     -15.026  58.834  52.672  0.00  0.00    +0.000 C 
ATOM     17  C   UNL     1     -15.807  57.110  51.049  0.00  0.00    +0.000 C 
BRANCH   9  18
ATOM     18  C   UNL     1     -11.670  55.678  47.550  0.00  0.00    +0.000 C 
ATOM     19  O   UNL     1     -12.580  55.712  46.728  0.00  0.00    +0.000 OA
BRANCH  18  20
ATOM     20  O   UNL     1     -10.347  55.700  47.238  0.00  0.00    +0.000 OA
BRANCH  20  21
ATOM     21  C   UNL     1      -9.890  54.761  46.261  0.00  0.00    +0.000 C 
ATOM     22  C   UNL     1      -8.396  54.920  46.066  0.00  0.00    +0.000 C 
ENDBRANCH  20  21
ENDBRANCH  18  20
ENDBRANCH   9  18
ENDBRANCH   4   7
BRANCH   1  23
ATOM     23  S   UNL     1      -6.514  53.182  49.837  0.00  0.00    +0.000 S 
ATOM     24  O   UNL     1      -6.004  54.329  49.129  0.00  0.00    +0.000 OA
ATOM     25  O   UNL     1      -5.970  51.860  49.598  0.00  0.00    +0.000 OA
BRANCH  23  26
ATOM     26  C   UNL     1      -6.398  53.470  51.593  0.00  0.00    +0.000 A 
ATOM     27  C   UNL     1      -7.087  52.629  52.476  0.00  0.00    +0.000 A 
ATOM     28  C   UNL     1      -5.591  54.507  52.074  0.00  0.00    +0.000 A 
ATOM     29  C   UNL     1      -6.979  52.844  53.851  0.00  0.00    +0.000 A 
ATOM     30  C   UNL     1      -5.483  54.707  53.454  0.00  0.00    +0.000 A 
ATOM     31  C   UNL     1      -6.176  53.877  54.327  0.00  0.00    +0.000 A 
ATOM     32  F   UNL     1      -6.075  54.077  55.649  0.00  0.00    +0.000 F 
ENDBRANCH  23  26
ENDBRANCH   1  23
TORSDOF 6
ENDMDL
MODEL 4
REMARK VINA RESULT:      -7.3      2.401      3.006
REMARK  Name = 
REMARK  9 active torsions:
REMARK  status: ('A' for Active; 'I' for Inactive)
REMARK    1  A    between atoms: S_1  and  N_4
REMARK    2  A    between atoms: S_1  and  C_5
REMARK    3  A    between atoms: N_10  and  C_13
REMARK    4  A    between atoms: C_16  and  C_20
REMARK    5  A    between atoms: C_20  and  O_24
REMARK    6  A    between atoms: O_24  and  C_27
REMARK    7  A    between atoms: C_25  and  C_28
REMARK    8  A    between atoms: C_25  and  C_29
REMARK    9  A    between atoms: C_27  and  C_30
REMARK                            x       y       z     vdW  Elec       q    Type
REMARK                         _______ _______ _______ _____ _____    ______ ____
ROOT
ATOM      1  N   UNL     1     -11.783  56.734  49.113  0.00  0.00    +0.000 N 
ATOM      2  C   UNL     1     -10.770  55.862  49.485  0.00  0.00    +0.000 C 
ATOM      3  O   UNL     1     -11.019  54.737  49.895  0.00  0.00    +0.000 OA
ATOM      4  N   UNL     1      -9.514  56.432  49.458  0.00  0.00    +0.000 N 
ATOM      5  H   UNL     1     -11.529  57.624  48.775  0.00  0.00    +0.000 HD
ATOM      6  H   UNL     1      -9.383  57.352  49.135  0.00  0.00    +0.000 HD
ENDROOT
BRANCH   4   7
ATOM      7  C   UNL     1      -8.443  55.674  49.896  0.00  0.00    +0.000 A 
ATOM      8  S   UNL     1      -8.003  55.919  51.519  0.00  0.00    +0.000 S 
ATOM      9  C   UNL     1      -7.689  54.705  49.261  0.00  0.00    +0.000 A 
ATOM     10  C   UNL     1      -6.983  54.552  51.493  0.00  0.00    +0.000 A 
ATOM     11  C   UNL     1      -6.897  53.985  50.232  0.00  0.00    +0.000 A 
ATOM     12  C   UNL     1      -6.271  54.045  52.722  0.00  0.00    +0.000 C 
ATOM     13  C   UNL     1      -6.013  52.806  49.955  0.00  0.00    +0.000 C 
ATOM     14  C   UNL     1      -5.077  53.121  52.334  0.00  0.00    +0.000 C 
ATOM     15  C   UNL     1      -5.529  52.124  51.237  0.00  0.00    +0.000 C 
ATOM     16  C   UNL     1      -4.612  52.298  53.551  0.00  0.00    +0.000 C 
ATOM     17  C   UNL     1      -3.885  53.969  51.849  0.00  0.00    +0.000 C 
BRANCH   9  18
ATOM     18  C   UNL     1      -7.739  54.483  47.814  0.00  0.00    +0.000 C 
ATOM     19  O   UNL     1      -6.771  54.646  47.078  0.00  0.00    +0.000 OA
BRANCH  18  20
ATOM     20  O   UNL     1      -8.967  54.077  47.395  0.00  0.00    +0.000 OA
BRANCH  20  21
ATOM     21  C   UNL     1      -9.491  54.691  46.214  0.00  0.00    +0.000 C 
ATOM     22  C   UNL     1     -10.980  54.426  46.125  0.00  0.00    +0.000 C 
ENDBRANCH  20  21
ENDBRANCH  18  20
ENDBRANCH   9  18
ENDBRANCH   4   7
BRANCH   1  23
ATOM     23  S   UNL     1     -13.406  56.362  49.204  0.00  0.00    +0.000 S 
ATOM     24  O   UNL     1     -13.554  54.970  49.547  0.00  0.00    +0.000 OA
ATOM     25  O   UNL     1     -13.986  56.892  47.986  0.00  0.00    +0.000 OA
BRANCH  23  26
ATOM     26  C   UNL     1     -14.023  57.369  50.540  0.00  0.00    +0.000 A 
ATOM     27  C   UNL     1     -14.518  58.650  50.266  0.00  0.00    +0.000 A 
ATOM     28  C   UNL     1     -14.042  56.858  51.843  0.00  0.00    +0.000 A 
ATOM     29  C   UNL     1     -15.018  59.430  51.310  0.00  0.00    +0.000 A 
ATOM     30  C   UNL     1     -14.555  57.643  52.879  0.00  0.00    +0.000 A 
ATOM     31  C   UNL     1     -15.036  58.919  52.605  0.00  0.00    +0.000 A 
ATOM     32  F   UNL     1     -15.519  59.672  53.604  0.00  0.00    +0.000 F 
ENDBRANCH  23  26
ENDBRANCH   1  23
TORSDOF 6
ENDMDL
MODEL 5
REMARK VINA RESULT:      -7.2      2.595      3.235
REMARK  Name = 
REMARK  9 active torsions:
REMARK  status: ('A' for Active; 'I' for Inactive)
REMARK    1  A    between atoms: S_1  and  N_4
REMARK    2  A    between atoms: S_1  and  C_5
REMARK    3  A    between atoms: N_10  and  C_13
REMARK    4  A    between atoms: C_16  and  C_20
REMARK    5  A    between atoms: C_20  and  O_24
REMARK    6  A    between atoms: O_24  and  C_27
REMARK    7  A    between atoms: C_25  and  C_28
REMARK    8  A    between atoms: C_25  and  C_29
REMARK    9  A    between atoms: C_27  and  C_30
REMARK                            x       y       z     vdW  Elec       q    Type
REMARK                         _______ _______ _______ _____ _____    ______ ____
ROOT
ATOM      1  N   UNL     1     -12.179  57.100  49.314  0.00  0.00    +0.000 N 
ATOM      2  C   UNL     1     -11.754  55.933  49.933  0.00  0.00    +0.000 C 
ATOM      3  O   UNL     1     -12.554  55.113  50.362  0.00  0.00    +0.000 OA
ATOM      4  N   UNL     1     -10.387  55.869  50.109  0.00  0.00    +0.000 N 
ATOM      5  H   UNL     1     -11.494  57.720  48.972  0.00  0.00    +0.000 HD
ATOM      6  H   UNL     1      -9.798  56.573  49.756  0.00  0.00    +0.000 HD
ENDROOT
BRANCH   4   7
ATOM      7  C   UNL     1      -9.868  54.787  50.797  0.00  0.00    +0.000 A 
ATOM      8  S   UNL     1      -9.921  54.915  52.490  0.00  0.00    +0.000 S 
ATOM      9  C   UNL     1      -9.353  53.583  50.350  0.00  0.00    +0.000 A 
ATOM     10  C   UNL     1      -9.515  53.268  52.670  0.00  0.00    +0.000 A 
ATOM     11  C   UNL     1      -9.236  52.661  51.457  0.00  0.00    +0.000 A 
ATOM     12  C   UNL     1      -9.473  52.583  54.013  0.00  0.00    +0.000 C 
ATOM     13  C   UNL     1      -8.799  51.228  51.373  0.00  0.00    +0.000 C 
ATOM     14  C   UNL     1      -8.638  51.268  53.943  0.00  0.00    +0.000 C 
ATOM     15  C   UNL     1      -9.039  50.467  52.678  0.00  0.00    +0.000 C 
ATOM     16  C   UNL     1      -8.924  50.381  55.169  0.00  0.00    +0.000 C 
ATOM     17  C   UNL     1      -7.132  51.596  53.933  0.00  0.00    +0.000 C 
BRANCH   9  18
ATOM     18  C   UNL     1      -9.008  53.339  48.948  0.00  0.00    +0.000 C 
ATOM     19  O   UNL     1      -7.864  53.108  48.571  0.00  0.00    +0.000 OA
BRANCH  18  20
ATOM     20  O   UNL     1     -10.093  53.395  48.132  0.00  0.00    +0.000 OA
BRANCH  20  21
ATOM     21  C   UNL     1      -9.866  53.762  46.768  0.00  0.00    +0.000 C 
ATOM     22  C   UNL     1      -9.751  55.270  46.663  0.00  0.00    +0.000 C 
ENDBRANCH  20  21
ENDBRANCH  18  20
ENDBRANCH   9  18
ENDBRANCH   4   7
BRANCH   1  23
ATOM     23  S   UNL     1     -13.783  57.512  49.115  0.00  0.00    +0.000 S 
ATOM     24  O   UNL     1     -14.482  56.411  48.500  0.00  0.00    +0.000 OA
ATOM     25  O   UNL     1     -13.764  58.820  48.491  0.00  0.00    +0.000 OA
BRANCH  23  26
ATOM     26  C   UNL     1     -14.394  57.748  50.773  0.00  0.00    +0.000 A 
ATOM     27  C   UNL     1     -14.165  58.966  51.425  0.00  0.00    +0.000 A 
ATOM     28  C   UNL     1     -15.130  56.731  51.393  0.00  0.00    +0.000 A 
ATOM     29  C   UNL     1     -14.661  59.156  52.716  0.00  0.00    +0.000 A 
ATOM     30  C   UNL     1     -15.630  56.936  52.682  0.00  0.00    +0.000 A 
ATOM     31  C   UNL     1     -15.391  58.143  53.330  0.00  0.00    +0.000 A 
ATOM     32  F   UNL     1     -15.867  58.332  54.570  0.00  0.00    +0.000 F 
ENDBRANCH  23  26
ENDBRANCH   1  23
TORSDOF 6
ENDMDL
MODEL 6
REMARK VINA RESULT:      -7.0      3.426      7.829
REMARK  Name = 
REMARK  9 active torsions:
REMARK  status: ('A' for Active; 'I' for Inactive)
REMARK    1  A    between atoms: S_1  and  N_4
REMARK    2  A    between atoms: S_1  and  C_5
REMARK    3  A    between atoms: N_10  and  C_13
REMARK    4  A    between atoms: C_16  and  C_20
REMARK    5  A    between atoms: C_20  and  O_24
REMARK    6  A    between atoms: O_24  and  C_27
REMARK    7  A    between atoms: C_25  and  C_28
REMARK    8  A    between atoms: C_25  and  C_29
REMARK    9  A    between atoms: C_27  and  C_30
REMARK                            x       y       z     vdW  Elec       q    Type
REMARK                         _______ _______ _______ _____ _____    ______ ____
ROOT
ATOM      1  N   UNL     1      -8.231  52.842  49.255  0.00  0.00    +0.000 N 
ATOM      2  C   UNL     1      -9.162  53.858  49.414  0.00  0.00    +0.000 C 
ATOM      3  O   UNL     1      -8.815  55.022  49.559  0.00  0.00    +0.000 OA
ATOM      4  N   UNL     1     -10.462  53.405  49.510  0.00  0.00    +0.000 N 
ATOM      5  H   UNL     1      -8.564  51.924  49.126  0.00  0.00    +0.000 HD
ATOM      6  H   UNL     1     -10.674  52.451  49.404  0.00  0.00    +0.000 HD
ENDROOT
BRANCH   4   7
ATOM      7  C   UNL     1     -11.459  54.331  49.760  0.00  0.00    +0.000 A 
ATOM      8  S   UNL     1     -11.926  54.466  51.388  0.00  0.00    +0.000 S 
ATOM      9  C   UNL     1     -12.118  55.212  48.922  0.00  0.00    +0.000 A 
ATOM     10  C   UNL     1     -12.815  55.884  51.059  0.00  0.00    +0.000 A 
ATOM     11  C   UNL     1     -12.843  56.185  49.707  0.00  0.00    +0.000 A 
ATOM     12  C   UNL     1     -13.482  56.695  52.142  0.00  0.00    +0.000 C 
ATOM     13  C   UNL     1     -13.613  57.356  49.175  0.00  0.00    +0.000 C 
ATOM     14  C   UNL     1     -14.583  57.624  51.545  0.00  0.00    +0.000 C 
ATOM     15  C   UNL     1     -14.036  58.328  50.278  0.00  0.00    +0.000 C 
ATOM     16  C   UNL     1     -14.974  58.717  52.557  0.00  0.00    +0.000 C 
ATOM     17  C   UNL     1     -15.847  56.805  51.217  0.00  0.00    +0.000 C 
BRANCH   9  18
ATOM     18  C   UNL     1     -12.042  55.126  47.462  0.00  0.00    +0.000 C 
ATOM     19  O   UNL     1     -12.096  56.108  46.730  0.00  0.00    +0.000 OA
BRANCH  18  20
ATOM     20  O   UNL     1     -11.900  53.846  47.027  0.00  0.00    +0.000 OA
BRANCH  20  21
ATOM     21  C   UNL     1     -11.523  53.658  45.660  0.00  0.00    +0.000 C 
ATOM     22  C   UNL     1     -11.493  52.176  45.343  0.00  0.00    +0.000 C 
ENDBRANCH  20  21
ENDBRANCH  18  20
ENDBRANCH   9  18
ENDBRANCH   4   7
BRANCH   1  23
ATOM     23  S   UNL     1      -6.581  53.087  49.267  0.00  0.00    +0.000 S 
ATOM     24  O   UNL     1      -6.272  54.264  48.493  0.00  0.00    +0.000 OA
ATOM     25  O   UNL     1      -6.004  51.802  48.925  0.00  0.00    +0.000 OA
BRANCH  23  26
ATOM     26  C   UNL     1      -6.185  53.383  50.979  0.00  0.00    +0.000 A 
ATOM     27  C   UNL     1      -5.065  54.158  51.303  0.00  0.00    +0.000 A 
ATOM     28  C   UNL     1      -7.016  52.871  51.983  0.00  0.00    +0.000 A 
ATOM     29  C   UNL     1      -4.767  54.406  52.644  0.00  0.00    +0.000 A 
ATOM     30  C   UNL     1      -6.713  53.133  53.322  0.00  0.00    +0.000 A 
ATOM     31  C   UNL     1      -5.594  53.895  53.640  0.00  0.00    +0.000 A 
ATOM     32  F   UNL     1      -5.304  54.137  54.927  0.00  0.00    +0.000 F 
ENDBRANCH  23  26
ENDBRANCH   1  23
TORSDOF 6
ENDMDL
MODEL 7
REMARK VINA RESULT:      -6.6      4.592      8.082
REMARK  Name = 
REMARK  9 active torsions:
REMARK  status: ('A' for Active; 'I' for Inactive)
REMARK    1  A    between atoms: S_1  and  N_4
REMARK    2  A    between atoms: S_1  and  C_5
REMARK    3  A    between atoms: N_10  and  C_13
REMARK    4  A    between atoms: C_16  and  C_20
REMARK    5  A    between atoms: C_20  and  O_24
REMARK    6  A    between atoms: O_24  and  C_27
REMARK    7  A    between atoms: C_25  and  C_28
REMARK    8  A    between atoms: C_25  and  C_29
REMARK    9  A    between atoms: C_27  and  C_30
REMARK                            x       y       z     vdW  Elec       q    Type
REMARK                         _______ _______ _______ _____ _____    ______ ____
ROOT
ATOM      1  N   UNL     1     -10.635  53.982  45.108  0.00  0.00    +0.000 N 
ATOM      2  C   UNL     1     -11.155  54.278  46.359  0.00  0.00    +0.000 C 
ATOM      3  O   UNL     1     -11.675  53.414  47.052  0.00  0.00    +0.000 OA
ATOM      4  N   UNL     1     -11.129  55.623  46.664  0.00  0.00    +0.000 N 
ATOM      5  H   UNL     1     -10.212  54.711  44.597  0.00  0.00    +0.000 HD
ATOM      6  H   UNL     1     -10.712  56.272  46.053  0.00  0.00    +0.000 HD
ENDROOT
BRANCH   4   7
ATOM      7  C   UNL     1     -11.705  56.035  47.852  0.00  0.00    +0.000 A 
ATOM      8  S   UNL     1     -13.337  56.495  47.740  0.00  0.00    +0.000 S 
ATOM      9  C   UNL     1     -11.202  56.094  49.139  0.00  0.00    +0.000 A 
ATOM     10  C   UNL     1     -13.490  56.521  49.439  0.00  0.00    +0.000 A 
ATOM     11  C   UNL     1     -12.283  56.290  50.078  0.00  0.00    +0.000 A 
ATOM     12  C   UNL     1     -14.805  56.771  50.133  0.00  0.00    +0.000 C 
ATOM     13  C   UNL     1     -12.162  56.322  51.573  0.00  0.00    +0.000 C 
ATOM     14  C   UNL     1     -14.581  57.205  51.614  0.00  0.00    +0.000 C 
ATOM     15  C   UNL     1     -13.523  56.282  52.270  0.00  0.00    +0.000 C 
ATOM     16  C   UNL     1     -15.886  57.070  52.421  0.00  0.00    +0.000 C 
ATOM     17  C   UNL     1     -14.136  58.680  51.672  0.00  0.00    +0.000 C 
BRANCH   9  18
ATOM     18  C   UNL     1      -9.775  55.959  49.440  0.00  0.00    +0.000 C 
ATOM     19  O   UNL     1      -9.092  56.883  49.868  0.00  0.00    +0.000 OA
BRANCH  18  20
ATOM     20  O   UNL     1      -9.312  54.705  49.195  0.00  0.00    +0.000 OA
BRANCH  20  21
ATOM     21  C   UNL     1      -9.762  53.662  50.065  0.00  0.00    +0.000 C 
ATOM     22  C   UNL     1      -9.338  52.319  49.504  0.00  0.00    +0.000 C 
ENDBRANCH  20  21
ENDBRANCH  18  20
ENDBRANCH   9  18
ENDBRANCH   4   7
BRANCH   1  23
ATOM     23  S   UNL     1     -10.682  52.464  44.419  0.00  0.00    +0.000 S 
ATOM     24  O   UNL     1     -10.217  52.547  43.057  0.00  0.00    +0.000 OA
ATOM     25  O   UNL     1     -12.003  51.950  44.722  0.00  0.00    +0.000 OA
BRANCH  23  26
ATOM     26  C   UNL     1      -9.530  51.501  45.380  0.00  0.00    +0.000 A 
ATOM     27  C   UNL     1      -8.213  51.952  45.533  0.00  0.00    +0.000 A 
ATOM     28  C   UNL     1      -9.960  50.323  46.003  0.00  0.00    +0.000 A 
ATOM     29  C   UNL     1      -7.318  51.207  46.302  0.00  0.00    +0.000 A 
ATOM     30  C   UNL     1      -9.057  49.590  46.778  0.00  0.00    +0.000 A 
ATOM     31  C   UNL     1      -7.748  50.036  46.920  0.00  0.00    +0.000 A 
ATOM     32  F   UNL     1      -6.883  49.325  47.658  0.00  0.00    +0.000 F 
ENDBRANCH  23  26
ENDBRANCH   1  23
TORSDOF 6
ENDMDL
MODEL 8
REMARK VINA RESULT:      -6.6      4.215      8.470
REMARK  Name = 
REMARK  9 active torsions:
REMARK  status: ('A' for Active; 'I' for Inactive)
REMARK    1  A    between atoms: S_1  and  N_4
REMARK    2  A    between atoms: S_1  and  C_5
REMARK    3  A    between atoms: N_10  and  C_13
REMARK    4  A    between atoms: C_16  and  C_20
REMARK    5  A    between atoms: C_20  and  O_24
REMARK    6  A    between atoms: O_24  and  C_27
REMARK    7  A    between atoms: C_25  and  C_28
REMARK    8  A    between atoms: C_25  and  C_29
REMARK    9  A    between atoms: C_27  and  C_30
REMARK                            x       y       z     vdW  Elec       q    Type
REMARK                         _______ _______ _______ _____ _____    ______ ____
ROOT
ATOM      1  N   UNL     1      -8.226  53.284  49.387  0.00  0.00    +0.000 N 
ATOM      2  C   UNL     1      -9.187  54.255  49.625  0.00  0.00    +0.000 C 
ATOM      3  O   UNL     1      -8.877  55.378  49.999  0.00  0.00    +0.000 OA
ATOM      4  N   UNL     1     -10.481  53.789  49.516  0.00  0.00    +0.000 N 
ATOM      5  H   UNL     1      -8.526  52.400  49.072  0.00  0.00    +0.000 HD
ATOM      6  H   UNL     1     -10.663  52.866  49.229  0.00  0.00    +0.000 HD
ENDROOT
BRANCH   4   7
ATOM      7  C   UNL     1     -11.515  54.656  49.821  0.00  0.00    +0.000 A 
ATOM      8  S   UNL     1     -11.932  54.730  51.466  0.00  0.00    +0.000 S 
ATOM      9  C   UNL     1     -12.246  55.521  49.027  0.00  0.00    +0.000 A 
ATOM     10  C   UNL     1     -12.903  56.107  51.202  0.00  0.00    +0.000 A 
ATOM     11  C   UNL     1     -12.993  56.436  49.859  0.00  0.00    +0.000 A 
ATOM     12  C   UNL     1     -13.574  56.857  52.325  0.00  0.00    +0.000 C 
ATOM     13  C   UNL     1     -13.840  57.578  49.381  0.00  0.00    +0.000 C 
ATOM     14  C   UNL     1     -14.741  57.740  51.788  0.00  0.00    +0.000 C 
ATOM     15  C   UNL     1     -14.274  58.501  50.521  0.00  0.00    +0.000 C 
ATOM     16  C   UNL     1     -15.152  58.789  52.839  0.00  0.00    +0.000 C 
ATOM     17  C   UNL     1     -15.972  56.865  51.483  0.00  0.00    +0.000 C 
BRANCH   9  18
ATOM     18  C   UNL     1     -12.216  55.471  47.563  0.00  0.00    +0.000 C 
ATOM     19  O   UNL     1     -12.292  56.471  46.858  0.00  0.00    +0.000 OA
BRANCH  18  20
ATOM     20  O   UNL     1     -12.089  54.202  47.092  0.00  0.00    +0.000 OA
BRANCH  20  21
ATOM     21  C   UNL     1     -11.443  54.037  45.826  0.00  0.00    +0.000 C 
ATOM     22  C   UNL     1      -9.942  53.996  46.027  0.00  0.00    +0.000 C 
ENDBRANCH  20  21
ENDBRANCH  18  20
ENDBRANCH   9  18
ENDBRANCH   4   7
BRANCH   1  23
ATOM     23  S   UNL     1      -6.589  53.527  49.601  0.00  0.00    +0.000 S 
ATOM     24  O   UNL     1      -6.251  53.282  50.981  0.00  0.00    +0.000 OA
ATOM     25  O   UNL     1      -6.312  54.810  48.986  0.00  0.00    +0.000 OA
BRANCH  23  26
ATOM     26  C   UNL     1      -5.815  52.293  48.574  0.00  0.00    +0.000 A 
ATOM     27  C   UNL     1      -6.598  51.283  48.001  0.00  0.00    +0.000 A 
ATOM     28  C   UNL     1      -4.440  52.365  48.318  0.00  0.00    +0.000 A 
ATOM     29  C   UNL     1      -5.993  50.328  47.181  0.00  0.00    +0.000 A 
ATOM     30  C   UNL     1      -3.847  51.409  47.489  0.00  0.00    +0.000 A 
ATOM     31  C   UNL     1      -4.626  50.402  46.930  0.00  0.00    +0.000 A 
ATOM     32  F   UNL     1      -4.051  49.483  46.140  0.00  0.00    +0.000 F 
ENDBRANCH  23  26
ENDBRANCH   1  23
TORSDOF 6
ENDMDL
MODEL 9
REMARK VINA RESULT:      -6.5      3.744      8.021
REMARK  Name = 
REMARK  9 active torsions:
REMARK  status: ('A' for Active; 'I' for Inactive)
REMARK    1  A    between atoms: S_1  and  N_4
REMARK    2  A    between atoms: S_1  and  C_5
REMARK    3  A    between atoms: N_10  and  C_13
REMARK    4  A    between atoms: C_16  and  C_20
REMARK    5  A    between atoms: C_20  and  O_24
REMARK    6  A    between atoms: O_24  and  C_27
REMARK    7  A    between atoms: C_25  and  C_28
REMARK    8  A    between atoms: C_25  and  C_29
REMARK    9  A    between atoms: C_27  and  C_30
REMARK                            x       y       z     vdW  Elec       q    Type
REMARK                         _______ _______ _______ _____ _____    ______ ____
ROOT
ATOM      1  N   UNL     1      -8.461  52.578  50.588  0.00  0.00    +0.000 N 
ATOM      2  C   UNL     1      -9.665  53.210  50.861  0.00  0.00    +0.000 C 
ATOM      3  O   UNL     1     -10.606  52.602  51.353  0.00  0.00    +0.000 OA
ATOM      4  N   UNL     1      -9.717  54.515  50.416  0.00  0.00    +0.000 N 
ATOM      5  H   UNL     1      -7.730  53.116  50.206  0.00  0.00    +0.000 HD
ATOM      6  H   UNL     1      -8.929  54.941  50.009  0.00  0.00    +0.000 HD
ENDROOT
BRANCH   4   7
ATOM      7  C   UNL     1     -10.906  55.207  50.558  0.00  0.00    +0.000 A 
ATOM      8  S   UNL     1     -11.462  55.365  52.156  0.00  0.00    +0.000 S 
ATOM      9  C   UNL     1     -11.708  55.845  49.630  0.00  0.00    +0.000 A 
ATOM     10  C   UNL     1     -12.630  56.513  51.682  0.00  0.00    +0.000 A 
ATOM     11  C   UNL     1     -12.666  56.688  50.308  0.00  0.00    +0.000 A 
ATOM     12  C   UNL     1     -13.508  57.237  52.672  0.00  0.00    +0.000 C 
ATOM     13  C   UNL     1     -13.655  57.607  49.655  0.00  0.00    +0.000 C 
ATOM     14  C   UNL     1     -14.762  57.840  51.969  0.00  0.00    +0.000 C 
ATOM     15  C   UNL     1     -14.332  58.545  50.657  0.00  0.00    +0.000 C 
ATOM     16  C   UNL     1     -15.431  58.895  52.870  0.00  0.00    +0.000 C 
ATOM     17  C   UNL     1     -15.795  56.732  51.685  0.00  0.00    +0.000 C 
BRANCH   9  18
ATOM     18  C   UNL     1     -11.551  55.660  48.186  0.00  0.00    +0.000 C 
ATOM     19  O   UNL     1     -12.499  55.497  47.425  0.00  0.00    +0.000 OA
BRANCH  18  20
ATOM     20  O   UNL     1     -10.249  55.695  47.799  0.00  0.00    +0.000 OA
BRANCH  20  21
ATOM     21  C   UNL     1      -9.899  54.974  46.613  0.00  0.00    +0.000 C 
ATOM     22  C   UNL     1      -8.394  54.984  46.441  0.00  0.00    +0.000 C 
ENDBRANCH  20  21
ENDBRANCH  18  20
ENDBRANCH   9  18
ENDBRANCH   4   7
BRANCH   1  23
ATOM     23  S   UNL     1      -8.179  50.959  50.873  0.00  0.00    +0.000 S 
ATOM     24  O   UNL     1      -6.846  50.627  50.435  0.00  0.00    +0.000 OA
ATOM     25  O   UNL     1      -9.331  50.270  50.327  0.00  0.00    +0.000 OA
BRANCH  23  26
ATOM     26  C   UNL     1      -8.278  50.791  52.645  0.00  0.00    +0.000 A 
ATOM     27  C   UNL     1      -9.080  49.785  53.198  0.00  0.00    +0.000 A 
ATOM     28  C   UNL     1      -7.526  51.640  53.466  0.00  0.00    +0.000 A 
ATOM     29  C   UNL     1      -9.141  49.643  54.585  0.00  0.00    +0.000 A 
ATOM     30  C   UNL     1      -7.588  51.482  54.853  0.00  0.00    +0.000 A 
ATOM     31  C   UNL     1      -8.393  50.488  55.399  0.00  0.00    +0.000 A 
ATOM     32  F   UNL     1      -8.455  50.346  56.731  0.00  0.00    +0.000 F 
ENDBRANCH  23  26
ENDBRANCH   1  23
TORSDOF 6
ENDMDL
