MODEL 1
REMARK VINA RESULT:      -7.8      0.000      0.000
REMARK  Name = 
REMARK  9 active torsions:
REMARK  status: ('A' for Active; 'I' for Inactive)
REMARK    1  A    between atoms: S_1  and  N_4
REMARK    2  A    between atoms: S_1  and  C_5
REMARK    3  A    between atoms: N_10  and  C_13
REMARK    4  A    between atoms: C_16  and  C_19
REMARK    5  A    between atoms: C_19  and  O_23
REMARK    6  A    between atoms: O_23  and  C_26
REMARK    7  A    between atoms: C_24  and  C_27
REMARK    8  A    between atoms: C_24  and  C_28
REMARK    9  A    between atoms: C_26  and  C_29
REMARK                            x       y       z     vdW  Elec       q    Type
REMARK                         _______ _______ _______ _____ _____    ______ ____
ROOT
ATOM      1  C   UNL     1     -10.930  54.467  51.495  0.00  0.00    +0.000 A 
ATOM      2  S   UNL     1     -10.550  53.728  52.976  0.00  0.00    +0.000 S 
ATOM      3  C   UNL     1      -9.837  55.046  50.869  0.00  0.00    +0.000 A 
ATOM      4  C   UNL     1      -8.880  53.896  52.681  0.00  0.00    +0.000 A 
ATOM      5  C   UNL     1      -8.623  54.606  51.520  0.00  0.00    +0.000 A 
ATOM      6  C   UNL     1      -7.833  53.325  53.604  0.00  0.00    +0.000 C 
ATOM      7  C   UNL     1      -7.223  54.920  51.077  0.00  0.00    +0.000 C 
ATOM      8  C   UNL     1      -6.444  53.987  53.354  0.00  0.00    +0.000 C 
ATOM      9  C   UNL     1      -6.181  54.078  51.826  0.00  0.00    +0.000 C 
ATOM     10  C   UNL     1      -5.326  53.135  53.983  0.00  0.00    +0.000 C 
ATOM     11  C   UNL     1      -6.396  55.384  54.005  0.00  0.00    +0.000 C 
ENDROOT
BRANCH   1  15
ATOM     12  N   UNL     1     -14.417  55.226  51.131  0.00  0.00    +0.000 N 
ATOM     13  C   UNL     1     -13.095  55.408  51.506  0.00  0.00    +0.000 C 
ATOM     14  O   UNL     1     -12.726  56.426  52.071  0.00  0.00    +0.000 OA
ATOM     15  N   UNL     1     -12.258  54.379  51.125  0.00  0.00    +0.000 N 
ATOM     16  H   UNL     1     -14.694  54.364  50.746  0.00  0.00    +0.000 HD
ATOM     17  H   UNL     1     -12.594  53.612  50.609  0.00  0.00    +0.000 HD
BRANCH  12  18
ATOM     18  S   UNL     1     -15.561  56.445  51.321  0.00  0.00    +0.000 S 
ATOM     19  O   UNL     1     -15.707  56.697  52.741  0.00  0.00    +0.000 OA
ATOM     20  O   UNL     1     -16.710  56.000  50.549  0.00  0.00    +0.000 OA
BRANCH  18  21
ATOM     21  C   UNL     1     -14.835  57.872  50.483  0.00  0.00    +0.000 A 
ATOM     22  N   UNL     1     -14.334  57.624  49.245  0.00  0.00    +0.000 NA
ATOM     23  N   UNL     1     -14.825  59.045  51.150  0.00  0.00    +0.000 NA
ATOM     24  C   UNL     1     -13.808  58.703  48.632  0.00  0.00    +0.000 A 
ATOM     25  C   UNL     1     -14.236  60.059  50.495  0.00  0.00    +0.000 A 
ATOM     26  C   UNL     1     -13.720  59.948  49.223  0.00  0.00    +0.000 A 
ENDBRANCH  18  21
ENDBRANCH  12  18
ENDBRANCH   1  15
BRANCH   3  27
ATOM     27  C   UNL     1      -9.907  56.001  49.749  0.00  0.00    +0.000 C 
ATOM     28  O   UNL     1      -9.206  57.003  49.675  0.00  0.00    +0.000 OA
BRANCH  27  29
ATOM     29  O   UNL     1     -10.943  55.733  48.902  0.00  0.00    +0.000 OA
BRANCH  29  30
ATOM     30  C   UNL     1     -10.630  55.321  47.567  0.00  0.00    +0.000 C 
ATOM     31  C   UNL     1     -11.760  55.654  46.616  0.00  0.00    +0.000 C 
ENDBRANCH  29  30
ENDBRANCH  27  29
ENDBRANCH   3  27
TORSDOF 6
ENDMDL
MODEL 2
REMARK VINA RESULT:      -7.7      3.091      7.647
REMARK  Name = 
REMARK  9 active torsions:
REMARK  status: ('A' for Active; 'I' for Inactive)
REMARK    1  A    between atoms: S_1  and  N_4
REMARK    2  A    between atoms: S_1  and  C_5
REMARK    3  A    between atoms: N_10  and  C_13
REMARK    4  A    between atoms: C_16  and  C_19
REMARK    5  A    between atoms: C_19  and  O_23
REMARK    6  A    between atoms: O_23  and  C_26
REMARK    7  A    between atoms: C_24  and  C_27
REMARK    8  A    between atoms: C_24  and  C_28
REMARK    9  A    between atoms: C_26  and  C_29
REMARK                            x       y       z     vdW  Elec       q    Type
REMARK                         _______ _______ _______ _____ _____    ______ ____
ROOT
ATOM      1  C   UNL     1     -11.020  54.797  50.115  0.00  0.00    +0.000 A 
ATOM      2  S   UNL     1     -11.713  54.777  51.666  0.00  0.00    +0.000 S 
ATOM      3  C   UNL     1     -11.639  55.680  49.243  0.00  0.00    +0.000 A 
ATOM      4  C   UNL     1     -12.657  56.150  51.309  0.00  0.00    +0.000 A 
ATOM      5  C   UNL     1     -12.524  56.547  49.989  0.00  0.00    +0.000 A 
ATOM      6  C   UNL     1     -13.527  56.825  52.339  0.00  0.00    +0.000 C 
ATOM      7  C   UNL     1     -13.296  57.707  49.429  0.00  0.00    +0.000 C 
ATOM      8  C   UNL     1     -14.590  57.742  51.661  0.00  0.00    +0.000 C 
ATOM      9  C   UNL     1     -13.916  58.572  50.534  0.00  0.00    +0.000 C 
ATOM     10  C   UNL     1     -15.182  58.722  52.690  0.00  0.00    +0.000 C 
ATOM     11  C   UNL     1     -15.747  56.890  51.101  0.00  0.00    +0.000 C 
ENDROOT
BRANCH   1  15
ATOM     12  N   UNL     1      -7.661  53.543  50.009  0.00  0.00    +0.000 N 
ATOM     13  C   UNL     1      -8.689  54.442  50.239  0.00  0.00    +0.000 C 
ATOM     14  O   UNL     1      -8.476  55.548  50.714  0.00  0.00    +0.000 OA
ATOM     15  N   UNL     1      -9.944  53.948  49.948  0.00  0.00    +0.000 N 
ATOM     16  H   UNL     1      -7.859  52.692  49.556  0.00  0.00    +0.000 HD
ATOM     17  H   UNL     1     -10.068  53.024  49.634  0.00  0.00    +0.000 HD
BRANCH  12  18
ATOM     18  S   UNL     1      -6.080  53.872  50.482  0.00  0.00    +0.000 S 
ATOM     19  O   UNL     1      -5.736  55.191  49.989  0.00  0.00    +0.000 OA
ATOM     20  O   UNL     1      -5.312  52.719  50.040  0.00  0.00    +0.000 OA
BRANCH  18  21
ATOM     21  C   UNL     1      -6.142  53.852  52.288  0.00  0.00    +0.000 A 
ATOM     22  N   UNL     1      -5.486  54.870  52.902  0.00  0.00    +0.000 NA
ATOM     23  N   UNL     1      -6.801  52.830  52.873  0.00  0.00    +0.000 NA
ATOM     24  C   UNL     1      -5.554  54.842  54.247  0.00  0.00    +0.000 A 
ATOM     25  C   UNL     1      -6.778  52.844  54.217  0.00  0.00    +0.000 A 
ATOM     26  C   UNL     1      -6.179  53.838  54.959  0.00  0.00    +0.000 A 
ENDBRANCH  18  21
ENDBRANCH  12  18
ENDBRANCH   1  15
BRANCH   3  27
ATOM     27  C   UNL     1     -11.461  55.694  47.781  0.00  0.00    +0.000 C 
ATOM     28  O   UNL     1     -12.392  55.597  46.989  0.00  0.00    +0.000 OA
BRANCH  27  29
ATOM     29  O   UNL     1     -10.146  55.659  47.417  0.00  0.00    +0.000 OA
BRANCH  29  30
ATOM     30  C   UNL     1      -9.746  54.700  46.433  0.00  0.00    +0.000 C 
ATOM     31  C   UNL     1      -8.307  54.919  46.014  0.00  0.00    +0.000 C 
ENDBRANCH  29  30
ENDBRANCH  27  29
ENDBRANCH   3  27
TORSDOF 6
ENDMDL
MODEL 3
REMARK VINA RESULT:      -7.0      3.936      7.487
REMARK  Name = 
REMARK  9 active torsions:
REMARK  status: ('A' for Active; 'I' for Inactive)
REMARK    1  A    between atoms: S_1  and  N_4
REMARK    2  A    between atoms: S_1  and  C_5
REMARK    3  A    between atoms: N_10  and  C_13
REMARK    4  A    between atoms: C_16  and  C_19
REMARK    5  A    between atoms: C_19  and  O_23
REMARK    6  A    between atoms: O_23  and  C_26
REMARK    7  A    between atoms: C_24  and  C_27
REMARK    8  A    between atoms: C_24  and  C_28
REMARK    9  A    between atoms: C_26  and  C_29
REMARK                            x       y       z     vdW  Elec       q    Type
REMARK                         _______ _______ _______ _____ _____    ______ ____
ROOT
ATOM      1  C   UNL     1      -8.717  55.004  47.197  0.00  0.00    +0.000 A 
ATOM      2  S   UNL     1      -7.493  54.265  46.279  0.00  0.00    +0.000 S 
ATOM      3  C   UNL     1      -9.997  54.710  46.752  0.00  0.00    +0.000 A 
ATOM      4  C   UNL     1      -8.633  53.300  45.458  0.00  0.00    +0.000 A 
ATOM      5  C   UNL     1      -9.936  53.621  45.803  0.00  0.00    +0.000 A 
ATOM      6  C   UNL     1      -8.231  52.232  44.473  0.00  0.00    +0.000 C 
ATOM      7  C   UNL     1     -11.114  52.935  45.173  0.00  0.00    +0.000 C 
ATOM      8  C   UNL     1      -9.430  51.827  43.562  0.00  0.00    +0.000 C 
ATOM      9  C   UNL     1     -10.706  51.656  44.432  0.00  0.00    +0.000 C 
ATOM     10  C   UNL     1      -9.141  50.485  42.865  0.00  0.00    +0.000 C 
ATOM     11  C   UNL     1      -9.648  52.891  42.468  0.00  0.00    +0.000 C 
ENDROOT
BRANCH   1  15
ATOM     12  N   UNL     1      -7.680  56.008  50.480  0.00  0.00    +0.000 N 
ATOM     13  C   UNL     1      -8.095  55.157  49.469  0.00  0.00    +0.000 C 
ATOM     14  O   UNL     1      -8.230  53.958  49.659  0.00  0.00    +0.000 OA
ATOM     15  N   UNL     1      -8.267  55.778  48.249  0.00  0.00    +0.000 N 
ATOM     16  H   UNL     1      -7.654  56.978  50.313  0.00  0.00    +0.000 HD
ATOM     17  H   UNL     1      -8.077  56.736  48.132  0.00  0.00    +0.000 HD
BRANCH  12  18
ATOM     18  S   UNL     1      -7.222  55.424  51.990  0.00  0.00    +0.000 S 
ATOM     19  O   UNL     1      -7.024  56.562  52.864  0.00  0.00    +0.000 OA
ATOM     20  O   UNL     1      -6.111  54.525  51.720  0.00  0.00    +0.000 OA
BRANCH  18  21
ATOM     21  C   UNL     1      -8.632  54.431  52.530  0.00  0.00    +0.000 A 
ATOM     22  N   UNL     1      -8.324  53.198  53.007  0.00  0.00    +0.000 NA
ATOM     23  N   UNL     1      -9.860  54.974  52.395  0.00  0.00    +0.000 NA
ATOM     24  C   UNL     1      -9.388  52.478  53.414  0.00  0.00    +0.000 A 
ATOM     25  C   UNL     1     -10.873  54.175  52.774  0.00  0.00    +0.000 A 
ATOM     26  C   UNL     1     -10.693  52.917  53.305  0.00  0.00    +0.000 A 
ENDBRANCH  18  21
ENDBRANCH  12  18
ENDBRANCH   1  15
BRANCH   3  27
ATOM     27  C   UNL     1     -11.219  55.431  47.147  0.00  0.00    +0.000 C 
ATOM     28  O   UNL     1     -11.941  56.019  46.350  0.00  0.00    +0.000 OA
BRANCH  27  29
ATOM     29  O   UNL     1     -11.362  55.508  48.503  0.00  0.00    +0.000 OA
BRANCH  29  30
ATOM     30  C   UNL     1     -12.420  54.758  49.110  0.00  0.00    +0.000 C 
ATOM     31  C   UNL     1     -12.031  53.304  49.273  0.00  0.00    +0.000 C 
ENDBRANCH  29  30
ENDBRANCH  27  29
ENDBRANCH   3  27
TORSDOF 6
ENDMDL
MODEL 4
REMARK VINA RESULT:      -7.0      2.397      3.153
REMARK  Name = 
REMARK  9 active torsions:
REMARK  status: ('A' for Active; 'I' for Inactive)
REMARK    1  A    between atoms: S_1  and  N_4
REMARK    2  A    between atoms: S_1  and  C_5
REMARK    3  A    between atoms: N_10  and  C_13
REMARK    4  A    between atoms: C_16  and  C_19
REMARK    5  A    between atoms: C_19  and  O_23
REMARK    6  A    between atoms: O_23  and  C_26
REMARK    7  A    between atoms: C_24  and  C_27
REMARK    8  A    between atoms: C_24  and  C_28
REMARK    9  A    between atoms: C_26  and  C_29
REMARK                            x       y       z     vdW  Elec       q    Type
REMARK                         _______ _______ _______ _____ _____    ______ ____
ROOT
ATOM      1  C   UNL     1     -10.055  54.921  50.593  0.00  0.00    +0.000 A 
ATOM      2  S   UNL     1      -9.793  55.025  52.268  0.00  0.00    +0.000 S 
ATOM      3  C   UNL     1      -9.736  53.682  50.058  0.00  0.00    +0.000 A 
ATOM      4  C   UNL     1      -9.536  53.343  52.375  0.00  0.00    +0.000 A 
ATOM      5  C   UNL     1      -9.541  52.733  51.132  0.00  0.00    +0.000 A 
ATOM      6  C   UNL     1      -9.327  52.638  53.691  0.00  0.00    +0.000 C 
ATOM      7  C   UNL     1      -9.289  51.262  50.971  0.00  0.00    +0.000 C 
ATOM      8  C   UNL     1      -8.687  51.232  53.480  0.00  0.00    +0.000 C 
ATOM      9  C   UNL     1      -9.399  50.510  52.304  0.00  0.00    +0.000 C 
ATOM     10  C   UNL     1      -8.858  50.372  54.745  0.00  0.00    +0.000 C 
ATOM     11  C   UNL     1      -7.176  51.374  53.206  0.00  0.00    +0.000 C 
ENDROOT
BRANCH   1  15
ATOM     12  N   UNL     1     -12.328  57.318  49.196  0.00  0.00    +0.000 N 
ATOM     13  C   UNL     1     -11.915  56.153  49.821  0.00  0.00    +0.000 C 
ATOM     14  O   UNL     1     -12.718  55.319  50.211  0.00  0.00    +0.000 OA
ATOM     15  N   UNL     1     -10.551  56.071  50.010  0.00  0.00    +0.000 N 
ATOM     16  H   UNL     1     -11.653  57.933  48.828  0.00  0.00    +0.000 HD
ATOM     17  H   UNL     1      -9.953  56.804  49.740  0.00  0.00    +0.000 HD
BRANCH  12  18
ATOM     18  S   UNL     1     -13.958  57.708  49.048  0.00  0.00    +0.000 S 
ATOM     19  O   UNL     1     -14.616  56.608  48.372  0.00  0.00    +0.000 OA
ATOM     20  O   UNL     1     -13.971  59.031  48.444  0.00  0.00    +0.000 OA
BRANCH  18  21
ATOM     21  C   UNL     1     -14.537  57.859  50.753  0.00  0.00    +0.000 A 
ATOM     22  N   UNL     1     -14.169  59.000  51.391  0.00  0.00    +0.000 NA
ATOM     23  N   UNL     1     -15.254  56.833  51.257  0.00  0.00    +0.000 NA
ATOM     24  C   UNL     1     -14.620  59.098  52.657  0.00  0.00    +0.000 A 
ATOM     25  C   UNL     1     -15.621  56.982  52.542  0.00  0.00    +0.000 A 
ATOM     26  C   UNL     1     -15.342  58.105  53.289  0.00  0.00    +0.000 A 
ENDBRANCH  18  21
ENDBRANCH  12  18
ENDBRANCH   1  15
BRANCH   3  27
ATOM     27  C   UNL     1      -9.572  53.394  48.623  0.00  0.00    +0.000 C 
ATOM     28  O   UNL     1      -8.479  53.268  48.083  0.00  0.00    +0.000 OA
BRANCH  27  29
ATOM     29  O   UNL     1     -10.755  53.448  47.944  0.00  0.00    +0.000 OA
BRANCH  29  30
ATOM     30  C   UNL     1     -10.724  53.864  46.574  0.00  0.00    +0.000 C 
ATOM     31  C   UNL     1     -11.572  55.100  46.362  0.00  0.00    +0.000 C 
ENDBRANCH  29  30
ENDBRANCH  27  29
ENDBRANCH   3  27
TORSDOF 6
ENDMDL
MODEL 5
REMARK VINA RESULT:      -6.9      2.319      2.968
REMARK  Name = 
REMARK  9 active torsions:
REMARK  status: ('A' for Active; 'I' for Inactive)
REMARK    1  A    between atoms: S_1  and  N_4
REMARK    2  A    between atoms: S_1  and  C_5
REMARK    3  A    between atoms: N_10  and  C_13
REMARK    4  A    between atoms: C_16  and  C_19
REMARK    5  A    between atoms: C_19  and  O_23
REMARK    6  A    between atoms: O_23  and  C_26
REMARK    7  A    between atoms: C_24  and  C_27
REMARK    8  A    between atoms: C_24  and  C_28
REMARK    9  A    between atoms: C_26  and  C_29
REMARK                            x       y       z     vdW  Elec       q    Type
REMARK                         _______ _______ _______ _____ _____    ______ ____
ROOT
ATOM      1  C   UNL     1      -8.446  55.738  49.908  0.00  0.00    +0.000 A 
ATOM      2  S   UNL     1      -7.900  56.062  51.484  0.00  0.00    +0.000 S 
ATOM      3  C   UNL     1      -7.758  54.708  49.285  0.00  0.00    +0.000 A 
ATOM      4  C   UNL     1      -6.943  54.652  51.488  0.00  0.00    +0.000 A 
ATOM      5  C   UNL     1      -6.956  54.007  50.264  0.00  0.00    +0.000 A 
ATOM      6  C   UNL     1      -6.180  54.195  52.706  0.00  0.00    +0.000 C 
ATOM      7  C   UNL     1      -6.150  52.765  50.013  0.00  0.00    +0.000 C 
ATOM      8  C   UNL     1      -5.069  53.171  52.322  0.00  0.00    +0.000 C 
ATOM      9  C   UNL     1      -5.645  52.135  51.318  0.00  0.00    +0.000 C 
ATOM     10  C   UNL     1      -4.587  52.412  53.571  0.00  0.00    +0.000 C 
ATOM     11  C   UNL     1      -3.856  53.907  51.718  0.00  0.00    +0.000 C 
ENDROOT
BRANCH   1  15
ATOM     12  N   UNL     1     -11.750  56.842  49.056  0.00  0.00    +0.000 N 
ATOM     13  C   UNL     1     -10.763  55.999  49.539  0.00  0.00    +0.000 C 
ATOM     14  O   UNL     1     -11.033  54.910  50.022  0.00  0.00    +0.000 OA
ATOM     15  N   UNL     1      -9.492  56.532  49.480  0.00  0.00    +0.000 N 
ATOM     16  H   UNL     1     -11.491  57.679  48.606  0.00  0.00    +0.000 HD
ATOM     17  H   UNL     1      -9.335  57.444  49.146  0.00  0.00    +0.000 HD
BRANCH  12  18
ATOM     18  S   UNL     1     -13.383  56.469  49.217  0.00  0.00    +0.000 S 
ATOM     19  O   UNL     1     -13.490  55.045  49.459  0.00  0.00    +0.000 OA
ATOM     20  O   UNL     1     -14.014  57.046  48.039  0.00  0.00    +0.000 OA
BRANCH  18  21
ATOM     21  C   UNL     1     -13.915  57.414  50.662  0.00  0.00    +0.000 A 
ATOM     22  N   UNL     1     -14.506  58.606  50.391  0.00  0.00    +0.000 NA
ATOM     23  N   UNL     1     -13.665  56.881  51.877  0.00  0.00    +0.000 NA
ATOM     24  C   UNL     1     -14.905  59.289  51.482  0.00  0.00    +0.000 A 
ATOM     25  C   UNL     1     -14.044  57.647  52.915  0.00  0.00    +0.000 A 
ATOM     26  C   UNL     1     -14.684  58.858  52.775  0.00  0.00    +0.000 A 
ENDBRANCH  18  21
ENDBRANCH  12  18
ENDBRANCH   1  15
BRANCH   3  27
ATOM     27  C   UNL     1      -7.799  54.410  47.843  0.00  0.00    +0.000 C 
ATOM     28  O   UNL     1      -6.862  54.630  47.084  0.00  0.00    +0.000 OA
BRANCH  27  29
ATOM     29  O   UNL     1      -9.040  54.023  47.427  0.00  0.00    +0.000 OA
BRANCH  29  30
ATOM     30  C   UNL     1      -9.561  54.609  46.229  0.00  0.00    +0.000 C 
ATOM     31  C   UNL     1     -11.075  54.581  46.224  0.00  0.00    +0.000 C 
ENDBRANCH  29  30
ENDBRANCH  27  29
ENDBRANCH   3  27
TORSDOF 6
ENDMDL
MODEL 6
REMARK VINA RESULT:      -6.8      4.118      8.106
REMARK  Name = 
REMARK  9 active torsions:
REMARK  status: ('A' for Active; 'I' for Inactive)
REMARK    1  A    between atoms: S_1  and  N_4
REMARK    2  A    between atoms: S_1  and  C_5
REMARK    3  A    between atoms: N_10  and  C_13
REMARK    4  A    between atoms: C_16  and  C_19
REMARK    5  A    between atoms: C_19  and  O_23
REMARK    6  A    between atoms: O_23  and  C_26
REMARK    7  A    between atoms: C_24  and  C_27
REMARK    8  A    between atoms: C_24  and  C_28
REMARK    9  A    between atoms: C_26  and  C_29
REMARK                            x       y       z     vdW  Elec       q    Type
REMARK                         _______ _______ _______ _____ _____    ______ ____
ROOT
ATOM      1  C   UNL     1      -8.792  54.930  47.256  0.00  0.00    +0.000 A 
ATOM      2  S   UNL     1      -7.565  54.169  46.361  0.00  0.00    +0.000 S 
ATOM      3  C   UNL     1     -10.069  54.657  46.788  0.00  0.00    +0.000 A 
ATOM      4  C   UNL     1      -8.706  53.223  45.519  0.00  0.00    +0.000 A 
ATOM      5  C   UNL     1     -10.008  53.566  45.841  0.00  0.00    +0.000 A 
ATOM      6  C   UNL     1      -8.303  52.148  44.542  0.00  0.00    +0.000 C 
ATOM      7  C   UNL     1     -11.186  52.900  45.190  0.00  0.00    +0.000 C 
ATOM      8  C   UNL     1      -9.492  51.762  43.610  0.00  0.00    +0.000 C 
ATOM      9  C   UNL     1     -10.787  51.614  44.456  0.00  0.00    +0.000 C 
ATOM     10  C   UNL     1      -9.213  50.416  42.919  0.00  0.00    +0.000 C 
ATOM     11  C   UNL     1      -9.672  52.829  42.511  0.00  0.00    +0.000 C 
ENDROOT
BRANCH   1  15
ATOM     12  N   UNL     1      -7.910  55.954  50.578  0.00  0.00    +0.000 N 
ATOM     13  C   UNL     1      -8.330  55.109  49.564  0.00  0.00    +0.000 C 
ATOM     14  O   UNL     1      -8.596  53.936  49.780  0.00  0.00    +0.000 OA
ATOM     15  N   UNL     1      -8.348  55.696  48.316  0.00  0.00    +0.000 N 
ATOM     16  H   UNL     1      -7.777  56.910  50.384  0.00  0.00    +0.000 HD
ATOM     17  H   UNL     1      -8.057  56.627  48.185  0.00  0.00    +0.000 HD
BRANCH  12  18
ATOM     18  S   UNL     1      -7.627  55.387  52.137  0.00  0.00    +0.000 S 
ATOM     19  O   UNL     1      -8.846  54.763  52.610  0.00  0.00    +0.000 OA
ATOM     20  O   UNL     1      -7.080  56.528  52.854  0.00  0.00    +0.000 OA
BRANCH  18  21
ATOM     21  C   UNL     1      -6.311  54.164  51.933  0.00  0.00    +0.000 A 
ATOM     22  N   UNL     1      -6.529  52.971  52.543  0.00  0.00    +0.000 NA
ATOM     23  N   UNL     1      -5.225  54.536  51.224  0.00  0.00    +0.000 NA
ATOM     24  C   UNL     1      -5.542  52.070  52.370  0.00  0.00    +0.000 A 
ATOM     25  C   UNL     1      -4.262  53.601  51.141  0.00  0.00    +0.000 A 
ATOM     26  C   UNL     1      -4.374  52.341  51.686  0.00  0.00    +0.000 A 
ENDBRANCH  18  21
ENDBRANCH  12  18
ENDBRANCH   1  15
BRANCH   3  27
ATOM     27  C   UNL     1     -11.286  55.399  47.161  0.00  0.00    +0.000 C 
ATOM     28  O   UNL     1     -11.902  56.115  46.380  0.00  0.00    +0.000 OA
BRANCH  27  29
ATOM     29  O   UNL     1     -11.547  55.330  48.499  0.00  0.00    +0.000 OA
BRANCH  29  30
ATOM     30  C   UNL     1     -12.108  54.116  49.012  0.00  0.00    +0.000 C 
ATOM     31  C   UNL     1     -12.080  54.103  50.526  0.00  0.00    +0.000 C 
ENDBRANCH  29  30
ENDBRANCH  27  29
ENDBRANCH   3  27
TORSDOF 6
ENDMDL
MODEL 7
REMARK VINA RESULT:      -6.7      2.530      4.276
REMARK  Name = 
REMARK  9 active torsions:
REMARK  status: ('A' for Active; 'I' for Inactive)
REMARK    1  A    between atoms: S_1  and  N_4
REMARK    2  A    between atoms: S_1  and  C_5
REMARK    3  A    between atoms: N_10  and  C_13
REMARK    4  A    between atoms: C_16  and  C_19
REMARK    5  A    between atoms: C_19  and  O_23
REMARK    6  A    between atoms: O_23  and  C_26
REMARK    7  A    between atoms: C_24  and  C_27
REMARK    8  A    between atoms: C_24  and  C_28
REMARK    9  A    between atoms: C_26  and  C_29
REMARK                            x       y       z     vdW  Elec       q    Type
REMARK                         _______ _______ _______ _____ _____    ______ ____
ROOT
ATOM      1  C   UNL     1      -8.699  53.747  51.646  0.00  0.00    +0.000 A 
ATOM      2  S   UNL     1      -8.750  52.114  51.182  0.00  0.00    +0.000 S 
ATOM      3  C   UNL     1      -7.419  54.280  51.659  0.00  0.00    +0.000 A 
ATOM      4  C   UNL     1      -7.116  52.155  50.701  0.00  0.00    +0.000 A 
ATOM      5  C   UNL     1      -6.515  53.368  50.994  0.00  0.00    +0.000 A 
ATOM      6  C   UNL     1      -6.437  50.984  50.036  0.00  0.00    +0.000 C 
ATOM      7  C   UNL     1      -5.064  53.623  50.703  0.00  0.00    +0.000 C 
ATOM      8  C   UNL     1      -4.885  51.118  50.110  0.00  0.00    +0.000 C 
ATOM      9  C   UNL     1      -4.474  52.573  49.754  0.00  0.00    +0.000 C 
ATOM     10  C   UNL     1      -4.219  50.169  49.098  0.00  0.00    +0.000 C 
ATOM     11  C   UNL     1      -4.386  50.734  51.518  0.00  0.00    +0.000 C 
ENDROOT
BRANCH   1  15
ATOM     12  N   UNL     1     -11.759  55.587  51.308  0.00  0.00    +0.000 N 
ATOM     13  C   UNL     1     -10.552  55.024  50.930  0.00  0.00    +0.000 C 
ATOM     14  O   UNL     1     -10.132  55.121  49.787  0.00  0.00    +0.000 OA
ATOM     15  N   UNL     1      -9.928  54.308  51.932  0.00  0.00    +0.000 N 
ATOM     16  H   UNL     1     -12.031  55.554  52.254  0.00  0.00    +0.000 HD
ATOM     17  H   UNL     1     -10.344  54.202  52.817  0.00  0.00    +0.000 HD
BRANCH  12  18
ATOM     18  S   UNL     1     -12.773  56.330  50.189  0.00  0.00    +0.000 S 
ATOM     19  O   UNL     1     -13.564  55.296  49.554  0.00  0.00    +0.000 OA
ATOM     20  O   UNL     1     -11.891  57.157  49.380  0.00  0.00    +0.000 OA
BRANCH  18  21
ATOM     21  C   UNL     1     -13.813  57.421  51.186  0.00  0.00    +0.000 A 
ATOM     22  N   UNL     1     -14.142  58.602  50.601  0.00  0.00    +0.000 NA
ATOM     23  N   UNL     1     -14.153  56.995  52.420  0.00  0.00    +0.000 NA
ATOM     24  C   UNL     1     -14.927  59.396  51.355  0.00  0.00    +0.000 A 
ATOM     25  C   UNL     1     -14.892  57.866  53.130  0.00  0.00    +0.000 A 
ATOM     26  C   UNL     1     -15.321  59.080  52.640  0.00  0.00    +0.000 A 
ENDBRANCH  18  21
ENDBRANCH  12  18
ENDBRANCH   1  15
BRANCH   3  27
ATOM     27  C   UNL     1      -7.035  55.551  52.297  0.00  0.00    +0.000 C 
ATOM     28  O   UNL     1      -7.352  56.648  51.853  0.00  0.00    +0.000 OA
BRANCH  27  29
ATOM     29  O   UNL     1      -6.158  55.370  53.328  0.00  0.00    +0.000 OA
BRANCH  29  30
ATOM     30  C   UNL     1      -6.675  54.885  54.571  0.00  0.00    +0.000 C 
ATOM     31  C   UNL     1      -6.077  53.538  54.920  0.00  0.00    +0.000 C 
ENDBRANCH  29  30
ENDBRANCH  27  29
ENDBRANCH   3  27
TORSDOF 6
ENDMDL
MODEL 8
REMARK VINA RESULT:      -6.6      2.146      2.960
REMARK  Name = 
REMARK  9 active torsions:
REMARK  status: ('A' for Active; 'I' for Inactive)
REMARK    1  A    between atoms: S_1  and  N_4
REMARK    2  A    between atoms: S_1  and  C_5
REMARK    3  A    between atoms: N_10  and  C_13
REMARK    4  A    between atoms: C_16  and  C_19
REMARK    5  A    between atoms: C_19  and  O_23
REMARK    6  A    between atoms: O_23  and  C_26
REMARK    7  A    between atoms: C_24  and  C_27
REMARK    8  A    between atoms: C_24  and  C_28
REMARK    9  A    between atoms: C_26  and  C_29
REMARK                            x       y       z     vdW  Elec       q    Type
REMARK                         _______ _______ _______ _____ _____    ______ ____
ROOT
ATOM      1  C   UNL     1     -10.260  53.565  50.927  0.00  0.00    +0.000 A 
ATOM      2  S   UNL     1     -10.571  53.284  52.573  0.00  0.00    +0.000 S 
ATOM      3  C   UNL     1      -8.918  53.462  50.592  0.00  0.00    +0.000 A 
ATOM      4  C   UNL     1      -8.980  52.726  52.823  0.00  0.00    +0.000 A 
ATOM      5  C   UNL     1      -8.195  52.859  51.690  0.00  0.00    +0.000 A 
ATOM      6  C   UNL     1      -8.517  52.162  54.142  0.00  0.00    +0.000 C 
ATOM      7  C   UNL     1      -6.743  52.476  51.682  0.00  0.00    +0.000 C 
ATOM      8  C   UNL     1      -6.961  52.150  54.233  0.00  0.00    +0.000 C 
ATOM      9  C   UNL     1      -6.368  51.620  52.898  0.00  0.00    +0.000 C 
ATOM     10  C   UNL     1      -6.500  51.217  55.367  0.00  0.00    +0.000 C 
ATOM     11  C   UNL     1      -6.436  53.566  54.544  0.00  0.00    +0.000 C 
ENDROOT
BRANCH   1  15
ATOM     12  N   UNL     1     -12.974  55.340  49.394  0.00  0.00    +0.000 N 
ATOM     13  C   UNL     1     -11.829  55.149  50.149  0.00  0.00    +0.000 C 
ATOM     14  O   UNL     1     -11.260  56.083  50.695  0.00  0.00    +0.000 OA
ATOM     15  N   UNL     1     -11.377  53.845  50.164  0.00  0.00    +0.000 N 
ATOM     16  H   UNL     1     -13.448  54.556  49.032  0.00  0.00    +0.000 HD
ATOM     17  H   UNL     1     -11.832  53.141  49.650  0.00  0.00    +0.000 HD
BRANCH  12  18
ATOM     18  S   UNL     1     -13.576  56.879  49.082  0.00  0.00    +0.000 S 
ATOM     19  O   UNL     1     -14.640  56.750  48.107  0.00  0.00    +0.000 OA
ATOM     20  O   UNL     1     -12.405  57.680  48.763  0.00  0.00    +0.000 OA
BRANCH  18  21
ATOM     21  C   UNL     1     -14.223  57.435  50.675  0.00  0.00    +0.000 A 
ATOM     22  N   UNL     1     -14.940  56.511  51.365  0.00  0.00    +0.000 NA
ATOM     23  N   UNL     1     -13.969  58.710  51.036  0.00  0.00    +0.000 NA
ATOM     24  C   UNL     1     -15.403  56.941  52.554  0.00  0.00    +0.000 A 
ATOM     25  C   UNL     1     -14.509  59.080  52.210  0.00  0.00    +0.000 A 
ATOM     26  C   UNL     1     -15.228  58.229  53.021  0.00  0.00    +0.000 A 
ENDBRANCH  18  21
ENDBRANCH  12  18
ENDBRANCH   1  15
BRANCH   3  27
ATOM     27  C   UNL     1      -8.319  53.941  49.334  0.00  0.00    +0.000 C 
ATOM     28  O   UNL     1      -7.875  53.190  48.473  0.00  0.00    +0.000 OA
BRANCH  27  29
ATOM     29  O   UNL     1      -8.165  55.297  49.314  0.00  0.00    +0.000 OA
BRANCH  29  30
ATOM     30  C   UNL     1      -7.116  55.866  50.105  0.00  0.00    +0.000 C 
ATOM     31  C   UNL     1      -7.657  56.920  51.049  0.00  0.00    +0.000 C 
ENDBRANCH  29  30
ENDBRANCH  27  29
ENDBRANCH   3  27
TORSDOF 6
ENDMDL
MODEL 9
REMARK VINA RESULT:      -6.6      2.121      2.684
REMARK  Name = 
REMARK  9 active torsions:
REMARK  status: ('A' for Active; 'I' for Inactive)
REMARK    1  A    between atoms: S_1  and  N_4
REMARK    2  A    between atoms: S_1  and  C_5
REMARK    3  A    between atoms: N_10  and  C_13
REMARK    4  A    between atoms: C_16  and  C_19
REMARK    5  A    between atoms: C_19  and  O_23
REMARK    6  A    between atoms: O_23  and  C_26
REMARK    7  A    between atoms: C_24  and  C_27
REMARK    8  A    between atoms: C_24  and  C_28
REMARK    9  A    between atoms: C_26  and  C_29
REMARK                            x       y       z     vdW  Elec       q    Type
REMARK                         _______ _______ _______ _____ _____    ______ ____
ROOT
ATOM      1  C   UNL     1     -11.394  53.262  50.618  0.00  0.00    +0.000 A 
ATOM      2  S   UNL     1     -10.594  52.687  52.002  0.00  0.00    +0.000 S 
ATOM      3  C   UNL     1     -10.636  53.168  49.461  0.00  0.00    +0.000 A 
ATOM      4  C   UNL     1      -9.340  52.026  51.055  0.00  0.00    +0.000 A 
ATOM      5  C   UNL     1      -9.479  52.338  49.713  0.00  0.00    +0.000 A 
ATOM      6  C   UNL     1      -8.225  51.203  51.648  0.00  0.00    +0.000 C 
ATOM      7  C   UNL     1      -8.469  51.903  48.690  0.00  0.00    +0.000 C 
ATOM      8  C   UNL     1      -7.015  51.108  50.669  0.00  0.00    +0.000 C 
ATOM      9  C   UNL     1      -7.532  50.816  49.234  0.00  0.00    +0.000 C 
ATOM     10  C   UNL     1      -6.080  49.958  51.086  0.00  0.00    +0.000 C 
ATOM     11  C   UNL     1      -6.200  52.417  50.705  0.00  0.00    +0.000 C 
ENDROOT
BRANCH   1  15
ATOM     12  N   UNL     1     -14.123  55.350  51.645  0.00  0.00    +0.000 N 
ATOM     13  C   UNL     1     -12.810  54.972  51.421  0.00  0.00    +0.000 C 
ATOM     14  O   UNL     1     -11.878  55.721  51.674  0.00  0.00    +0.000 OA
ATOM     15  N   UNL     1     -12.675  53.728  50.839  0.00  0.00    +0.000 N 
ATOM     16  H   UNL     1     -14.844  54.695  51.501  0.00  0.00    +0.000 HD
ATOM     17  H   UNL     1     -13.462  53.193  50.590  0.00  0.00    +0.000 HD
BRANCH  12  18
ATOM     18  S   UNL     1     -14.517  56.902  52.161  0.00  0.00    +0.000 S 
ATOM     19  O   UNL     1     -13.562  57.286  53.180  0.00  0.00    +0.000 OA
ATOM     20  O   UNL     1     -15.932  56.837  52.492  0.00  0.00    +0.000 OA
BRANCH  18  21
ATOM     21  C   UNL     1     -14.329  57.924  50.682  0.00  0.00    +0.000 A 
ATOM     22  N   UNL     1     -14.473  59.260  50.878  0.00  0.00    +0.000 NA
ATOM     23  N   UNL     1     -14.091  57.288  49.516  0.00  0.00    +0.000 NA
ATOM     24  C   UNL     1     -14.318  60.004  49.765  0.00  0.00    +0.000 A 
ATOM     25  C   UNL     1     -14.003  58.095  48.444  0.00  0.00    +0.000 A 
ATOM     26  C   UNL     1     -14.096  59.467  48.513  0.00  0.00    +0.000 A 
ENDBRANCH  18  21
ENDBRANCH  12  18
ENDBRANCH   1  15
BRANCH   3  27
ATOM     27  C   UNL     1     -10.937  53.850  48.190  0.00  0.00    +0.000 C 
ATOM     28  O   UNL     1     -11.349  53.266  47.195  0.00  0.00    +0.000 OA
BRANCH  27  29
ATOM     29  O   UNL     1     -10.552  55.160  48.200  0.00  0.00    +0.000 OA
BRANCH  29  30
ATOM     30  C   UNL     1      -9.167  55.454  47.993  0.00  0.00    +0.000 C 
ATOM     31  C   UNL     1      -8.787  55.285  46.537  0.00  0.00    +0.000 C 
ENDBRANCH  29  30
ENDBRANCH  27  29
ENDBRANCH   3  27
TORSDOF 6
ENDMDL
