MODEL 1
REMARK VINA RESULT:      -7.7      0.000      0.000
REMARK  Name = 
REMARK  9 active torsions:
REMARK  status: ('A' for Active; 'I' for Inactive)
REMARK    1  A    between atoms: S_1  and  N_4
REMARK    2  A    between atoms: S_1  and  C_5
REMARK    3  A    between atoms: N_10  and  C_13
REMARK    4  A    between atoms: C_16  and  C_19
REMARK    5  A    between atoms: C_19  and  O_23
REMARK    6  A    between atoms: O_23  and  C_26
REMARK    7  A    between atoms: C_24  and  C_27
REMARK    8  A    between atoms: C_24  and  C_28
REMARK    9  A    between atoms: C_26  and  C_29
REMARK                            x       y       z     vdW  Elec       q    Type
REMARK                         _______ _______ _______ _____ _____    ______ ____
ROOT
ATOM      1  C   UNL     1     -10.993  54.282  51.469  0.00  0.00    +0.000 A 
ATOM      2  S   UNL     1     -10.553  53.673  53.002  0.00  0.00    +0.000 S 
ATOM      3  C   UNL     1      -9.912  54.808  50.772  0.00  0.00    +0.000 A 
ATOM      4  C   UNL     1      -8.883  53.884  52.679  0.00  0.00    +0.000 A 
ATOM      5  C   UNL     1      -8.675  54.491  51.451  0.00  0.00    +0.000 A 
ATOM      6  C   UNL     1      -7.774  53.468  53.635  0.00  0.00    +0.000 C 
ATOM      7  C   UNL     1      -7.300  54.840  50.959  0.00  0.00    +0.000 C 
ATOM      8  C   UNL     1      -6.424  54.190  53.285  0.00  0.00    +0.000 C 
ATOM      9  C   UNL     1      -6.202  54.134  51.753  0.00  0.00    +0.000 C 
ATOM     10  C   UNL     1      -5.205  53.505  53.939  0.00  0.00    +0.000 C 
ATOM     11  C   UNL     1      -6.457  55.648  53.790  0.00  0.00    +0.000 C 
ENDROOT
BRANCH   1  15
ATOM     12  N   UNL     1     -14.497  55.170  51.100  0.00  0.00    +0.000 N 
ATOM     13  C   UNL     1     -13.150  55.265  51.442  0.00  0.00    +0.000 C 
ATOM     14  O   UNL     1     -12.725  56.283  51.974  0.00  0.00    +0.000 OA
ATOM     15  N   UNL     1     -12.339  54.192  51.116  0.00  0.00    +0.000 N 
ATOM     16  H   UNL     1     -14.845  54.334  50.713  0.00  0.00    +0.000 HD
ATOM     17  H   UNL     1     -12.697  53.400  50.656  0.00  0.00    +0.000 HD
BRANCH  12  18
ATOM     18  S   UNL     1     -15.541  56.486  51.345  0.00  0.00    +0.000 S 
ATOM     19  O   UNL     1     -15.619  56.713  52.785  0.00  0.00    +0.000 OA
ATOM     20  O   UNL     1     -16.758  56.159  50.620  0.00  0.00    +0.000 OA
BRANCH  18  21
ATOM     21  C   UNL     1     -14.771  57.907  50.521  0.00  0.00    +0.000 A 
ATOM     22  N   UNL     1     -14.627  59.018  51.281  0.00  0.00    +0.000 NA
ATOM     23  N   UNL     1     -14.366  57.727  49.244  0.00  0.00    +0.000 NA
ATOM     24  C   UNL     1     -14.009  60.038  50.656  0.00  0.00    +0.000 A 
ATOM     25  C   UNL     1     -13.789  58.803  48.678  0.00  0.00    +0.000 A 
ATOM     26  C   UNL     1     -13.576  59.990  49.346  0.00  0.00    +0.000 A 
ENDBRANCH  18  21
ENDBRANCH  12  18
ENDBRANCH   1  15
BRANCH   3  27
ATOM     27  C   UNL     1     -10.021  55.652  49.574  0.00  0.00    +0.000 C 
ATOM     28  O   UNL     1      -9.747  56.846  49.557  0.00  0.00    +0.000 OA
BRANCH  27  29
ATOM     29  O   UNL     1     -10.621  54.991  48.547  0.00  0.00    +0.000 OA
BRANCH  29  30
ATOM     30  C   UNL     1     -11.738  55.600  47.908  0.00  0.00    +0.000 C 
ATOM     31  C   UNL     1     -11.684  55.341  46.420  0.00  0.00    +0.000 C 
ENDBRANCH  29  30
ENDBRANCH  27  29
ENDBRANCH   3  27
TORSDOF 6
ENDMDL
MODEL 2
REMARK VINA RESULT:      -7.4      3.072      7.597
REMARK  Name = 
REMARK  9 active torsions:
REMARK  status: ('A' for Active; 'I' for Inactive)
REMARK    1  A    between atoms: S_1  and  N_4
REMARK    2  A    between atoms: S_1  and  C_5
REMARK    3  A    between atoms: N_10  and  C_13
REMARK    4  A    between atoms: C_16  and  C_19
REMARK    5  A    between atoms: C_19  and  O_23
REMARK    6  A    between atoms: O_23  and  C_26
REMARK    7  A    between atoms: C_24  and  C_27
REMARK    8  A    between atoms: C_24  and  C_28
REMARK    9  A    between atoms: C_26  and  C_29
REMARK                            x       y       z     vdW  Elec       q    Type
REMARK                         _______ _______ _______ _____ _____    ______ ____
ROOT
ATOM      1  C   UNL     1     -11.041  54.783  50.228  0.00  0.00    +0.000 A 
ATOM      2  S   UNL     1     -11.698  54.829  51.803  0.00  0.00    +0.000 S 
ATOM      3  C   UNL     1     -11.660  55.679  49.364  0.00  0.00    +0.000 A 
ATOM      4  C   UNL     1     -12.661  56.197  51.433  0.00  0.00    +0.000 A 
ATOM      5  C   UNL     1     -12.542  56.557  50.100  0.00  0.00    +0.000 A 
ATOM      6  C   UNL     1     -13.545  56.913  52.445  0.00  0.00    +0.000 C 
ATOM      7  C   UNL     1     -13.330  57.691  49.510  0.00  0.00    +0.000 C 
ATOM      8  C   UNL     1     -14.623  57.801  51.728  0.00  0.00    +0.000 C 
ATOM      9  C   UNL     1     -13.945  58.591  50.580  0.00  0.00    +0.000 C 
ATOM     10  C   UNL     1     -15.252  58.843  52.677  0.00  0.00    +0.000 C 
ATOM     11  C   UNL     1     -15.768  56.916  51.192  0.00  0.00    +0.000 C 
ENDROOT
BRANCH   1  15
ATOM     12  N   UNL     1      -7.685  53.401  50.065  0.00  0.00    +0.000 N 
ATOM     13  C   UNL     1      -8.722  54.301  50.302  0.00  0.00    +0.000 C 
ATOM     14  O   UNL     1      -8.479  55.396  50.792  0.00  0.00    +0.000 OA
ATOM     15  N   UNL     1     -10.005  53.878  50.001  0.00  0.00    +0.000 N 
ATOM     16  H   UNL     1      -7.876  52.538  49.630  0.00  0.00    +0.000 HD
ATOM     17  H   UNL     1     -10.178  52.979  49.642  0.00  0.00    +0.000 HD
BRANCH  12  18
ATOM     18  S   UNL     1      -6.094  53.783  50.520  0.00  0.00    +0.000 S 
ATOM     19  O   UNL     1      -5.798  55.107  49.983  0.00  0.00    +0.000 OA
ATOM     20  O   UNL     1      -5.284  52.654  50.090  0.00  0.00    +0.000 OA
BRANCH  18  21
ATOM     21  C   UNL     1      -6.078  53.815  52.334  0.00  0.00    +0.000 A 
ATOM     22  N   UNL     1      -5.833  55.022  52.896  0.00  0.00    +0.000 NA
ATOM     23  N   UNL     1      -6.357  52.655  52.969  0.00  0.00    +0.000 NA
ATOM     24  C   UNL     1      -5.876  55.024  54.242  0.00  0.00    +0.000 A 
ATOM     25  C   UNL     1      -6.347  52.730  54.312  0.00  0.00    +0.000 A 
ATOM     26  C   UNL     1      -6.119  53.899  55.006  0.00  0.00    +0.000 A 
ENDBRANCH  18  21
ENDBRANCH  12  18
ENDBRANCH   1  15
BRANCH   3  27
ATOM     27  C   UNL     1     -11.516  55.665  47.902  0.00  0.00    +0.000 C 
ATOM     28  O   UNL     1     -12.436  55.417  47.131  0.00  0.00    +0.000 OA
BRANCH  27  29
ATOM     29  O   UNL     1     -10.215  55.786  47.524  0.00  0.00    +0.000 OA
BRANCH  29  30
ATOM     30  C   UNL     1      -9.713  54.907  46.524  0.00  0.00    +0.000 C 
ATOM     31  C   UNL     1      -8.207  54.823  46.620  0.00  0.00    +0.000 C 
ENDBRANCH  29  30
ENDBRANCH  27  29
ENDBRANCH   3  27
TORSDOF 6
ENDMDL
MODEL 3
REMARK VINA RESULT:      -6.9      3.581      8.104
REMARK  Name = 
REMARK  9 active torsions:
REMARK  status: ('A' for Active; 'I' for Inactive)
REMARK    1  A    between atoms: S_1  and  N_4
REMARK    2  A    between atoms: S_1  and  C_5
REMARK    3  A    between atoms: N_10  and  C_13
REMARK    4  A    between atoms: C_16  and  C_19
REMARK    5  A    between atoms: C_19  and  O_23
REMARK    6  A    between atoms: O_23  and  C_26
REMARK    7  A    between atoms: C_24  and  C_27
REMARK    8  A    between atoms: C_24  and  C_28
REMARK    9  A    between atoms: C_26  and  C_29
REMARK                            x       y       z     vdW  Elec       q    Type
REMARK                         _______ _______ _______ _____ _____    ______ ____
ROOT
ATOM      1  C   UNL     1     -10.998  54.949  50.274  0.00  0.00    +0.000 A 
ATOM      2  S   UNL     1     -11.500  55.074  51.900  0.00  0.00    +0.000 S 
ATOM      3  C   UNL     1     -11.779  55.712  49.413  0.00  0.00    +0.000 A 
ATOM      4  C   UNL     1     -12.617  56.320  51.529  0.00  0.00    +0.000 A 
ATOM      5  C   UNL     1     -12.662  56.573  50.167  0.00  0.00    +0.000 A 
ATOM      6  C   UNL     1     -13.460  57.043  52.570  0.00  0.00    +0.000 C 
ATOM      7  C   UNL     1     -13.605  57.581  49.577  0.00  0.00    +0.000 C 
ATOM      8  C   UNL     1     -14.680  57.773  51.903  0.00  0.00    +0.000 C 
ATOM      9  C   UNL     1     -14.193  58.516  50.633  0.00  0.00    +0.000 C 
ATOM     10  C   UNL     1     -15.308  58.836  52.829  0.00  0.00    +0.000 C 
ATOM     11  C   UNL     1     -15.786  56.752  51.560  0.00  0.00    +0.000 C 
ENDROOT
BRANCH   1  15
ATOM     12  N   UNL     1      -7.560  53.832  49.910  0.00  0.00    +0.000 N 
ATOM     13  C   UNL     1      -8.648  54.658  50.184  0.00  0.00    +0.000 C 
ATOM     14  O   UNL     1      -8.461  55.796  50.596  0.00  0.00    +0.000 OA
ATOM     15  N   UNL     1      -9.910  54.118  50.010  0.00  0.00    +0.000 N 
ATOM     16  H   UNL     1      -7.711  52.933  49.537  0.00  0.00    +0.000 HD
ATOM     17  H   UNL     1     -10.034  53.189  49.713  0.00  0.00    +0.000 HD
BRANCH  12  18
ATOM     18  S   UNL     1      -5.977  54.365  50.215  0.00  0.00    +0.000 S 
ATOM     19  O   UNL     1      -5.840  54.507  51.661  0.00  0.00    +0.000 OA
ATOM     20  O   UNL     1      -5.792  55.537  49.374  0.00  0.00    +0.000 OA
BRANCH  18  21
ATOM     21  C   UNL     1      -4.875  53.063  49.598  0.00  0.00    +0.000 A 
ATOM     22  N   UNL     1      -4.286  52.296  50.545  0.00  0.00    +0.000 NA
ATOM     23  N   UNL     1      -4.771  52.935  48.257  0.00  0.00    +0.000 NA
ATOM     24  C   UNL     1      -3.513  51.308  50.055  0.00  0.00    +0.000 A 
ATOM     25  C   UNL     1      -3.954  51.948  47.845  0.00  0.00    +0.000 A 
ATOM     26  C   UNL     1      -3.302  51.093  48.708  0.00  0.00    +0.000 A 
ENDBRANCH  18  21
ENDBRANCH  12  18
ENDBRANCH   1  15
BRANCH   3  27
ATOM     27  C   UNL     1     -11.777  55.584  47.949  0.00  0.00    +0.000 C 
ATOM     28  O   UNL     1     -12.377  56.347  47.201  0.00  0.00    +0.000 OA
BRANCH  27  29
ATOM     29  O   UNL     1     -11.180  54.430  47.546  0.00  0.00    +0.000 OA
BRANCH  29  30
ATOM     30  C   UNL     1     -10.388  54.453  46.363  0.00  0.00    +0.000 C 
ATOM     31  C   UNL     1      -9.116  55.232  46.610  0.00  0.00    +0.000 C 
ENDBRANCH  29  30
ENDBRANCH  27  29
ENDBRANCH   3  27
TORSDOF 6
ENDMDL
MODEL 4
REMARK VINA RESULT:      -6.8      3.966      7.311
REMARK  Name = 
REMARK  9 active torsions:
REMARK  status: ('A' for Active; 'I' for Inactive)
REMARK    1  A    between atoms: S_1  and  N_4
REMARK    2  A    between atoms: S_1  and  C_5
REMARK    3  A    between atoms: N_10  and  C_13
REMARK    4  A    between atoms: C_16  and  C_19
REMARK    5  A    between atoms: C_19  and  O_23
REMARK    6  A    between atoms: O_23  and  C_26
REMARK    7  A    between atoms: C_24  and  C_27
REMARK    8  A    between atoms: C_24  and  C_28
REMARK    9  A    between atoms: C_26  and  C_29
REMARK                            x       y       z     vdW  Elec       q    Type
REMARK                         _______ _______ _______ _____ _____    ______ ____
ROOT
ATOM      1  C   UNL     1     -11.135  54.838  50.187  0.00  0.00    +0.000 A 
ATOM      2  S   UNL     1     -11.758  54.881  51.776  0.00  0.00    +0.000 S 
ATOM      3  C   UNL     1     -11.773  55.736  49.339  0.00  0.00    +0.000 A 
ATOM      4  C   UNL     1     -12.728  56.251  51.430  0.00  0.00    +0.000 A 
ATOM      5  C   UNL     1     -12.638  56.613  50.096  0.00  0.00    +0.000 A 
ATOM      6  C   UNL     1     -13.589  56.965  52.462  0.00  0.00    +0.000 C 
ATOM      7  C   UNL     1     -13.437  57.749  49.525  0.00  0.00    +0.000 C 
ATOM      8  C   UNL     1     -14.682  57.855  51.771  0.00  0.00    +0.000 C 
ATOM      9  C   UNL     1     -14.029  58.647  50.610  0.00  0.00    +0.000 C 
ATOM     10  C   UNL     1     -15.290  58.895  52.735  0.00  0.00    +0.000 C 
ATOM     11  C   UNL     1     -15.839  56.972  51.258  0.00  0.00    +0.000 C 
ENDROOT
BRANCH   1  15
ATOM     12  N   UNL     1      -9.434  51.782  49.207  0.00  0.00    +0.000 N 
ATOM     13  C   UNL     1     -10.463  52.690  49.447  0.00  0.00    +0.000 C 
ATOM     14  O   UNL     1     -11.620  52.383  49.189  0.00  0.00    +0.000 OA
ATOM     15  N   UNL     1     -10.105  53.933  49.936  0.00  0.00    +0.000 N 
ATOM     16  H   UNL     1      -8.510  52.013  49.455  0.00  0.00    +0.000 HD
ATOM     17  H   UNL     1      -9.163  54.169  50.101  0.00  0.00    +0.000 HD
BRANCH  12  18
ATOM     18  S   UNL     1      -9.764  50.278  48.489  0.00  0.00    +0.000 S 
ATOM     19  O   UNL     1     -10.817  49.646  49.277  0.00  0.00    +0.000 OA
ATOM     20  O   UNL     1      -8.477  49.611  48.373  0.00  0.00    +0.000 OA
BRANCH  18  21
ATOM     21  C   UNL     1     -10.355  50.635  46.811  0.00  0.00    +0.000 A 
ATOM     22  N   UNL     1      -9.527  51.385  46.046  0.00  0.00    +0.000 NA
ATOM     23  N   UNL     1     -11.538  50.091  46.451  0.00  0.00    +0.000 NA
ATOM     24  C   UNL     1      -9.970  51.592  44.791  0.00  0.00    +0.000 A 
ATOM     25  C   UNL     1     -11.929  50.372  45.194  0.00  0.00    +0.000 A 
ATOM     26  C   UNL     1     -11.175  51.116  44.312  0.00  0.00    +0.000 A 
ENDBRANCH  18  21
ENDBRANCH  12  18
ENDBRANCH   1  15
BRANCH   3  27
ATOM     27  C   UNL     1     -11.660  55.725  47.874  0.00  0.00    +0.000 C 
ATOM     28  O   UNL     1     -12.593  55.467  47.123  0.00  0.00    +0.000 OA
BRANCH  27  29
ATOM     29  O   UNL     1     -10.369  55.863  47.468  0.00  0.00    +0.000 OA
BRANCH  29  30
ATOM     30  C   UNL     1      -9.869  54.970  46.479  0.00  0.00    +0.000 C 
ATOM     31  C   UNL     1      -8.399  54.710  46.716  0.00  0.00    +0.000 C 
ENDBRANCH  29  30
ENDBRANCH  27  29
ENDBRANCH   3  27
TORSDOF 6
ENDMDL
MODEL 5
REMARK VINA RESULT:      -6.7      3.659      7.337
REMARK  Name = 
REMARK  9 active torsions:
REMARK  status: ('A' for Active; 'I' for Inactive)
REMARK    1  A    between atoms: S_1  and  N_4
REMARK    2  A    between atoms: S_1  and  C_5
REMARK    3  A    between atoms: N_10  and  C_13
REMARK    4  A    between atoms: C_16  and  C_19
REMARK    5  A    between atoms: C_19  and  O_23
REMARK    6  A    between atoms: O_23  and  C_26
REMARK    7  A    between atoms: C_24  and  C_27
REMARK    8  A    between atoms: C_24  and  C_28
REMARK    9  A    between atoms: C_26  and  C_29
REMARK                            x       y       z     vdW  Elec       q    Type
REMARK                         _______ _______ _______ _____ _____    ______ ____
ROOT
ATOM      1  C   UNL     1     -11.173  54.416  50.812  0.00  0.00    +0.000 A 
ATOM      2  S   UNL     1     -11.359  55.147  52.343  0.00  0.00    +0.000 S 
ATOM      3  C   UNL     1     -12.144  54.824  49.904  0.00  0.00    +0.000 A 
ATOM      4  C   UNL     1     -12.589  56.193  51.769  0.00  0.00    +0.000 A 
ATOM      5  C   UNL     1     -12.909  55.924  50.448  0.00  0.00    +0.000 A 
ATOM      6  C   UNL     1     -13.253  57.270  52.616  0.00  0.00    +0.000 C 
ATOM      7  C   UNL     1     -13.998  56.664  49.727  0.00  0.00    +0.000 C 
ATOM      8  C   UNL     1     -14.614  57.729  51.983  0.00  0.00    +0.000 C 
ATOM      9  C   UNL     1     -14.420  57.937  50.460  0.00  0.00    +0.000 C 
ATOM     10  C   UNL     1     -15.106  59.074  52.558  0.00  0.00    +0.000 C 
ATOM     11  C   UNL     1     -15.711  56.680  52.266  0.00  0.00    +0.000 C 
ENDROOT
BRANCH   1  15
ATOM     12  N   UNL     1      -8.051  52.983  49.631  0.00  0.00    +0.000 N 
ATOM     13  C   UNL     1      -9.103  53.882  49.789  0.00  0.00    +0.000 C 
ATOM     14  O   UNL     1      -9.086  54.952  49.195  0.00  0.00    +0.000 OA
ATOM     15  N   UNL     1     -10.114  53.522  50.662  0.00  0.00    +0.000 N 
ATOM     16  H   UNL     1      -8.087  52.104  50.074  0.00  0.00    +0.000 HD
ATOM     17  H   UNL     1     -10.087  52.671  51.156  0.00  0.00    +0.000 HD
BRANCH  12  18
ATOM     18  S   UNL     1      -6.706  53.393  48.678  0.00  0.00    +0.000 S 
ATOM     19  O   UNL     1      -5.731  52.316  48.823  0.00  0.00    +0.000 OA
ATOM     20  O   UNL     1      -6.333  54.737  49.088  0.00  0.00    +0.000 OA
BRANCH  18  21
ATOM     21  C   UNL     1      -7.303  53.481  46.968  0.00  0.00    +0.000 A 
ATOM     22  N   UNL     1      -7.742  52.315  46.439  0.00  0.00    +0.000 NA
ATOM     23  N   UNL     1      -7.305  54.700  46.383  0.00  0.00    +0.000 NA
ATOM     24  C   UNL     1      -8.224  52.422  45.186  0.00  0.00    +0.000 A 
ATOM     25  C   UNL     1      -7.769  54.719  45.120  0.00  0.00    +0.000 A 
ATOM     26  C   UNL     1      -8.252  53.604  44.471  0.00  0.00    +0.000 A 
ENDBRANCH  18  21
ENDBRANCH  12  18
ENDBRANCH   1  15
BRANCH   3  27
ATOM     27  C   UNL     1     -12.417  54.163  48.620  0.00  0.00    +0.000 C 
ATOM     28  O   UNL     1     -12.532  52.950  48.492  0.00  0.00    +0.000 OA
BRANCH  27  29
ATOM     29  O   UNL     1     -12.352  55.039  47.581  0.00  0.00    +0.000 OA
BRANCH  29  30
ATOM     30  C   UNL     1     -11.259  54.936  46.675  0.00  0.00    +0.000 C 
ATOM     31  C   UNL     1     -11.700  54.226  45.415  0.00  0.00    +0.000 C 
ENDBRANCH  29  30
ENDBRANCH  27  29
ENDBRANCH   3  27
TORSDOF 6
ENDMDL
MODEL 6
REMARK VINA RESULT:      -6.7      3.854      7.440
REMARK  Name = 
REMARK  9 active torsions:
REMARK  status: ('A' for Active; 'I' for Inactive)
REMARK    1  A    between atoms: S_1  and  N_4
REMARK    2  A    between atoms: S_1  and  C_5
REMARK    3  A    between atoms: N_10  and  C_13
REMARK    4  A    between atoms: C_16  and  C_19
REMARK    5  A    between atoms: C_19  and  O_23
REMARK    6  A    between atoms: O_23  and  C_26
REMARK    7  A    between atoms: C_24  and  C_27
REMARK    8  A    between atoms: C_24  and  C_28
REMARK    9  A    between atoms: C_26  and  C_29
REMARK                            x       y       z     vdW  Elec       q    Type
REMARK                         _______ _______ _______ _____ _____    ______ ____
ROOT
ATOM      1  C   UNL     1      -8.588  54.997  47.456  0.00  0.00    +0.000 A 
ATOM      2  S   UNL     1      -7.383  54.144  46.599  0.00  0.00    +0.000 S 
ATOM      3  C   UNL     1      -9.870  54.723  46.991  0.00  0.00    +0.000 A 
ATOM      4  C   UNL     1      -8.548  53.220  45.747  0.00  0.00    +0.000 A 
ATOM      5  C   UNL     1      -9.839  53.622  46.055  0.00  0.00    +0.000 A 
ATOM      6  C   UNL     1      -8.201  52.109  44.766  0.00  0.00    +0.000 C 
ATOM      7  C   UNL     1     -11.040  53.008  45.397  0.00  0.00    +0.000 C 
ATOM      8  C   UNL     1      -9.416  51.781  43.828  0.00  0.00    +0.000 C 
ATOM      9  C   UNL     1     -10.707  51.699  44.681  0.00  0.00    +0.000 C 
ATOM     10  C   UNL     1      -9.261  50.419  43.120  0.00  0.00    +0.000 C 
ATOM     11  C   UNL     1      -9.544  52.858  42.729  0.00  0.00    +0.000 C 
ENDROOT
BRANCH   1  15
ATOM     12  N   UNL     1      -7.514  56.119  50.740  0.00  0.00    +0.000 N 
ATOM     13  C   UNL     1      -7.932  55.272  49.717  0.00  0.00    +0.000 C 
ATOM     14  O   UNL     1      -8.048  54.071  49.928  0.00  0.00    +0.000 OA
ATOM     15  N   UNL     1      -8.159  55.843  48.477  0.00  0.00    +0.000 N 
ATOM     16  H   UNL     1      -7.464  57.090  50.581  0.00  0.00    +0.000 HD
ATOM     17  H   UNL     1      -8.023  56.806  48.323  0.00  0.00    +0.000 HD
BRANCH  12  18
ATOM     18  S   UNL     1      -7.091  55.490  52.259  0.00  0.00    +0.000 S 
ATOM     19  O   UNL     1      -6.975  56.619  53.177  0.00  0.00    +0.000 OA
ATOM     20  O   UNL     1      -5.924  54.654  52.024  0.00  0.00    +0.000 OA
BRANCH  18  21
ATOM     21  C   UNL     1      -8.457  54.405  52.757  0.00  0.00    +0.000 A 
ATOM     22  N   UNL     1      -8.100  53.166  53.171  0.00  0.00    +0.000 NA
ATOM     23  N   UNL     1      -9.701  54.931  52.720  0.00  0.00    +0.000 NA
ATOM     24  C   UNL     1      -9.131  52.402  53.580  0.00  0.00    +0.000 A 
ATOM     25  C   UNL     1     -10.680  54.095  53.111  0.00  0.00    +0.000 A 
ATOM     26  C   UNL     1     -10.449  52.814  53.562  0.00  0.00    +0.000 A 
ENDBRANCH  18  21
ENDBRANCH  12  18
ENDBRANCH   1  15
BRANCH   3  27
ATOM     27  C   UNL     1     -11.065  55.508  47.326  0.00  0.00    +0.000 C 
ATOM     28  O   UNL     1     -11.863  55.921  46.492  0.00  0.00    +0.000 OA
BRANCH  27  29
ATOM     29  O   UNL     1     -11.081  55.864  48.639  0.00  0.00    +0.000 OA
BRANCH  29  30
ATOM     30  C   UNL     1     -12.249  55.586  49.404  0.00  0.00    +0.000 C 
ATOM     31  C   UNL     1     -12.305  54.114  49.741  0.00  0.00    +0.000 C 
ENDBRANCH  29  30
ENDBRANCH  27  29
ENDBRANCH   3  27
TORSDOF 6
ENDMDL
MODEL 7
REMARK VINA RESULT:      -6.7      2.196      2.683
REMARK  Name = 
REMARK  9 active torsions:
REMARK  status: ('A' for Active; 'I' for Inactive)
REMARK    1  A    between atoms: S_1  and  N_4
REMARK    2  A    between atoms: S_1  and  C_5
REMARK    3  A    between atoms: N_10  and  C_13
REMARK    4  A    between atoms: C_16  and  C_19
REMARK    5  A    between atoms: C_19  and  O_23
REMARK    6  A    between atoms: O_23  and  C_26
REMARK    7  A    between atoms: C_24  and  C_27
REMARK    8  A    between atoms: C_24  and  C_28
REMARK    9  A    between atoms: C_26  and  C_29
REMARK                            x       y       z     vdW  Elec       q    Type
REMARK                         _______ _______ _______ _____ _____    ______ ____
ROOT
ATOM      1  C   UNL     1     -11.497  53.296  49.997  0.00  0.00    +0.000 A 
ATOM      2  S   UNL     1     -10.779  52.173  51.063  0.00  0.00    +0.000 S 
ATOM      3  C   UNL     1     -10.658  53.648  48.946  0.00  0.00    +0.000 A 
ATOM      4  C   UNL     1      -9.430  51.953  50.029  0.00  0.00    +0.000 A 
ATOM      5  C   UNL     1      -9.492  52.794  48.928  0.00  0.00    +0.000 A 
ATOM      6  C   UNL     1      -8.302  50.969  50.300  0.00  0.00    +0.000 C 
ATOM      7  C   UNL     1      -8.399  52.837  47.899  0.00  0.00    +0.000 C 
ATOM      8  C   UNL     1      -7.027  51.319  49.454  0.00  0.00    +0.000 C 
ATOM      9  C   UNL     1      -7.458  51.638  47.999  0.00  0.00    +0.000 C 
ATOM     10  C   UNL     1      -6.031  50.143  49.377  0.00  0.00    +0.000 C 
ATOM     11  C   UNL     1      -6.281  52.513  50.087  0.00  0.00    +0.000 C 
ENDROOT
BRANCH   1  15
ATOM     12  N   UNL     1     -14.206  55.315  51.333  0.00  0.00    +0.000 N 
ATOM     13  C   UNL     1     -12.915  54.898  51.018  0.00  0.00    +0.000 C 
ATOM     14  O   UNL     1     -11.955  55.586  51.341  0.00  0.00    +0.000 OA
ATOM     15  N   UNL     1     -12.790  53.720  50.303  0.00  0.00    +0.000 N 
ATOM     16  H   UNL     1     -14.974  54.740  51.111  0.00  0.00    +0.000 HD
ATOM     17  H   UNL     1     -13.579  53.203  50.022  0.00  0.00    +0.000 HD
BRANCH  12  18
ATOM     18  S   UNL     1     -14.464  56.810  52.097  0.00  0.00    +0.000 S 
ATOM     19  O   UNL     1     -13.357  57.017  53.025  0.00  0.00    +0.000 OA
ATOM     20  O   UNL     1     -15.819  56.749  52.623  0.00  0.00    +0.000 OA
BRANCH  18  21
ATOM     21  C   UNL     1     -14.436  58.062  50.786  0.00  0.00    +0.000 A 
ATOM     22  N   UNL     1     -14.884  59.290  51.138  0.00  0.00    +0.000 NA
ATOM     23  N   UNL     1     -13.932  57.685  49.590  0.00  0.00    +0.000 NA
ATOM     24  C   UNL     1     -14.806  60.210  50.158  0.00  0.00    +0.000 A 
ATOM     25  C   UNL     1     -13.918  58.650  48.653  0.00  0.00    +0.000 A 
ATOM     26  C   UNL     1     -14.339  59.942  48.886  0.00  0.00    +0.000 A 
ENDBRANCH  18  21
ENDBRANCH  12  18
ENDBRANCH   1  15
BRANCH   3  27
ATOM     27  C   UNL     1     -10.878  54.790  48.048  0.00  0.00    +0.000 C 
ATOM     28  O   UNL     1     -10.260  55.844  48.126  0.00  0.00    +0.000 OA
BRANCH  27  29
ATOM     29  O   UNL     1     -11.959  54.596  47.244  0.00  0.00    +0.000 OA
BRANCH  29  30
ATOM     30  C   UNL     1     -11.777  54.668  45.834  0.00  0.00    +0.000 C 
ATOM     31  C   UNL     1     -11.373  53.314  45.297  0.00  0.00    +0.000 C 
ENDBRANCH  29  30
ENDBRANCH  27  29
ENDBRANCH   3  27
TORSDOF 6
ENDMDL
MODEL 8
REMARK VINA RESULT:      -6.5      4.010      7.987
REMARK  Name = 
REMARK  9 active torsions:
REMARK  status: ('A' for Active; 'I' for Inactive)
REMARK    1  A    between atoms: S_1  and  N_4
REMARK    2  A    between atoms: S_1  and  C_5
REMARK    3  A    between atoms: N_10  and  C_13
REMARK    4  A    between atoms: C_16  and  C_19
REMARK    5  A    between atoms: C_19  and  O_23
REMARK    6  A    between atoms: O_23  and  C_26
REMARK    7  A    between atoms: C_24  and  C_27
REMARK    8  A    between atoms: C_24  and  C_28
REMARK    9  A    between atoms: C_26  and  C_29
REMARK                            x       y       z     vdW  Elec       q    Type
REMARK                         _______ _______ _______ _____ _____    ______ ____
ROOT
ATOM      1  C   UNL     1      -8.608  54.999  47.494  0.00  0.00    +0.000 A 
ATOM      2  S   UNL     1      -7.409  54.128  46.648  0.00  0.00    +0.000 S 
ATOM      3  C   UNL     1      -9.888  54.759  47.005  0.00  0.00    +0.000 A 
ATOM      4  C   UNL     1      -8.580  53.240  45.767  0.00  0.00    +0.000 A 
ATOM      5  C   UNL     1      -9.866  53.668  46.058  0.00  0.00    +0.000 A 
ATOM      6  C   UNL     1      -8.241  52.132  44.780  0.00  0.00    +0.000 C 
ATOM      7  C   UNL     1     -11.070  53.088  45.373  0.00  0.00    +0.000 C 
ATOM      8  C   UNL     1      -9.447  51.842  43.818  0.00  0.00    +0.000 C 
ATOM      9  C   UNL     1     -10.754  51.779  44.649  0.00  0.00    +0.000 C 
ATOM     10  C   UNL     1      -9.311  50.483  43.098  0.00  0.00    +0.000 C 
ATOM     11  C   UNL     1      -9.533  52.932  42.729  0.00  0.00    +0.000 C 
ENDROOT
BRANCH   1  15
ATOM     12  N   UNL     1      -7.720  56.104  50.839  0.00  0.00    +0.000 N 
ATOM     13  C   UNL     1      -8.141  55.276  49.801  0.00  0.00    +0.000 C 
ATOM     14  O   UNL     1      -8.422  54.107  50.029  0.00  0.00    +0.000 OA
ATOM     15  N   UNL     1      -8.177  55.825  48.531  0.00  0.00    +0.000 N 
ATOM     16  H   UNL     1      -7.537  57.056  50.662  0.00  0.00    +0.000 HD
ATOM     17  H   UNL     1      -7.911  56.758  48.367  0.00  0.00    +0.000 HD
BRANCH  12  18
ATOM     18  S   UNL     1      -7.523  55.485  52.407  0.00  0.00    +0.000 S 
ATOM     19  O   UNL     1      -8.812  54.936  52.820  0.00  0.00    +0.000 OA
ATOM     20  O   UNL     1      -6.941  56.568  53.184  0.00  0.00    +0.000 OA
BRANCH  18  21
ATOM     21  C   UNL     1      -6.284  54.167  52.281  0.00  0.00    +0.000 A 
ATOM     22  N   UNL     1      -6.614  52.993  52.869  0.00  0.00    +0.000 NA
ATOM     23  N   UNL     1      -5.164  54.445  51.577  0.00  0.00    +0.000 NA
ATOM     24  C   UNL     1      -5.696  52.020  52.717  0.00  0.00    +0.000 A 
ATOM     25  C   UNL     1      -4.280  53.435  51.499  0.00  0.00    +0.000 A 
ATOM     26  C   UNL     1      -4.500  52.189  52.047  0.00  0.00    +0.000 A 
ENDBRANCH  18  21
ENDBRANCH  12  18
ENDBRANCH   1  15
BRANCH   3  27
ATOM     27  C   UNL     1     -11.071  55.568  47.329  0.00  0.00    +0.000 C 
ATOM     28  O   UNL     1     -11.884  55.947  46.495  0.00  0.00    +0.000 OA
BRANCH  27  29
ATOM     29  O   UNL     1     -11.056  55.983  48.625  0.00  0.00    +0.000 OA
BRANCH  29  30
ATOM     30  C   UNL     1     -12.108  55.561  49.485  0.00  0.00    +0.000 C 
ATOM     31  C   UNL     1     -12.250  54.058  49.426  0.00  0.00    +0.000 C 
ENDBRANCH  29  30
ENDBRANCH  27  29
ENDBRANCH   3  27
TORSDOF 6
ENDMDL
MODEL 9
REMARK VINA RESULT:      -6.5      3.429      7.754
REMARK  Name = 
REMARK  9 active torsions:
REMARK  status: ('A' for Active; 'I' for Inactive)
REMARK    1  A    between atoms: S_1  and  N_4
REMARK    2  A    between atoms: S_1  and  C_5
REMARK    3  A    between atoms: N_10  and  C_13
REMARK    4  A    between atoms: C_16  and  C_19
REMARK    5  A    between atoms: C_19  and  O_23
REMARK    6  A    between atoms: O_23  and  C_26
REMARK    7  A    between atoms: C_24  and  C_27
REMARK    8  A    between atoms: C_24  and  C_28
REMARK    9  A    between atoms: C_26  and  C_29
REMARK                            x       y       z     vdW  Elec       q    Type
REMARK                         _______ _______ _______ _____ _____    ______ ____
ROOT
ATOM      1  C   UNL     1     -10.068  53.449  49.214  0.00  0.00    +0.000 A 
ATOM      2  S   UNL     1      -9.256  52.137  48.485  0.00  0.00    +0.000 S 
ATOM      3  C   UNL     1     -10.701  54.269  48.287  0.00  0.00    +0.000 A 
ATOM      4  C   UNL     1      -9.917  52.497  46.945  0.00  0.00    +0.000 A 
ATOM      5  C   UNL     1     -10.678  53.655  46.978  0.00  0.00    +0.000 A 
ATOM      6  C   UNL     1      -9.680  51.654  45.700  0.00  0.00    +0.000 C 
ATOM      7  C   UNL     1     -11.321  54.218  45.743  0.00  0.00    +0.000 C 
ATOM      8  C   UNL     1     -10.013  52.463  44.397  0.00  0.00    +0.000 C 
ATOM      9  C   UNL     1     -11.355  53.212  44.594  0.00  0.00    +0.000 C 
ATOM     10  C   UNL     1     -10.188  51.548  43.166  0.00  0.00    +0.000 C 
ATOM     11  C   UNL     1      -8.869  53.449  44.077  0.00  0.00    +0.000 C 
ENDROOT
BRANCH   1  15
ATOM     12  N   UNL     1      -8.830  54.306  52.520  0.00  0.00    +0.000 N 
ATOM     13  C   UNL     1      -8.909  54.220  51.133  0.00  0.00    +0.000 C 
ATOM     14  O   UNL     1      -8.058  54.761  50.438  0.00  0.00    +0.000 OA
ATOM     15  N   UNL     1      -9.995  53.545  50.603  0.00  0.00    +0.000 N 
ATOM     16  H   UNL     1      -9.489  53.833  53.078  0.00  0.00    +0.000 HD
ATOM     17  H   UNL     1     -10.686  53.150  51.182  0.00  0.00    +0.000 HD
BRANCH  12  18
ATOM     18  S   UNL     1      -7.603  55.220  53.257  0.00  0.00    +0.000 S 
ATOM     19  O   UNL     1      -8.069  55.571  54.594  0.00  0.00    +0.000 OA
ATOM     20  O   UNL     1      -7.295  56.287  52.318  0.00  0.00    +0.000 OA
BRANCH  18  21
ATOM     21  C   UNL     1      -6.152  54.136  53.355  0.00  0.00    +0.000 A 
ATOM     22  N   UNL     1      -6.414  52.808  53.406  0.00  0.00    +0.000 NA
ATOM     23  N   UNL     1      -4.939  54.731  53.323  0.00  0.00    +0.000 NA
ATOM     24  C   UNL     1      -5.317  52.028  53.430  0.00  0.00    +0.000 A 
ATOM     25  C   UNL     1      -3.893  53.888  53.385  0.00  0.00    +0.000 A 
ATOM     26  C   UNL     1      -4.025  52.517  53.431  0.00  0.00    +0.000 A 
ENDBRANCH  18  21
ENDBRANCH  12  18
ENDBRANCH   1  15
BRANCH   3  27
ATOM     27  C   UNL     1     -11.226  55.610  48.577  0.00  0.00    +0.000 C 
ATOM     28  O   UNL     1     -10.537  56.532  48.999  0.00  0.00    +0.000 OA
BRANCH  27  29
ATOM     29  O   UNL     1     -12.583  55.649  48.488  0.00  0.00    +0.000 OA
BRANCH  29  30
ATOM     30  C   UNL     1     -13.238  56.901  48.660  0.00  0.00    +0.000 C 
ATOM     31  C   UNL     1     -13.902  57.316  47.367  0.00  0.00    +0.000 C 
ENDBRANCH  29  30
ENDBRANCH  27  29
ENDBRANCH   3  27
TORSDOF 6
ENDMDL
