MODEL 1
REMARK VINA RESULT:      -7.8      0.000      0.000
REMARK  Name = 
REMARK  9 active torsions:
REMARK  status: ('A' for Active; 'I' for Inactive)
REMARK    1  A    between atoms: S_1  and  N_4
REMARK    2  A    between atoms: S_1  and  N_5
REMARK    3  A    between atoms: N_12  and  C_13
REMARK    4  A    between atoms: C_15  and  C_18
REMARK    5  A    between atoms: C_18  and  O_22
REMARK    6  A    between atoms: O_22  and  C_25
REMARK    7  A    between atoms: C_23  and  C_26
REMARK    8  A    between atoms: C_23  and  C_27
REMARK    9  A    between atoms: C_25  and  C_28
REMARK                            x       y       z     vdW  Elec       q    Type
REMARK                         _______ _______ _______ _____ _____    ______ ____
ROOT
ATOM      1  C   UNL     1     -11.326  53.821  47.814  0.00  0.00    +0.000 A 
ATOM      2  S   UNL     1     -12.005  53.051  46.447  0.00  0.00    +0.000 S 
ATOM      3  C   UNL     1      -9.992  54.144  47.621  0.00  0.00    +0.000 A 
ATOM      4  C   UNL     1     -10.584  53.288  45.513  0.00  0.00    +0.000 A 
ATOM      5  C   UNL     1      -9.592  53.912  46.250  0.00  0.00    +0.000 A 
ATOM      6  C   UNL     1     -10.425  52.836  44.068  0.00  0.00    +0.000 C 
ATOM      7  C   UNL     1      -8.224  54.168  45.681  0.00  0.00    +0.000 C 
ATOM      8  C   UNL     1      -8.908  52.730  43.672  0.00  0.00    +0.000 C 
ATOM      9  C   UNL     1      -8.168  53.994  44.167  0.00  0.00    +0.000 C 
ATOM     10  C   UNL     1      -8.705  52.667  42.145  0.00  0.00    +0.000 C 
ATOM     11  C   UNL     1      -8.288  51.451  44.274  0.00  0.00    +0.000 C 
ENDROOT
BRANCH   1  15
ATOM     12  N   UNL     1     -13.825  55.261  50.103  0.00  0.00    +0.000 N 
ATOM     13  C   UNL     1     -12.896  55.186  49.010  0.00  0.00    +0.000 C 
ATOM     14  O   UNL     1     -12.805  56.066  48.181  0.00  0.00    +0.000 OA
ATOM     15  N   UNL     1     -12.165  54.002  48.928  0.00  0.00    +0.000 N 
ATOM     16  H   UNL     1     -13.911  54.539  50.766  0.00  0.00    +0.000 HD
ATOM     17  H   UNL     1     -12.235  53.312  49.628  0.00  0.00    +0.000 HD
BRANCH  12  18
ATOM     18  S   UNL     1     -14.760  56.662  50.179  0.00  0.00    +0.000 S 
ATOM     19  O   UNL     1     -14.690  57.289  48.876  0.00  0.00    +0.000 OA
ATOM     20  O   UNL     1     -16.012  56.370  50.823  0.00  0.00    +0.000 OA
BRANCH  18  21
ATOM     21  N   UNL     1     -13.918  57.720  51.231  0.00  0.00    +0.000 NA
ATOM     22  C   UNL     1     -13.792  57.368  52.666  0.00  0.00    +0.000 C 
ATOM     23  C   UNL     1     -14.579  59.088  51.262  0.00  0.00    +0.000 C 
ATOM     24  C   UNL     1     -15.064  57.883  53.316  0.00  0.00    +0.000 C 
ATOM     25  C   UNL     1     -15.305  59.204  52.607  0.00  0.00    +0.000 C 
ENDBRANCH  18  21
ENDBRANCH  12  18
ENDBRANCH   1  15
BRANCH   3  26
ATOM     26  C   UNL     1      -9.108  54.597  48.690  0.00  0.00    +0.000 C 
ATOM     27  O   UNL     1      -8.078  54.001  49.018  0.00  0.00    +0.000 OA
BRANCH  26  28
ATOM     28  O   UNL     1      -9.546  55.746  49.262  0.00  0.00    +0.000 OA
BRANCH  28  29
ATOM     29  C   UNL     1      -9.182  55.984  50.620  0.00  0.00    +0.000 C 
ATOM     30  C   UNL     1     -10.173  55.316  51.549  0.00  0.00    +0.000 C 
ENDBRANCH  28  29
ENDBRANCH  26  28
ENDBRANCH   3  26
TORSDOF 6
ENDMDL
MODEL 2
REMARK VINA RESULT:      -7.6      3.005      5.547
REMARK  Name = 
REMARK  9 active torsions:
REMARK  status: ('A' for Active; 'I' for Inactive)
REMARK    1  A    between atoms: S_1  and  N_4
REMARK    2  A    between atoms: S_1  and  N_5
REMARK    3  A    between atoms: N_12  and  C_13
REMARK    4  A    between atoms: C_15  and  C_18
REMARK    5  A    between atoms: C_18  and  O_22
REMARK    6  A    between atoms: O_22  and  C_25
REMARK    7  A    between atoms: C_23  and  C_26
REMARK    8  A    between atoms: C_23  and  C_27
REMARK    9  A    between atoms: C_25  and  C_28
REMARK                            x       y       z     vdW  Elec       q    Type
REMARK                         _______ _______ _______ _____ _____    ______ ____
ROOT
ATOM      1  C   UNL     1     -11.106  53.712  51.680  0.00  0.00    +0.000 A 
ATOM      2  S   UNL     1     -10.803  52.794  53.090  0.00  0.00    +0.000 S 
ATOM      3  C   UNL     1      -9.939  54.197  51.113  0.00  0.00    +0.000 A 
ATOM      4  C   UNL     1      -9.102  52.885  52.874  0.00  0.00    +0.000 A 
ATOM      5  C   UNL     1      -8.772  53.639  51.762  0.00  0.00    +0.000 A 
ATOM      6  C   UNL     1      -8.086  52.245  53.811  0.00  0.00    +0.000 C 
ATOM      7  C   UNL     1      -7.343  53.928  51.396  0.00  0.00    +0.000 C 
ATOM      8  C   UNL     1      -6.672  52.911  53.651  0.00  0.00    +0.000 C 
ATOM      9  C   UNL     1      -6.347  53.050  52.145  0.00  0.00    +0.000 C 
ATOM     10  C   UNL     1      -5.549  52.054  54.268  0.00  0.00    +0.000 C 
ATOM     11  C   UNL     1      -6.645  54.284  54.355  0.00  0.00    +0.000 C 
ENDROOT
BRANCH   1  15
ATOM     12  N   UNL     1     -14.406  55.234  51.091  0.00  0.00    +0.000 N 
ATOM     13  C   UNL     1     -13.076  55.080  51.611  0.00  0.00    +0.000 C 
ATOM     14  O   UNL     1     -12.516  55.965  52.220  0.00  0.00    +0.000 OA
ATOM     15  N   UNL     1     -12.450  53.873  51.300  0.00  0.00    +0.000 N 
ATOM     16  H   UNL     1     -14.854  54.521  50.582  0.00  0.00    +0.000 HD
ATOM     17  H   UNL     1     -12.934  53.158  50.827  0.00  0.00    +0.000 HD
BRANCH  12  18
ATOM     18  S   UNL     1     -15.153  56.712  51.408  0.00  0.00    +0.000 S 
ATOM     19  O   UNL     1     -16.172  56.897  50.397  0.00  0.00    +0.000 OA
ATOM     20  O   UNL     1     -15.440  56.814  52.813  0.00  0.00    +0.000 OA
BRANCH  18  21
ATOM     21  N   UNL     1     -13.971  57.907  51.075  0.00  0.00    +0.000 NA
ATOM     22  C   UNL     1     -14.194  59.298  51.539  0.00  0.00    +0.000 C 
ATOM     23  C   UNL     1     -13.770  58.065  49.577  0.00  0.00    +0.000 C 
ATOM     24  C   UNL     1     -15.028  59.952  50.451  0.00  0.00    +0.000 C 
ATOM     25  C   UNL     1     -14.436  59.385  49.173  0.00  0.00    +0.000 C 
ENDBRANCH  18  21
ENDBRANCH  12  18
ENDBRANCH   1  15
BRANCH   3  26
ATOM     26  C   UNL     1      -9.912  55.191  50.043  0.00  0.00    +0.000 C 
ATOM     27  O   UNL     1      -9.409  56.311  50.170  0.00  0.00    +0.000 OA
BRANCH  26  28
ATOM     28  O   UNL     1     -10.489  54.730  48.906  0.00  0.00    +0.000 OA
BRANCH  28  29
ATOM     29  C   UNL     1     -11.308  55.638  48.171  0.00  0.00    +0.000 C 
ATOM     30  C   UNL     1     -11.618  55.068  46.804  0.00  0.00    +0.000 C 
ENDBRANCH  28  29
ENDBRANCH  26  28
ENDBRANCH   3  26
TORSDOF 6
ENDMDL
MODEL 3
REMARK VINA RESULT:      -7.6      2.779      4.817
REMARK  Name = 
REMARK  9 active torsions:
REMARK  status: ('A' for Active; 'I' for Inactive)
REMARK    1  A    between atoms: S_1  and  N_4
REMARK    2  A    between atoms: S_1  and  N_5
REMARK    3  A    between atoms: N_12  and  C_13
REMARK    4  A    between atoms: C_15  and  C_18
REMARK    5  A    between atoms: C_18  and  O_22
REMARK    6  A    between atoms: O_22  and  C_25
REMARK    7  A    between atoms: C_23  and  C_26
REMARK    8  A    between atoms: C_23  and  C_27
REMARK    9  A    between atoms: C_25  and  C_28
REMARK                            x       y       z     vdW  Elec       q    Type
REMARK                         _______ _______ _______ _____ _____    ______ ____
ROOT
ATOM      1  C   UNL     1     -10.610  53.956  51.613  0.00  0.00    +0.000 A 
ATOM      2  S   UNL     1      -9.539  54.864  52.589  0.00  0.00    +0.000 S 
ATOM      3  C   UNL     1      -9.936  53.165  50.697  0.00  0.00    +0.000 A 
ATOM      4  C   UNL     1      -8.158  54.092  51.924  0.00  0.00    +0.000 A 
ATOM      5  C   UNL     1      -8.510  53.182  50.943  0.00  0.00    +0.000 A 
ATOM      6  C   UNL     1      -6.725  54.398  52.339  0.00  0.00    +0.000 C 
ATOM      7  C   UNL     1      -7.475  52.426  50.156  0.00  0.00    +0.000 C 
ATOM      8  C   UNL     1      -5.706  53.932  51.238  0.00  0.00    +0.000 C 
ATOM      9  C   UNL     1      -6.083  52.506  50.772  0.00  0.00    +0.000 C 
ATOM     10  C   UNL     1      -4.262  53.855  51.772  0.00  0.00    +0.000 C 
ATOM     11  C   UNL     1      -5.709  54.922  50.054  0.00  0.00    +0.000 C 
ENDROOT
BRANCH   1  15
ATOM     12  N   UNL     1     -14.041  55.268  51.369  0.00  0.00    +0.000 N 
ATOM     13  C   UNL     1     -12.615  55.208  51.203  0.00  0.00    +0.000 C 
ATOM     14  O   UNL     1     -12.014  55.995  50.505  0.00  0.00    +0.000 OA
ATOM     15  N   UNL     1     -11.987  54.136  51.836  0.00  0.00    +0.000 N 
ATOM     16  H   UNL     1     -14.531  54.618  51.921  0.00  0.00    +0.000 HD
ATOM     17  H   UNL     1     -12.491  53.525  52.420  0.00  0.00    +0.000 HD
BRANCH  12  18
ATOM     18  S   UNL     1     -14.823  56.523  50.559  0.00  0.00    +0.000 S 
ATOM     19  O   UNL     1     -14.527  56.367  49.150  0.00  0.00    +0.000 OA
ATOM     20  O   UNL     1     -16.169  56.647  51.050  0.00  0.00    +0.000 OA
BRANCH  18  21
ATOM     21  N   UNL     1     -14.009  57.955  51.031  0.00  0.00    +0.000 NA
ATOM     22  C   UNL     1     -14.731  58.968  51.838  0.00  0.00    +0.000 C 
ATOM     23  C   UNL     1     -13.548  58.740  49.814  0.00  0.00    +0.000 C 
ATOM     24  C   UNL     1     -15.468  59.831  50.828  0.00  0.00    +0.000 C 
ATOM     25  C   UNL     1     -14.474  59.955  49.688  0.00  0.00    +0.000 C 
ENDBRANCH  18  21
ENDBRANCH  12  18
ENDBRANCH   1  15
BRANCH   3  26
ATOM     26  C   UNL     1     -10.591  52.466  49.596  0.00  0.00    +0.000 C 
ATOM     27  O   UNL     1     -10.700  51.238  49.540  0.00  0.00    +0.000 OA
BRANCH  26  28
ATOM     28  O   UNL     1     -11.070  53.323  48.661  0.00  0.00    +0.000 OA
BRANCH  28  29
ATOM     29  C   UNL     1     -10.212  53.652  47.570  0.00  0.00    +0.000 C 
ATOM     30  C   UNL     1      -9.945  55.142  47.550  0.00  0.00    +0.000 C 
ENDBRANCH  28  29
ENDBRANCH  26  28
ENDBRANCH   3  26
TORSDOF 6
ENDMDL
MODEL 4
REMARK VINA RESULT:      -7.5      3.129      8.469
REMARK  Name = 
REMARK  9 active torsions:
REMARK  status: ('A' for Active; 'I' for Inactive)
REMARK    1  A    between atoms: S_1  and  N_4
REMARK    2  A    between atoms: S_1  and  N_5
REMARK    3  A    between atoms: N_12  and  C_13
REMARK    4  A    between atoms: C_15  and  C_18
REMARK    5  A    between atoms: C_18  and  O_22
REMARK    6  A    between atoms: O_22  and  C_25
REMARK    7  A    between atoms: C_23  and  C_26
REMARK    8  A    between atoms: C_23  and  C_27
REMARK    9  A    between atoms: C_25  and  C_28
REMARK                            x       y       z     vdW  Elec       q    Type
REMARK                         _______ _______ _______ _____ _____    ______ ____
ROOT
ATOM      1  C   UNL     1     -11.018  55.151  50.452  0.00  0.00    +0.000 A 
ATOM      2  S   UNL     1     -11.531  55.265  52.079  0.00  0.00    +0.000 S 
ATOM      3  C   UNL     1     -11.776  55.948  49.610  0.00  0.00    +0.000 A 
ATOM      4  C   UNL     1     -12.659  56.508  51.715  0.00  0.00    +0.000 A 
ATOM      5  C   UNL     1     -12.669  56.802  50.363  0.00  0.00    +0.000 A 
ATOM      6  C   UNL     1     -13.559  57.175  52.747  0.00  0.00    +0.000 C 
ATOM      7  C   UNL     1     -13.623  57.806  49.778  0.00  0.00    +0.000 C 
ATOM      8  C   UNL     1     -14.789  57.869  52.060  0.00  0.00    +0.000 C 
ATOM      9  C   UNL     1     -14.296  58.674  50.836  0.00  0.00    +0.000 C 
ATOM     10  C   UNL     1     -15.492  58.872  52.996  0.00  0.00    +0.000 C 
ATOM     11  C   UNL     1     -15.835  56.812  51.645  0.00  0.00    +0.000 C 
ENDROOT
BRANCH   1  15
ATOM     12  N   UNL     1      -7.606  53.802  50.141  0.00  0.00    +0.000 N 
ATOM     13  C   UNL     1      -8.653  54.772  50.313  0.00  0.00    +0.000 C 
ATOM     14  O   UNL     1      -8.423  55.921  50.620  0.00  0.00    +0.000 OA
ATOM     15  N   UNL     1      -9.950  54.278  50.178  0.00  0.00    +0.000 N 
ATOM     16  H   UNL     1      -7.795  52.865  49.909  0.00  0.00    +0.000 HD
ATOM     17  H   UNL     1     -10.113  53.347  49.902  0.00  0.00    +0.000 HD
BRANCH  12  18
ATOM     18  S   UNL     1      -6.035  54.371  50.361  0.00  0.00    +0.000 S 
ATOM     19  O   UNL     1      -5.904  55.574  49.566  0.00  0.00    +0.000 OA
ATOM     20  O   UNL     1      -5.703  54.339  51.760  0.00  0.00    +0.000 OA
BRANCH  18  21
ATOM     21  N   UNL     1      -5.017  53.220  49.602  0.00  0.00    +0.000 NA
ATOM     22  C   UNL     1      -4.362  53.567  48.318  0.00  0.00    +0.000 C 
ATOM     23  C   UNL     1      -5.788  51.953  49.272  0.00  0.00    +0.000 C 
ATOM     24  C   UNL     1      -5.384  53.233  47.246  0.00  0.00    +0.000 C 
ATOM     25  C   UNL     1      -6.014  51.949  47.756  0.00  0.00    +0.000 C 
ENDBRANCH  18  21
ENDBRANCH  12  18
ENDBRANCH   1  15
BRANCH   3  26
ATOM     26  C   UNL     1     -11.711  55.876  48.153  0.00  0.00    +0.000 C 
ATOM     27  O   UNL     1     -12.710  55.832  47.430  0.00  0.00    +0.000 OA
BRANCH  26  28
ATOM     28  O   UNL     1     -10.433  55.878  47.699  0.00  0.00    +0.000 OA
BRANCH  28  29
ATOM     29  C   UNL     1     -10.109  54.971  46.647  0.00  0.00    +0.000 C 
ATOM     30  C   UNL     1      -8.629  55.040  46.340  0.00  0.00    +0.000 C 
ENDBRANCH  28  29
ENDBRANCH  26  28
ENDBRANCH   3  26
TORSDOF 6
ENDMDL
MODEL 5
REMARK VINA RESULT:      -7.2      3.610      5.616
REMARK  Name = 
REMARK  9 active torsions:
REMARK  status: ('A' for Active; 'I' for Inactive)
REMARK    1  A    between atoms: S_1  and  N_4
REMARK    2  A    between atoms: S_1  and  N_5
REMARK    3  A    between atoms: N_12  and  C_13
REMARK    4  A    between atoms: C_15  and  C_18
REMARK    5  A    between atoms: C_18  and  O_22
REMARK    6  A    between atoms: O_22  and  C_25
REMARK    7  A    between atoms: C_23  and  C_26
REMARK    8  A    between atoms: C_23  and  C_27
REMARK    9  A    between atoms: C_25  and  C_28
REMARK                            x       y       z     vdW  Elec       q    Type
REMARK                         _______ _______ _______ _____ _____    ______ ____
ROOT
ATOM      1  C   UNL     1      -8.711  54.859  47.382  0.00  0.00    +0.000 A 
ATOM      2  S   UNL     1      -7.492  53.957  46.592  0.00  0.00    +0.000 S 
ATOM      3  C   UNL     1      -9.969  54.601  46.862  0.00  0.00    +0.000 A 
ATOM      4  C   UNL     1      -8.638  53.081  45.661  0.00  0.00    +0.000 A 
ATOM      5  C   UNL     1      -9.930  53.501  45.923  0.00  0.00    +0.000 A 
ATOM      6  C   UNL     1      -8.273  52.003  44.649  0.00  0.00    +0.000 C 
ATOM      7  C   UNL     1     -11.112  52.938  45.182  0.00  0.00    +0.000 C 
ATOM      8  C   UNL     1      -9.444  51.766  43.629  0.00  0.00    +0.000 C 
ATOM      9  C   UNL     1     -10.778  51.670  44.405  0.00  0.00    +0.000 C 
ATOM     10  C   UNL     1      -9.287  50.441  42.855  0.00  0.00    +0.000 C 
ATOM     11  C   UNL     1      -9.486  52.906  42.589  0.00  0.00    +0.000 C 
ENDROOT
BRANCH   1  15
ATOM     12  N   UNL     1      -7.773  56.155  50.698  0.00  0.00    +0.000 N 
ATOM     13  C   UNL     1      -8.321  55.262  49.714  0.00  0.00    +0.000 C 
ATOM     14  O   UNL     1      -8.712  54.151  50.000  0.00  0.00    +0.000 OA
ATOM     15  N   UNL     1      -8.298  55.734  48.402  0.00  0.00    +0.000 N 
ATOM     16  H   UNL     1      -7.440  57.050  50.462  0.00  0.00    +0.000 HD
ATOM     17  H   UNL     1      -8.001  56.650  48.197  0.00  0.00    +0.000 HD
BRANCH  12  18
ATOM     18  S   UNL     1      -7.738  55.575  52.280  0.00  0.00    +0.000 S 
ATOM     19  O   UNL     1      -7.003  56.541  53.069  0.00  0.00    +0.000 OA
ATOM     20  O   UNL     1      -9.049  55.119  52.654  0.00  0.00    +0.000 OA
BRANCH  18  21
ATOM     21  N   UNL     1      -6.742  54.181  52.238  0.00  0.00    +0.000 NA
ATOM     22  C   UNL     1      -7.168  52.962  52.967  0.00  0.00    +0.000 C 
ATOM     23  C   UNL     1      -5.371  54.479  52.823  0.00  0.00    +0.000 C 
ATOM     24  C   UNL     1      -6.676  53.157  54.391  0.00  0.00    +0.000 C 
ATOM     25  C   UNL     1      -5.319  53.811  54.202  0.00  0.00    +0.000 C 
ENDBRANCH  18  21
ENDBRANCH  12  18
ENDBRANCH   1  15
BRANCH   3  26
ATOM     26  C   UNL     1     -11.155  55.389  47.186  0.00  0.00    +0.000 C 
ATOM     27  O   UNL     1     -11.783  56.045  46.350  0.00  0.00    +0.000 OA
BRANCH  26  28
ATOM     28  O   UNL     1     -11.483  55.301  48.499  0.00  0.00    +0.000 OA
BRANCH  28  29
ATOM     29  C   UNL     1     -12.145  54.114  48.931  0.00  0.00    +0.000 C 
ATOM     30  C   UNL     1     -12.179  54.060  50.443  0.00  0.00    +0.000 C 
ENDBRANCH  28  29
ENDBRANCH  26  28
ENDBRANCH   3  26
TORSDOF 6
ENDMDL
MODEL 6
REMARK VINA RESULT:      -7.1      2.294      2.782
REMARK  Name = 
REMARK  9 active torsions:
REMARK  status: ('A' for Active; 'I' for Inactive)
REMARK    1  A    between atoms: S_1  and  N_4
REMARK    2  A    between atoms: S_1  and  N_5
REMARK    3  A    between atoms: N_12  and  C_13
REMARK    4  A    between atoms: C_15  and  C_18
REMARK    5  A    between atoms: C_18  and  O_22
REMARK    6  A    between atoms: O_22  and  C_25
REMARK    7  A    between atoms: C_23  and  C_26
REMARK    8  A    between atoms: C_23  and  C_27
REMARK    9  A    between atoms: C_25  and  C_28
REMARK                            x       y       z     vdW  Elec       q    Type
REMARK                         _______ _______ _______ _____ _____    ______ ____
ROOT
ATOM      1  C   UNL     1     -11.638  52.481  47.864  0.00  0.00    +0.000 A 
ATOM      2  S   UNL     1     -11.784  53.025  46.249  0.00  0.00    +0.000 S 
ATOM      3  C   UNL     1     -10.598  51.579  48.018  0.00  0.00    +0.000 A 
ATOM      4  C   UNL     1     -10.360  52.199  45.763  0.00  0.00    +0.000 A 
ATOM      5  C   UNL     1      -9.804  51.487  46.812  0.00  0.00    +0.000 A 
ATOM      6  C   UNL     1      -9.801  52.220  44.347  0.00  0.00    +0.000 C 
ATOM      7  C   UNL     1      -8.589  50.621  46.625  0.00  0.00    +0.000 C 
ATOM      8  C   UNL     1      -8.832  51.008  44.103  0.00  0.00    +0.000 C 
ATOM      9  C   UNL     1      -7.869  50.881  45.307  0.00  0.00    +0.000 C 
ATOM     10  C   UNL     1      -7.952  51.204  42.852  0.00  0.00    +0.000 C 
ATOM     11  C   UNL     1      -9.641  49.710  43.900  0.00  0.00    +0.000 C 
ENDROOT
BRANCH   1  15
ATOM     12  N   UNL     1     -13.304  54.693  50.291  0.00  0.00    +0.000 N 
ATOM     13  C   UNL     1     -12.263  54.171  49.449  0.00  0.00    +0.000 C 
ATOM     14  O   UNL     1     -11.221  54.762  49.271  0.00  0.00    +0.000 OA
ATOM     15  N   UNL     1     -12.570  52.979  48.792  0.00  0.00    +0.000 N 
ATOM     16  H   UNL     1     -14.157  54.221  50.420  0.00  0.00    +0.000 HD
ATOM     17  H   UNL     1     -13.412  52.503  48.972  0.00  0.00    +0.000 HD
BRANCH  12  18
ATOM     18  S   UNL     1     -12.972  56.165  51.043  0.00  0.00    +0.000 S 
ATOM     19  O   UNL     1     -12.062  55.886  52.134  0.00  0.00    +0.000 OA
ATOM     20  O   UNL     1     -12.690  57.162  50.046  0.00  0.00    +0.000 OA
BRANCH  18  21
ATOM     21  N   UNL     1     -14.437  56.641  51.793  0.00  0.00    +0.000 NA
ATOM     22  C   UNL     1     -15.467  57.345  50.991  0.00  0.00    +0.000 C 
ATOM     23  C   UNL     1     -14.169  57.600  52.940  0.00  0.00    +0.000 C 
ATOM     24  C   UNL     1     -15.074  58.812  51.038  0.00  0.00    +0.000 C 
ATOM     25  C   UNL     1     -14.591  58.995  52.465  0.00  0.00    +0.000 C 
ENDBRANCH  18  21
ENDBRANCH  12  18
ENDBRANCH   1  15
BRANCH   3  26
ATOM     26  C   UNL     1     -10.388  50.787  49.226  0.00  0.00    +0.000 C 
ATOM     27  O   UNL     1     -10.488  49.557  49.258  0.00  0.00    +0.000 OA
BRANCH  26  28
ATOM     28  O   UNL     1     -10.059  51.559  50.291  0.00  0.00    +0.000 OA
BRANCH  28  29
ATOM     29  C   UNL     1     -10.424  51.083  51.585  0.00  0.00    +0.000 C 
ATOM     30  C   UNL     1     -11.197  52.149  52.331  0.00  0.00    +0.000 C 
ENDBRANCH  28  29
ENDBRANCH  26  28
ENDBRANCH   3  26
TORSDOF 6
ENDMDL
MODEL 7
REMARK VINA RESULT:      -7.1      1.734      2.014
REMARK  Name = 
REMARK  9 active torsions:
REMARK  status: ('A' for Active; 'I' for Inactive)
REMARK    1  A    between atoms: S_1  and  N_4
REMARK    2  A    between atoms: S_1  and  N_5
REMARK    3  A    between atoms: N_12  and  C_13
REMARK    4  A    between atoms: C_15  and  C_18
REMARK    5  A    between atoms: C_18  and  O_22
REMARK    6  A    between atoms: O_22  and  C_25
REMARK    7  A    between atoms: C_23  and  C_26
REMARK    8  A    between atoms: C_23  and  C_27
REMARK    9  A    between atoms: C_25  and  C_28
REMARK                            x       y       z     vdW  Elec       q    Type
REMARK                         _______ _______ _______ _____ _____    ______ ____
ROOT
ATOM      1  C   UNL     1     -10.672  55.105  47.129  0.00  0.00    +0.000 A 
ATOM      2  S   UNL     1     -11.754  54.568  45.919  0.00  0.00    +0.000 S 
ATOM      3  C   UNL     1      -9.440  54.479  47.040  0.00  0.00    +0.000 A 
ATOM      4  C   UNL     1     -10.545  53.620  45.152  0.00  0.00    +0.000 A 
ATOM      5  C   UNL     1      -9.344  53.683  45.836  0.00  0.00    +0.000 A 
ATOM      6  C   UNL     1     -10.778  52.786  43.899  0.00  0.00    +0.000 C 
ATOM      7  C   UNL     1      -8.145  52.882  45.407  0.00  0.00    +0.000 C 
ATOM      8  C   UNL     1      -9.680  51.674  43.747  0.00  0.00    +0.000 C 
ATOM      9  C   UNL     1      -8.289  52.300  44.006  0.00  0.00    +0.000 C 
ATOM     10  C   UNL     1      -9.641  51.081  42.325  0.00  0.00    +0.000 C 
ATOM     11  C   UNL     1      -9.957  50.512  44.725  0.00  0.00    +0.000 C 
ENDROOT
BRANCH   1  15
ATOM     12  N   UNL     1     -12.334  56.609  50.050  0.00  0.00    +0.000 N 
ATOM     13  C   UNL     1     -11.971  55.611  49.082  0.00  0.00    +0.000 C 
ATOM     14  O   UNL     1     -12.296  54.450  49.201  0.00  0.00    +0.000 OA
ATOM     15  N   UNL     1     -11.157  56.058  48.042  0.00  0.00    +0.000 N 
ATOM     16  H   UNL     1     -12.055  57.548  49.962  0.00  0.00    +0.000 HD
ATOM     17  H   UNL     1     -10.928  57.012  47.950  0.00  0.00    +0.000 HD
BRANCH  12  18
ATOM     18  S   UNL     1     -13.268  56.070  51.346  0.00  0.00    +0.000 S 
ATOM     19  O   UNL     1     -13.584  54.680  51.091  0.00  0.00    +0.000 OA
ATOM     20  O   UNL     1     -12.674  56.506  52.581  0.00  0.00    +0.000 OA
BRANCH  18  21
ATOM     21  N   UNL     1     -14.761  56.900  51.215  0.00  0.00    +0.000 NA
ATOM     22  C   UNL     1     -14.815  58.183  50.473  0.00  0.00    +0.000 C 
ATOM     23  C   UNL     1     -15.297  57.266  52.589  0.00  0.00    +0.000 C 
ATOM     24  C   UNL     1     -14.419  59.245  51.484  0.00  0.00    +0.000 C 
ATOM     25  C   UNL     1     -15.093  58.776  52.761  0.00  0.00    +0.000 C 
ENDBRANCH  18  21
ENDBRANCH  12  18
ENDBRANCH   1  15
BRANCH   3  26
ATOM     26  C   UNL     1      -8.409  54.573  48.071  0.00  0.00    +0.000 C 
ATOM     27  O   UNL     1      -7.273  55.006  47.858  0.00  0.00    +0.000 OA
BRANCH  26  28
ATOM     28  O   UNL     1      -8.855  54.143  49.277  0.00  0.00    +0.000 OA
BRANCH  28  29
ATOM     29  C   UNL     1      -9.052  52.741  49.443  0.00  0.00    +0.000 C 
ATOM     30  C   UNL     1      -9.715  52.463  50.775  0.00  0.00    +0.000 C 
ENDBRANCH  28  29
ENDBRANCH  26  28
ENDBRANCH   3  26
TORSDOF 6
ENDMDL
MODEL 8
REMARK VINA RESULT:      -7.0      3.220      3.981
REMARK  Name = 
REMARK  9 active torsions:
REMARK  status: ('A' for Active; 'I' for Inactive)
REMARK    1  A    between atoms: S_1  and  N_4
REMARK    2  A    between atoms: S_1  and  N_5
REMARK    3  A    between atoms: N_12  and  C_13
REMARK    4  A    between atoms: C_15  and  C_18
REMARK    5  A    between atoms: C_18  and  O_22
REMARK    6  A    between atoms: O_22  and  C_25
REMARK    7  A    between atoms: C_23  and  C_26
REMARK    8  A    between atoms: C_23  and  C_27
REMARK    9  A    between atoms: C_25  and  C_28
REMARK                            x       y       z     vdW  Elec       q    Type
REMARK                         _______ _______ _______ _____ _____    ______ ____
ROOT
ATOM      1  C   UNL     1      -8.791  55.457  49.691  0.00  0.00    +0.000 A 
ATOM      2  S   UNL     1      -8.090  55.275  48.142  0.00  0.00    +0.000 S 
ATOM      3  C   UNL     1      -8.231  54.596  50.621  0.00  0.00    +0.000 A 
ATOM      4  C   UNL     1      -6.913  54.168  48.722  0.00  0.00    +0.000 A 
ATOM      5  C   UNL     1      -7.080  53.913  50.072  0.00  0.00    +0.000 A 
ATOM      6  C   UNL     1      -5.843  53.522  47.851  0.00  0.00    +0.000 C 
ATOM      7  C   UNL     1      -6.218  52.920  50.803  0.00  0.00    +0.000 C 
ATOM      8  C   UNL     1      -5.274  52.222  48.524  0.00  0.00    +0.000 C 
ATOM      9  C   UNL     1      -4.979  52.513  50.014  0.00  0.00    +0.000 C 
ATOM     10  C   UNL     1      -3.945  51.769  47.890  0.00  0.00    +0.000 C 
ATOM     11  C   UNL     1      -6.278  51.060  48.374  0.00  0.00    +0.000 C 
ENDROOT
BRANCH   1  15
ATOM     12  N   UNL     1     -12.150  56.961  49.799  0.00  0.00    +0.000 N 
ATOM     13  C   UNL     1     -11.125  55.989  49.534  0.00  0.00    +0.000 C 
ATOM     14  O   UNL     1     -11.384  54.868  49.156  0.00  0.00    +0.000 OA
ATOM     15  N   UNL     1      -9.824  56.403  49.817  0.00  0.00    +0.000 N 
ATOM     16  H   UNL     1     -11.940  57.866  50.123  0.00  0.00    +0.000 HD
ATOM     17  H   UNL     1      -9.635  57.327  50.098  0.00  0.00    +0.000 HD
BRANCH  12  18
ATOM     18  S   UNL     1     -13.733  56.455  49.520  0.00  0.00    +0.000 S 
ATOM     19  O   UNL     1     -13.987  56.621  48.104  0.00  0.00    +0.000 OA
ATOM     20  O   UNL     1     -13.966  55.209  50.199  0.00  0.00    +0.000 OA
BRANCH  18  21
ATOM     21  N   UNL     1     -14.731  57.614  50.293  0.00  0.00    +0.000 NA
ATOM     22  C   UNL     1     -14.137  58.526  51.301  0.00  0.00    +0.000 C 
ATOM     23  C   UNL     1     -15.857  56.935  51.054  0.00  0.00    +0.000 C 
ATOM     24  C   UNL     1     -14.178  57.755  52.609  0.00  0.00    +0.000 C 
ATOM     25  C   UNL     1     -15.513  57.035  52.545  0.00  0.00    +0.000 C 
ENDBRANCH  18  21
ENDBRANCH  12  18
ENDBRANCH   1  15
BRANCH   3  26
ATOM     26  C   UNL     1      -8.784  54.374  51.953  0.00  0.00    +0.000 C 
ATOM     27  O   UNL     1      -9.329  53.321  52.296  0.00  0.00    +0.000 OA
BRANCH  26  28
ATOM     28  O   UNL     1      -8.616  55.451  52.761  0.00  0.00    +0.000 OA
BRANCH  28  29
ATOM     29  C   UNL     1      -7.859  55.263  53.955  0.00  0.00    +0.000 C 
ATOM     30  C   UNL     1      -6.427  55.703  53.737  0.00  0.00    +0.000 C 
ENDBRANCH  28  29
ENDBRANCH  26  28
ENDBRANCH   3  26
TORSDOF 6
ENDMDL
MODEL 9
REMARK VINA RESULT:      -7.0      3.570      5.840
REMARK  Name = 
REMARK  9 active torsions:
REMARK  status: ('A' for Active; 'I' for Inactive)
REMARK    1  A    between atoms: S_1  and  N_4
REMARK    2  A    between atoms: S_1  and  N_5
REMARK    3  A    between atoms: N_12  and  C_13
REMARK    4  A    between atoms: C_15  and  C_18
REMARK    5  A    between atoms: C_18  and  O_22
REMARK    6  A    between atoms: O_22  and  C_25
REMARK    7  A    between atoms: C_23  and  C_26
REMARK    8  A    between atoms: C_23  and  C_27
REMARK    9  A    between atoms: C_25  and  C_28
REMARK                            x       y       z     vdW  Elec       q    Type
REMARK                         _______ _______ _______ _____ _____    ______ ____
ROOT
ATOM      1  C   UNL     1     -10.270  53.290  49.210  0.00  0.00    +0.000 A 
ATOM      2  S   UNL     1      -9.552  51.916  48.488  0.00  0.00    +0.000 S 
ATOM      3  C   UNL     1     -10.836  54.137  48.271  0.00  0.00    +0.000 A 
ATOM      4  C   UNL     1     -10.132  52.340  46.929  0.00  0.00    +0.000 A 
ATOM      5  C   UNL     1     -10.830  53.534  46.955  0.00  0.00    +0.000 A 
ATOM      6  C   UNL     1      -9.878  51.520  45.670  0.00  0.00    +0.000 C 
ATOM      7  C   UNL     1     -11.379  54.159  45.702  0.00  0.00    +0.000 C 
ATOM      8  C   UNL     1     -10.078  52.391  44.378  0.00  0.00    +0.000 C 
ATOM      9  C   UNL     1     -11.387  53.203  44.515  0.00  0.00    +0.000 C 
ATOM     10  C   UNL     1     -10.222  51.529  43.108  0.00  0.00    +0.000 C 
ATOM     11  C   UNL     1      -8.866  53.323  44.169  0.00  0.00    +0.000 C 
ENDROOT
BRANCH   1  15
ATOM     12  N   UNL     1      -9.095  54.245  52.566  0.00  0.00    +0.000 N 
ATOM     13  C   UNL     1      -9.072  54.058  51.142  0.00  0.00    +0.000 C 
ATOM     14  O   UNL     1      -8.184  54.505  50.448  0.00  0.00    +0.000 OA
ATOM     15  N   UNL     1     -10.178  53.398  50.609  0.00  0.00    +0.000 N 
ATOM     16  H   UNL     1      -9.824  53.897  53.127  0.00  0.00    +0.000 HD
ATOM     17  H   UNL     1     -10.874  53.020  51.194  0.00  0.00    +0.000 HD
BRANCH  12  18
ATOM     18  S   UNL     1      -7.793  55.096  53.217  0.00  0.00    +0.000 S 
ATOM     19  O   UNL     1      -7.253  55.920  52.157  0.00  0.00    +0.000 OA
ATOM     20  O   UNL     1      -8.165  55.638  54.496  0.00  0.00    +0.000 OA
BRANCH  18  21
ATOM     21  N   UNL     1      -6.585  53.921  53.530  0.00  0.00    +0.000 NA
ATOM     22  C   UNL     1      -5.810  53.997  54.793  0.00  0.00    +0.000 C 
ATOM     23  C   UNL     1      -5.510  53.953  52.456  0.00  0.00    +0.000 C 
ATOM     24  C   UNL     1      -4.670  54.958  54.503  0.00  0.00    +0.000 C 
ATOM     25  C   UNL     1      -4.272  54.606  53.082  0.00  0.00    +0.000 C 
ENDBRANCH  18  21
ENDBRANCH  12  18
ENDBRANCH   1  15
BRANCH   3  26
ATOM     26  C   UNL     1     -11.312  55.482  48.577  0.00  0.00    +0.000 C 
ATOM     27  O   UNL     1     -10.559  56.432  48.812  0.00  0.00    +0.000 OA
BRANCH  26  28
ATOM     28  O   UNL     1     -12.666  55.560  48.560  0.00  0.00    +0.000 OA
BRANCH  28  29
ATOM     29  C   UNL     1     -13.251  56.851  48.720  0.00  0.00    +0.000 C 
ATOM     30  C   UNL     1     -13.901  57.290  47.426  0.00  0.00    +0.000 C 
ENDBRANCH  28  29
ENDBRANCH  26  28
ENDBRANCH   3  26
TORSDOF 6
ENDMDL
