MODEL 1
REMARK VINA RESULT:      -7.4      0.000      0.000
REMARK  Name = 
REMARK  10 active torsions:
REMARK  status: ('A' for Active; 'I' for Inactive)
REMARK    1  A    between atoms: S_1  and  N_4
REMARK    2  A    between atoms: S_1  and  C_5
REMARK    3  A    between atoms: N_10  and  C_13
REMARK    4  A    between atoms: C_14  and  C_17
REMARK    5  A    between atoms: C_16  and  C_20
REMARK    6  A    between atoms: C_20  and  O_24
REMARK    7  A    between atoms: O_24  and  C_27
REMARK    8  A    between atoms: C_25  and  C_28
REMARK    9  A    between atoms: C_25  and  C_29
REMARK   10  A    between atoms: C_27  and  C_30
REMARK                            x       y       z     vdW  Elec       q    Type
REMARK                         _______ _______ _______ _____ _____    ______ ____
ROOT
ATOM      1  N   UNL     1      -9.664  51.745  48.751  0.00  0.00    +0.000 N 
ATOM      2  C   UNL     1     -10.692  52.644  49.056  0.00  0.00    +0.000 C 
ATOM      3  O   UNL     1     -11.810  52.516  48.565  0.00  0.00    +0.000 OA
ATOM      4  N   UNL     1     -10.340  53.723  49.856  0.00  0.00    +0.000 N 
ATOM      5  H   UNL     1      -8.775  51.902  49.145  0.00  0.00    +0.000 HD
ATOM      6  H   UNL     1      -9.434  53.804  50.233  0.00  0.00    +0.000 HD
ENDROOT
BRANCH   4   7
ATOM      7  C   UNL     1     -11.317  54.686  50.107  0.00  0.00    +0.000 A 
ATOM      8  S   UNL     1     -11.999  54.714  51.669  0.00  0.00    +0.000 S 
ATOM      9  C   UNL     1     -11.820  55.686  49.290  0.00  0.00    +0.000 A 
ATOM     10  C   UNL     1     -12.820  56.188  51.357  0.00  0.00    +0.000 A 
ATOM     11  C   UNL     1     -12.619  56.617  50.057  0.00  0.00    +0.000 A 
ATOM     12  C   UNL     1     -13.671  56.920  52.382  0.00  0.00    +0.000 C 
ATOM     13  C   UNL     1     -13.269  57.861  49.521  0.00  0.00    +0.000 C 
ATOM     14  C   UNL     1     -14.634  57.947  51.691  0.00  0.00    +0.000 C 
ATOM     15  C   UNL     1     -13.847  58.744  50.623  0.00  0.00    +0.000 C 
ATOM     16  C   UNL     1     -15.198  58.977  52.691  0.00  0.00    +0.000 C 
ATOM     17  C   UNL     1     -15.835  57.212  51.058  0.00  0.00    +0.000 C 
BRANCH   9  18
ATOM     18  C   UNL     1     -11.558  55.739  47.857  0.00  0.00    +0.000 C 
ATOM     19  O   UNL     1     -12.441  55.817  47.006  0.00  0.00    +0.000 OA
BRANCH  18  20
ATOM     20  O   UNL     1     -10.226  55.697  47.589  0.00  0.00    +0.000 OA
BRANCH  20  21
ATOM     21  C   UNL     1      -9.822  54.945  46.440  0.00  0.00    +0.000 C 
ATOM     22  C   UNL     1      -8.313  54.919  46.352  0.00  0.00    +0.000 C 
ENDBRANCH  20  21
ENDBRANCH  18  20
ENDBRANCH   9  18
ENDBRANCH   4   7
BRANCH   1  23
ATOM     23  S   UNL     1      -9.863  50.412  47.751  0.00  0.00    +0.000 S 
ATOM     24  O   UNL     1     -11.206  49.887  47.898  0.00  0.00    +0.000 OA
ATOM     25  O   UNL     1      -8.720  49.557  48.004  0.00  0.00    +0.000 OA
BRANCH  23  26
ATOM     26  C   UNL     1      -9.688  51.055  46.091  0.00  0.00    +0.000 A 
ATOM     27  C   UNL     1     -10.804  51.474  45.350  0.00  0.00    +0.000 A 
ATOM     28  C   UNL     1      -8.407  51.242  45.573  0.00  0.00    +0.000 A 
ATOM     29  C   UNL     1     -10.622  52.019  44.066  0.00  0.00    +0.000 A 
ATOM     30  C   UNL     1      -8.233  51.777  44.304  0.00  0.00    +0.000 A 
ATOM     31  C   UNL     1      -9.333  52.160  43.529  0.00  0.00    +0.000 A 
ATOM     32  C   UNL     1      -9.115  52.708  42.145  0.00  0.00    +0.000 C 
ENDBRANCH  23  26
ENDBRANCH   1  23
TORSDOF 6
ENDMDL
MODEL 2
REMARK VINA RESULT:      -7.2      1.878      2.700
REMARK  Name = 
REMARK  10 active torsions:
REMARK  status: ('A' for Active; 'I' for Inactive)
REMARK    1  A    between atoms: S_1  and  N_4
REMARK    2  A    between atoms: S_1  and  C_5
REMARK    3  A    between atoms: N_10  and  C_13
REMARK    4  A    between atoms: C_14  and  C_17
REMARK    5  A    between atoms: C_16  and  C_20
REMARK    6  A    between atoms: C_20  and  O_24
REMARK    7  A    between atoms: O_24  and  C_27
REMARK    8  A    between atoms: C_25  and  C_28
REMARK    9  A    between atoms: C_25  and  C_29
REMARK   10  A    between atoms: C_27  and  C_30
REMARK                            x       y       z     vdW  Elec       q    Type
REMARK                         _______ _______ _______ _____ _____    ______ ____
ROOT
ATOM      1  N   UNL     1      -8.043  53.290  49.575  0.00  0.00    +0.000 N 
ATOM      2  C   UNL     1      -9.162  54.122  49.691  0.00  0.00    +0.000 C 
ATOM      3  O   UNL     1      -9.210  55.200  49.107  0.00  0.00    +0.000 OA
ATOM      4  N   UNL     1     -10.149  53.697  50.570  0.00  0.00    +0.000 N 
ATOM      5  H   UNL     1      -8.035  52.446  50.084  0.00  0.00    +0.000 HD
ATOM      6  H   UNL     1     -10.083  52.828  51.029  0.00  0.00    +0.000 HD
ENDROOT
BRANCH   4   7
ATOM      7  C   UNL     1     -11.237  54.544  50.776  0.00  0.00    +0.000 A 
ATOM      8  S   UNL     1     -11.381  55.264  52.315  0.00  0.00    +0.000 S 
ATOM      9  C   UNL     1     -12.235  54.950  49.904  0.00  0.00    +0.000 A 
ATOM     10  C   UNL     1     -12.650  56.293  51.789  0.00  0.00    +0.000 A 
ATOM     11  C   UNL     1     -12.993  56.045  50.472  0.00  0.00    +0.000 A 
ATOM     12  C   UNL     1     -13.317  57.336  52.670  0.00  0.00    +0.000 C 
ATOM     13  C   UNL     1     -14.108  56.783  49.789  0.00  0.00    +0.000 C 
ATOM     14  C   UNL     1     -14.702  57.777  52.078  0.00  0.00    +0.000 C 
ATOM     15  C   UNL     1     -14.549  58.025  50.558  0.00  0.00    +0.000 C 
ATOM     16  C   UNL     1     -15.203  59.097  52.698  0.00  0.00    +0.000 C 
ATOM     17  C   UNL     1     -15.770  56.699  52.357  0.00  0.00    +0.000 C 
BRANCH   9  18
ATOM     18  C   UNL     1     -12.454  54.319  48.609  0.00  0.00    +0.000 C 
ATOM     19  O   UNL     1     -12.567  53.105  48.455  0.00  0.00    +0.000 OA
BRANCH  18  20
ATOM     20  O   UNL     1     -12.523  55.236  47.610  0.00  0.00    +0.000 OA
BRANCH  20  21
ATOM     21  C   UNL     1     -11.412  55.295  46.710  0.00  0.00    +0.000 C 
ATOM     22  C   UNL     1     -11.644  54.355  45.548  0.00  0.00    +0.000 C 
ENDBRANCH  20  21
ENDBRANCH  18  20
ENDBRANCH   9  18
ENDBRANCH   4   7
BRANCH   1  23
ATOM     23  S   UNL     1      -6.714  53.649  48.616  0.00  0.00    +0.000 S 
ATOM     24  O   UNL     1      -5.657  52.690  48.865  0.00  0.00    +0.000 OA
ATOM     25  O   UNL     1      -6.465  55.065  48.804  0.00  0.00    +0.000 OA
BRANCH  23  26
ATOM     26  C   UNL     1      -7.288  53.430  46.937  0.00  0.00    +0.000 A 
ATOM     27  C   UNL     1      -7.630  52.162  46.442  0.00  0.00    +0.000 A 
ATOM     28  C   UNL     1      -7.501  54.559  46.146  0.00  0.00    +0.000 A 
ATOM     29  C   UNL     1      -8.124  52.036  45.131  0.00  0.00    +0.000 A 
ATOM     30  C   UNL     1      -7.985  54.429  44.851  0.00  0.00    +0.000 A 
ATOM     31  C   UNL     1      -8.291  53.170  44.321  0.00  0.00    +0.000 A 
ATOM     32  C   UNL     1      -8.784  53.057  42.905  0.00  0.00    +0.000 C 
ENDBRANCH  23  26
ENDBRANCH   1  23
TORSDOF 6
ENDMDL
MODEL 3
REMARK VINA RESULT:      -7.0      3.645      8.247
REMARK  Name = 
REMARK  10 active torsions:
REMARK  status: ('A' for Active; 'I' for Inactive)
REMARK    1  A    between atoms: S_1  and  N_4
REMARK    2  A    between atoms: S_1  and  C_5
REMARK    3  A    between atoms: N_10  and  C_13
REMARK    4  A    between atoms: C_14  and  C_17
REMARK    5  A    between atoms: C_16  and  C_20
REMARK    6  A    between atoms: C_20  and  O_24
REMARK    7  A    between atoms: O_24  and  C_27
REMARK    8  A    between atoms: C_25  and  C_28
REMARK    9  A    between atoms: C_25  and  C_29
REMARK   10  A    between atoms: C_27  and  C_30
REMARK                            x       y       z     vdW  Elec       q    Type
REMARK                         _______ _______ _______ _____ _____    ______ ____
ROOT
ATOM      1  N   UNL     1     -11.690  56.907  49.068  0.00  0.00    +0.000 N 
ATOM      2  C   UNL     1     -10.691  56.024  49.493  0.00  0.00    +0.000 C 
ATOM      3  O   UNL     1     -10.975  54.923  49.954  0.00  0.00    +0.000 OA
ATOM      4  N   UNL     1      -9.391  56.509  49.448  0.00  0.00    +0.000 N 
ATOM      5  H   UNL     1     -11.418  57.791  48.730  0.00  0.00    +0.000 HD
ATOM      6  H   UNL     1      -9.191  57.399  49.077  0.00  0.00    +0.000 HD
ENDROOT
BRANCH   4   7
ATOM      7  C   UNL     1      -8.379  55.689  49.947  0.00  0.00    +0.000 A 
ATOM      8  S   UNL     1      -7.946  55.896  51.583  0.00  0.00    +0.000 S 
ATOM      9  C   UNL     1      -7.667  54.670  49.334  0.00  0.00    +0.000 A 
ATOM     10  C   UNL     1      -6.954  54.495  51.567  0.00  0.00    +0.000 A 
ATOM     11  C   UNL     1      -6.913  53.916  50.312  0.00  0.00    +0.000 A 
ATOM     12  C   UNL     1      -6.208  53.970  52.782  0.00  0.00    +0.000 C 
ATOM     13  C   UNL     1      -6.077  52.701  50.025  0.00  0.00    +0.000 C 
ATOM     14  C   UNL     1      -5.059  52.987  52.362  0.00  0.00    +0.000 C 
ATOM     15  C   UNL     1      -5.597  52.004  51.294  0.00  0.00    +0.000 C 
ATOM     16  C   UNL     1      -4.563  52.134  53.546  0.00  0.00    +0.000 C 
ATOM     17  C   UNL     1      -3.849  53.779  51.824  0.00  0.00    +0.000 C 
BRANCH   9  18
ATOM     18  C   UNL     1      -7.700  54.442  47.895  0.00  0.00    +0.000 C 
ATOM     19  O   UNL     1      -6.724  54.581  47.161  0.00  0.00    +0.000 OA
BRANCH  18  20
ATOM     20  O   UNL     1      -8.933  54.055  47.477  0.00  0.00    +0.000 OA
BRANCH  20  21
ATOM     21  C   UNL     1      -9.429  54.661  46.278  0.00  0.00    +0.000 C 
ATOM     22  C   UNL     1     -10.934  54.525  46.221  0.00  0.00    +0.000 C 
ENDBRANCH  20  21
ENDBRANCH  18  20
ENDBRANCH   9  18
ENDBRANCH   4   7
BRANCH   1  23
ATOM     23  S   UNL     1     -13.327  56.541  49.100  0.00  0.00    +0.000 S 
ATOM     24  O   UNL     1     -13.508  55.129  49.373  0.00  0.00    +0.000 OA
ATOM     25  O   UNL     1     -13.884  57.122  47.894  0.00  0.00    +0.000 OA
BRANCH  23  26
ATOM     26  C   UNL     1     -13.977  57.469  50.484  0.00  0.00    +0.000 A 
ATOM     27  C   UNL     1     -14.550  58.738  50.307  0.00  0.00    +0.000 A 
ATOM     28  C   UNL     1     -14.009  56.868  51.742  0.00  0.00    +0.000 A 
ATOM     29  C   UNL     1     -15.093  59.417  51.413  0.00  0.00    +0.000 A 
ATOM     30  C   UNL     1     -14.543  57.543  52.831  0.00  0.00    +0.000 A 
ATOM     31  C   UNL     1     -15.079  58.828  52.687  0.00  0.00    +0.000 A 
ATOM     32  C   UNL     1     -15.623  59.548  53.890  0.00  0.00    +0.000 C 
ENDBRANCH  23  26
ENDBRANCH   1  23
TORSDOF 6
ENDMDL
MODEL 4
REMARK VINA RESULT:      -7.0      3.232      4.927
REMARK  Name = 
REMARK  10 active torsions:
REMARK  status: ('A' for Active; 'I' for Inactive)
REMARK    1  A    between atoms: S_1  and  N_4
REMARK    2  A    between atoms: S_1  and  C_5
REMARK    3  A    between atoms: N_10  and  C_13
REMARK    4  A    between atoms: C_14  and  C_17
REMARK    5  A    between atoms: C_16  and  C_20
REMARK    6  A    between atoms: C_20  and  O_24
REMARK    7  A    between atoms: O_24  and  C_27
REMARK    8  A    between atoms: C_25  and  C_28
REMARK    9  A    between atoms: C_25  and  C_29
REMARK   10  A    between atoms: C_27  and  C_30
REMARK                            x       y       z     vdW  Elec       q    Type
REMARK                         _______ _______ _______ _____ _____    ______ ____
ROOT
ATOM      1  N   UNL     1      -8.343  52.571  48.881  0.00  0.00    +0.000 N 
ATOM      2  C   UNL     1      -9.252  53.596  49.168  0.00  0.00    +0.000 C 
ATOM      3  O   UNL     1      -8.865  54.685  49.581  0.00  0.00    +0.000 OA
ATOM      4  N   UNL     1     -10.595  53.269  49.050  0.00  0.00    +0.000 N 
ATOM      5  H   UNL     1      -8.699  51.704  48.580  0.00  0.00    +0.000 HD
ATOM      6  H   UNL     1     -10.879  52.385  48.721  0.00  0.00    +0.000 HD
ENDROOT
BRANCH   4   7
ATOM      7  C   UNL     1     -11.529  54.239  49.414  0.00  0.00    +0.000 A 
ATOM      8  S   UNL     1     -12.003  54.289  51.050  0.00  0.00    +0.000 S 
ATOM      9  C   UNL     1     -12.130  55.233  48.656  0.00  0.00    +0.000 A 
ATOM     10  C   UNL     1     -12.853  55.763  50.829  0.00  0.00    +0.000 A 
ATOM     11  C   UNL     1     -12.821  56.176  49.510  0.00  0.00    +0.000 A 
ATOM     12  C   UNL     1     -13.562  56.510  51.947  0.00  0.00    +0.000 C 
ATOM     13  C   UNL     1     -13.531  57.416  49.047  0.00  0.00    +0.000 C 
ATOM     14  C   UNL     1     -14.603  57.534  51.374  0.00  0.00    +0.000 C 
ATOM     15  C   UNL     1     -13.958  58.315  50.204  0.00  0.00    +0.000 C 
ATOM     16  C   UNL     1     -15.030  58.577  52.426  0.00  0.00    +0.000 C 
ATOM     17  C   UNL     1     -15.878  56.797  50.910  0.00  0.00    +0.000 C 
BRANCH   9  18
ATOM     18  C   UNL     1     -12.056  55.268  47.201  0.00  0.00    +0.000 C 
ATOM     19  O   UNL     1     -12.047  56.307  46.545  0.00  0.00    +0.000 OA
BRANCH  18  20
ATOM     20  O   UNL     1     -11.990  54.018  46.672  0.00  0.00    +0.000 OA
BRANCH  20  21
ATOM     21  C   UNL     1     -11.452  53.903  45.351  0.00  0.00    +0.000 C 
ATOM     22  C   UNL     1      -9.953  53.717  45.424  0.00  0.00    +0.000 C 
ENDBRANCH  20  21
ENDBRANCH  18  20
ENDBRANCH   9  18
ENDBRANCH   4   7
BRANCH   1  23
ATOM     23  S   UNL     1      -6.679  52.738  49.022  0.00  0.00    +0.000 S 
ATOM     24  O   UNL     1      -6.232  53.864  48.226  0.00  0.00    +0.000 OA
ATOM     25  O   UNL     1      -6.130  51.418  48.784  0.00  0.00    +0.000 OA
BRANCH  23  26
ATOM     26  C   UNL     1      -6.403  53.124  50.747  0.00  0.00    +0.000 A 
ATOM     27  C   UNL     1      -5.690  54.270  51.133  0.00  0.00    +0.000 A 
ATOM     28  C   UNL     1      -7.003  52.326  51.720  0.00  0.00    +0.000 A 
ATOM     29  C   UNL     1      -5.534  54.565  52.500  0.00  0.00    +0.000 A 
ATOM     30  C   UNL     1      -6.843  52.619  53.067  0.00  0.00    +0.000 A 
ATOM     31  C   UNL     1      -6.099  53.731  53.477  0.00  0.00    +0.000 A 
ATOM     32  C   UNL     1      -5.917  54.007  54.944  0.00  0.00    +0.000 C 
ENDBRANCH  23  26
ENDBRANCH   1  23
TORSDOF 6
ENDMDL
MODEL 5
REMARK VINA RESULT:      -6.9      3.737      7.646
REMARK  Name = 
REMARK  10 active torsions:
REMARK  status: ('A' for Active; 'I' for Inactive)
REMARK    1  A    between atoms: S_1  and  N_4
REMARK    2  A    between atoms: S_1  and  C_5
REMARK    3  A    between atoms: N_10  and  C_13
REMARK    4  A    between atoms: C_14  and  C_17
REMARK    5  A    between atoms: C_16  and  C_20
REMARK    6  A    between atoms: C_20  and  O_24
REMARK    7  A    between atoms: O_24  and  C_27
REMARK    8  A    between atoms: C_25  and  C_28
REMARK    9  A    between atoms: C_25  and  C_29
REMARK   10  A    between atoms: C_27  and  C_30
REMARK                            x       y       z     vdW  Elec       q    Type
REMARK                         _______ _______ _______ _____ _____    ______ ____
ROOT
ATOM      1  N   UNL     1     -14.422  55.027  51.209  0.00  0.00    +0.000 N 
ATOM      2  C   UNL     1     -13.091  55.155  51.625  0.00  0.00    +0.000 C 
ATOM      3  O   UNL     1     -12.676  56.208  52.099  0.00  0.00    +0.000 OA
ATOM      4  N   UNL     1     -12.269  54.063  51.379  0.00  0.00    +0.000 N 
ATOM      5  H   UNL     1     -14.705  54.173  50.809  0.00  0.00    +0.000 HD
ATOM      6  H   UNL     1     -12.628  53.232  50.993  0.00  0.00    +0.000 HD
ENDROOT
BRANCH   4   7
ATOM      7  C   UNL     1     -10.918  54.189  51.699  0.00  0.00    +0.000 A 
ATOM      8  S   UNL     1     -10.410  53.549  53.196  0.00  0.00    +0.000 S 
ATOM      9  C   UNL     1      -9.870  54.727  50.969  0.00  0.00    +0.000 A 
ATOM     10  C   UNL     1      -8.754  53.784  52.810  0.00  0.00    +0.000 A 
ATOM     11  C   UNL     1      -8.601  54.395  51.579  0.00  0.00    +0.000 A 
ATOM     12  C   UNL     1      -7.606  53.377  53.719  0.00  0.00    +0.000 C 
ATOM     13  C   UNL     1      -7.247  54.752  51.033  0.00  0.00    +0.000 C 
ATOM     14  C   UNL     1      -6.280  54.116  53.322  0.00  0.00    +0.000 C 
ATOM     15  C   UNL     1      -6.111  54.066  51.784  0.00  0.00    +0.000 C 
ATOM     16  C   UNL     1      -5.035  53.440  53.931  0.00  0.00    +0.000 C 
ATOM     17  C   UNL     1      -6.308  55.574  53.827  0.00  0.00    +0.000 C 
BRANCH   9  18
ATOM     18  C   UNL     1     -10.076  55.520  49.763  0.00  0.00    +0.000 C 
ATOM     19  O   UNL     1      -9.729  56.694  49.654  0.00  0.00    +0.000 OA
BRANCH  18  20
ATOM     20  O   UNL     1     -10.687  54.800  48.787  0.00  0.00    +0.000 OA
BRANCH  20  21
ATOM     21  C   UNL     1     -10.506  55.252  47.442  0.00  0.00    +0.000 C 
ATOM     22  C   UNL     1     -11.835  55.693  46.868  0.00  0.00    +0.000 C 
ENDBRANCH  20  21
ENDBRANCH  18  20
ENDBRANCH   9  18
ENDBRANCH   4   7
BRANCH   1  23
ATOM     23  S   UNL     1     -15.561  56.250  51.357  0.00  0.00    +0.000 S 
ATOM     24  O   UNL     1     -15.851  56.483  52.758  0.00  0.00    +0.000 OA
ATOM     25  O   UNL     1     -16.633  55.901  50.444  0.00  0.00    +0.000 OA
BRANCH  23  26
ATOM     26  C   UNL     1     -14.758  57.706  50.699  0.00  0.00    +0.000 A 
ATOM     27  C   UNL     1     -14.297  57.749  49.374  0.00  0.00    +0.000 A 
ATOM     28  C   UNL     1     -14.690  58.853  51.489  0.00  0.00    +0.000 A 
ATOM     29  C   UNL     1     -13.712  58.929  48.878  0.00  0.00    +0.000 A 
ATOM     30  C   UNL     1     -14.110  60.014  50.997  0.00  0.00    +0.000 A 
ATOM     31  C   UNL     1     -13.603  60.066  49.693  0.00  0.00    +0.000 A 
ATOM     32  C   UNL     1     -12.952  61.328  49.197  0.00  0.00    +0.000 C 
ENDBRANCH  23  26
ENDBRANCH   1  23
TORSDOF 6
ENDMDL
MODEL 6
REMARK VINA RESULT:      -6.7      3.496      8.044
REMARK  Name = 
REMARK  10 active torsions:
REMARK  status: ('A' for Active; 'I' for Inactive)
REMARK    1  A    between atoms: S_1  and  N_4
REMARK    2  A    between atoms: S_1  and  C_5
REMARK    3  A    between atoms: N_10  and  C_13
REMARK    4  A    between atoms: C_14  and  C_17
REMARK    5  A    between atoms: C_16  and  C_20
REMARK    6  A    between atoms: C_20  and  O_24
REMARK    7  A    between atoms: O_24  and  C_27
REMARK    8  A    between atoms: C_25  and  C_28
REMARK    9  A    between atoms: C_25  and  C_29
REMARK   10  A    between atoms: C_27  and  C_30
REMARK                            x       y       z     vdW  Elec       q    Type
REMARK                         _______ _______ _______ _____ _____    ______ ____
ROOT
ATOM      1  N   UNL     1     -12.970  55.403  49.272  0.00  0.00    +0.000 N 
ATOM      2  C   UNL     1     -11.905  55.146  50.143  0.00  0.00    +0.000 C 
ATOM      3  O   UNL     1     -11.322  56.061  50.716  0.00  0.00    +0.000 OA
ATOM      4  N   UNL     1     -11.500  53.821  50.235  0.00  0.00    +0.000 N 
ATOM      5  H   UNL     1     -13.390  54.640  48.812  0.00  0.00    +0.000 HD
ATOM      6  H   UNL     1     -11.983  53.106  49.760  0.00  0.00    +0.000 HD
ENDROOT
BRANCH   4   7
ATOM      7  C   UNL     1     -10.386  53.541  51.025  0.00  0.00    +0.000 A 
ATOM      8  S   UNL     1     -10.675  53.055  52.633  0.00  0.00    +0.000 S 
ATOM      9  C   UNL     1      -9.037  53.550  50.707  0.00  0.00    +0.000 A 
ATOM     10  C   UNL     1      -9.026  52.642  52.876  0.00  0.00    +0.000 A 
ATOM     11  C   UNL     1      -8.261  52.929  51.759  0.00  0.00    +0.000 A 
ATOM     12  C   UNL     1      -8.480  52.048  54.163  0.00  0.00    +0.000 C 
ATOM     13  C   UNL     1      -6.777  52.702  51.734  0.00  0.00    +0.000 C 
ATOM     14  C   UNL     1      -6.922  52.210  54.248  0.00  0.00    +0.000 C 
ATOM     15  C   UNL     1      -6.297  51.823  52.886  0.00  0.00    +0.000 C 
ATOM     16  C   UNL     1      -6.298  51.279  55.306  0.00  0.00    +0.000 C 
ATOM     17  C   UNL     1      -6.556  53.659  54.632  0.00  0.00    +0.000 C 
BRANCH   9  18
ATOM     18  C   UNL     1      -8.523  54.130  49.473  0.00  0.00    +0.000 C 
ATOM     19  O   UNL     1      -7.632  54.976  49.438  0.00  0.00    +0.000 OA
BRANCH  18  20
ATOM     20  O   UNL     1      -9.144  53.615  48.380  0.00  0.00    +0.000 OA
BRANCH  20  21
ATOM     21  C   UNL     1      -8.979  54.326  47.149  0.00  0.00    +0.000 C 
ATOM     22  C   UNL     1     -10.271  55.024  46.786  0.00  0.00    +0.000 C 
ENDBRANCH  20  21
ENDBRANCH  18  20
ENDBRANCH   9  18
ENDBRANCH   4   7
BRANCH   1  23
ATOM     23  S   UNL     1     -13.571  56.940  48.969  0.00  0.00    +0.000 S 
ATOM     24  O   UNL     1     -14.636  56.865  47.990  0.00  0.00    +0.000 OA
ATOM     25  O   UNL     1     -12.411  57.773  48.716  0.00  0.00    +0.000 OA
BRANCH  23  26
ATOM     26  C   UNL     1     -14.275  57.471  50.526  0.00  0.00    +0.000 A 
ATOM     27  C   UNL     1     -14.901  56.560  51.391  0.00  0.00    +0.000 A 
ATOM     28  C   UNL     1     -14.097  58.794  50.929  0.00  0.00    +0.000 A 
ATOM     29  C   UNL     1     -15.400  57.007  52.629  0.00  0.00    +0.000 A 
ATOM     30  C   UNL     1     -14.594  59.230  52.149  0.00  0.00    +0.000 A 
ATOM     31  C   UNL     1     -15.262  58.350  53.009  0.00  0.00    +0.000 A 
ATOM     32  C   UNL     1     -15.818  58.858  54.311  0.00  0.00    +0.000 C 
ENDBRANCH  23  26
ENDBRANCH   1  23
TORSDOF 6
ENDMDL
MODEL 7
REMARK VINA RESULT:      -6.6      2.127      8.792
REMARK  Name = 
REMARK  10 active torsions:
REMARK  status: ('A' for Active; 'I' for Inactive)
REMARK    1  A    between atoms: S_1  and  N_4
REMARK    2  A    between atoms: S_1  and  C_5
REMARK    3  A    between atoms: N_10  and  C_13
REMARK    4  A    between atoms: C_14  and  C_17
REMARK    5  A    between atoms: C_16  and  C_20
REMARK    6  A    between atoms: C_20  and  O_24
REMARK    7  A    between atoms: O_24  and  C_27
REMARK    8  A    between atoms: C_25  and  C_28
REMARK    9  A    between atoms: C_25  and  C_29
REMARK   10  A    between atoms: C_27  and  C_30
REMARK                            x       y       z     vdW  Elec       q    Type
REMARK                         _______ _______ _______ _____ _____    ______ ____
ROOT
ATOM      1  N   UNL     1     -12.950  55.703  49.100  0.00  0.00    +0.000 N 
ATOM      2  C   UNL     1     -12.170  55.078  48.120  0.00  0.00    +0.000 C 
ATOM      3  O   UNL     1     -11.918  55.642  47.059  0.00  0.00    +0.000 OA
ATOM      4  N   UNL     1     -11.792  53.769  48.386  0.00  0.00    +0.000 N 
ATOM      5  H   UNL     1     -13.151  55.202  49.924  0.00  0.00    +0.000 HD
ATOM      6  H   UNL     1     -12.012  53.339  49.244  0.00  0.00    +0.000 HD
ENDROOT
BRANCH   4   7
ATOM      7  C   UNL     1     -11.089  53.087  47.393  0.00  0.00    +0.000 A 
ATOM      8  S   UNL     1     -11.976  52.011  46.411  0.00  0.00    +0.000 S 
ATOM      9  C   UNL     1      -9.755  53.165  47.026  0.00  0.00    +0.000 A 
ATOM     10  C   UNL     1     -10.650  51.788  45.344  0.00  0.00    +0.000 A 
ATOM     11  C   UNL     1      -9.532  52.482  45.769  0.00  0.00    +0.000 A 
ATOM     12  C   UNL     1     -10.703  50.923  44.095  0.00  0.00    +0.000 C 
ATOM     13  C   UNL     1      -8.226  52.413  45.031  0.00  0.00    +0.000 C 
ATOM     14  C   UNL     1      -9.261  50.552  43.601  0.00  0.00    +0.000 C 
ATOM     15  C   UNL     1      -8.371  51.818  43.634  0.00  0.00    +0.000 C 
ATOM     16  C   UNL     1      -9.260  50.043  42.145  0.00  0.00    +0.000 C 
ATOM     17  C   UNL     1      -8.665  49.435  44.482  0.00  0.00    +0.000 C 
BRANCH   9  18
ATOM     18  C   UNL     1      -8.753  53.844  47.837  0.00  0.00    +0.000 C 
ATOM     19  O   UNL     1      -7.955  54.664  47.388  0.00  0.00    +0.000 OA
BRANCH  18  20
ATOM     20  O   UNL     1      -8.818  53.461  49.139  0.00  0.00    +0.000 OA
BRANCH  20  21
ATOM     21  C   UNL     1      -8.705  54.495  50.122  0.00  0.00    +0.000 C 
ATOM     22  C   UNL     1      -7.385  54.366  50.849  0.00  0.00    +0.000 C 
ENDBRANCH  20  21
ENDBRANCH  18  20
ENDBRANCH   9  18
ENDBRANCH   4   7
BRANCH   1  23
ATOM     23  S   UNL     1     -13.562  57.258  48.948  0.00  0.00    +0.000 S 
ATOM     24  O   UNL     1     -14.613  57.275  47.950  0.00  0.00    +0.000 OA
ATOM     25  O   UNL     1     -12.407  58.121  48.798  0.00  0.00    +0.000 OA
BRANCH  23  26
ATOM     26  C   UNL     1     -14.291  57.620  50.540  0.00  0.00    +0.000 A 
ATOM     27  C   UNL     1     -14.929  56.623  51.294  0.00  0.00    +0.000 A 
ATOM     28  C   UNL     1     -14.124  58.894  51.083  0.00  0.00    +0.000 A 
ATOM     29  C   UNL     1     -15.449  56.936  52.564  0.00  0.00    +0.000 A 
ATOM     30  C   UNL     1     -14.642  59.198  52.334  0.00  0.00    +0.000 A 
ATOM     31  C   UNL     1     -15.320  58.232  53.086  0.00  0.00    +0.000 A 
ATOM     32  C   UNL     1     -15.898  58.599  54.425  0.00  0.00    +0.000 C 
ENDBRANCH  23  26
ENDBRANCH   1  23
TORSDOF 6
ENDMDL
MODEL 8
REMARK VINA RESULT:      -6.3      3.504      5.084
REMARK  Name = 
REMARK  10 active torsions:
REMARK  status: ('A' for Active; 'I' for Inactive)
REMARK    1  A    between atoms: S_1  and  N_4
REMARK    2  A    between atoms: S_1  and  C_5
REMARK    3  A    between atoms: N_10  and  C_13
REMARK    4  A    between atoms: C_14  and  C_17
REMARK    5  A    between atoms: C_16  and  C_20
REMARK    6  A    between atoms: C_20  and  O_24
REMARK    7  A    between atoms: O_24  and  C_27
REMARK    8  A    between atoms: C_25  and  C_28
REMARK    9  A    between atoms: C_25  and  C_29
REMARK   10  A    between atoms: C_27  and  C_30
REMARK                            x       y       z     vdW  Elec       q    Type
REMARK                         _______ _______ _______ _____ _____    ______ ____
ROOT
ATOM      1  N   UNL     1      -8.752  53.091  48.185  0.00  0.00    +0.000 N 
ATOM      2  C   UNL     1      -9.510  54.167  48.662  0.00  0.00    +0.000 C 
ATOM      3  O   UNL     1      -8.995  55.263  48.862  0.00  0.00    +0.000 OA
ATOM      4  N   UNL     1     -10.832  53.887  48.978  0.00  0.00    +0.000 N 
ATOM      5  H   UNL     1      -9.201  52.222  48.066  0.00  0.00    +0.000 HD
ATOM      6  H   UNL     1     -11.219  52.997  48.812  0.00  0.00    +0.000 HD
ENDROOT
BRANCH   4   7
ATOM      7  C   UNL     1     -11.592  54.914  49.540  0.00  0.00    +0.000 A 
ATOM      8  S   UNL     1     -12.512  55.873  48.473  0.00  0.00    +0.000 S 
ATOM      9  C   UNL     1     -11.766  55.276  50.866  0.00  0.00    +0.000 A 
ATOM     10  C   UNL     1     -13.325  56.653  49.769  0.00  0.00    +0.000 A 
ATOM     11  C   UNL     1     -12.853  56.223  50.996  0.00  0.00    +0.000 A 
ATOM     12  C   UNL     1     -14.417  57.693  49.582  0.00  0.00    +0.000 C 
ATOM     13  C   UNL     1     -13.372  56.788  52.288  0.00  0.00    +0.000 C 
ATOM     14  C   UNL     1     -14.629  58.533  50.890  0.00  0.00    +0.000 C 
ATOM     15  C   UNL     1     -14.665  57.577  52.108  0.00  0.00    +0.000 C 
ATOM     16  C   UNL     1     -15.971  59.293  50.880  0.00  0.00    +0.000 C 
ATOM     17  C   UNL     1     -13.506  59.580  51.042  0.00  0.00    +0.000 C 
BRANCH   9  18
ATOM     18  C   UNL     1     -10.933  54.755  51.942  0.00  0.00    +0.000 C 
ATOM     19  O   UNL     1     -11.181  53.718  52.554  0.00  0.00    +0.000 OA
BRANCH  18  20
ATOM     20  O   UNL     1      -9.856  55.551  52.172  0.00  0.00    +0.000 OA
BRANCH  20  21
ATOM     21  C   UNL     1      -8.590  54.898  52.314  0.00  0.00    +0.000 C 
ATOM     22  C   UNL     1      -7.474  55.905  52.146  0.00  0.00    +0.000 C 
ENDBRANCH  20  21
ENDBRANCH  18  20
ENDBRANCH   9  18
ENDBRANCH   4   7
BRANCH   1  23
ATOM     23  S   UNL     1      -7.122  53.201  47.804  0.00  0.00    +0.000 S 
ATOM     24  O   UNL     1      -6.862  54.450  47.117  0.00  0.00    +0.000 OA
ATOM     25  O   UNL     1      -6.780  51.942  47.172  0.00  0.00    +0.000 OA
BRANCH  23  26
ATOM     26  C   UNL     1      -6.285  53.244  49.385  0.00  0.00    +0.000 A 
ATOM     27  C   UNL     1      -6.590  52.321  50.397  0.00  0.00    +0.000 A 
ATOM     28  C   UNL     1      -5.236  54.145  49.566  0.00  0.00    +0.000 A 
ATOM     29  C   UNL     1      -5.877  52.357  51.609  0.00  0.00    +0.000 A 
ATOM     30  C   UNL     1      -4.537  54.178  50.765  0.00  0.00    +0.000 A 
ATOM     31  C   UNL     1      -4.854  53.297  51.806  0.00  0.00    +0.000 A 
ATOM     32  C   UNL     1      -4.100  53.377  53.105  0.00  0.00    +0.000 C 
ENDBRANCH  23  26
ENDBRANCH   1  23
TORSDOF 6
ENDMDL
MODEL 9
REMARK VINA RESULT:      -6.2      2.763      4.117
REMARK  Name = 
REMARK  10 active torsions:
REMARK  status: ('A' for Active; 'I' for Inactive)
REMARK    1  A    between atoms: S_1  and  N_4
REMARK    2  A    between atoms: S_1  and  C_5
REMARK    3  A    between atoms: N_10  and  C_13
REMARK    4  A    between atoms: C_14  and  C_17
REMARK    5  A    between atoms: C_16  and  C_20
REMARK    6  A    between atoms: C_20  and  O_24
REMARK    7  A    between atoms: O_24  and  C_27
REMARK    8  A    between atoms: C_25  and  C_28
REMARK    9  A    between atoms: C_25  and  C_29
REMARK   10  A    between atoms: C_27  and  C_30
REMARK                            x       y       z     vdW  Elec       q    Type
REMARK                         _______ _______ _______ _____ _____    ______ ____
ROOT
ATOM      1  N   UNL     1      -9.751  53.070  46.147  0.00  0.00    +0.000 N 
ATOM      2  C   UNL     1     -10.276  54.217  46.752  0.00  0.00    +0.000 C 
ATOM      3  O   UNL     1      -9.660  55.278  46.736  0.00  0.00    +0.000 OA
ATOM      4  N   UNL     1     -11.470  54.050  47.440  0.00  0.00    +0.000 N 
ATOM      5  H   UNL     1     -10.267  52.233  46.208  0.00  0.00    +0.000 HD
ATOM      6  H   UNL     1     -11.942  53.186  47.441  0.00  0.00    +0.000 HD
ENDROOT
BRANCH   4   7
ATOM      7  C   UNL     1     -11.977  55.152  48.129  0.00  0.00    +0.000 A 
ATOM      8  S   UNL     1     -12.868  56.291  47.227  0.00  0.00    +0.000 S 
ATOM      9  C   UNL     1     -11.914  55.472  49.476  0.00  0.00    +0.000 A 
ATOM     10  C   UNL     1     -13.367  57.122  48.644  0.00  0.00    +0.000 A 
ATOM     11  C   UNL     1     -12.811  56.566  49.782  0.00  0.00    +0.000 A 
ATOM     12  C   UNL     1     -14.297  58.324  48.640  0.00  0.00    +0.000 C 
ATOM     13  C   UNL     1     -13.057  57.140  51.148  0.00  0.00    +0.000 C 
ATOM     14  C   UNL     1     -14.198  59.122  49.987  0.00  0.00    +0.000 C 
ATOM     15  C   UNL     1     -14.221  58.125  51.171  0.00  0.00    +0.000 C 
ATOM     16  C   UNL     1     -15.392  60.078  50.184  0.00  0.00    +0.000 C 
ATOM     17  C   UNL     1     -12.913  59.977  50.010  0.00  0.00    +0.000 C 
BRANCH   9  18
ATOM     18  C   UNL     1     -11.037  54.778  50.411  0.00  0.00    +0.000 C 
ATOM     19  O   UNL     1     -11.445  54.131  51.373  0.00  0.00    +0.000 OA
BRANCH  18  20
ATOM     20  O   UNL     1      -9.729  54.932  50.080  0.00  0.00    +0.000 OA
BRANCH  20  21
ATOM     21  C   UNL     1      -8.813  53.963  50.601  0.00  0.00    +0.000 C 
ATOM     22  C   UNL     1      -8.936  52.673  49.821  0.00  0.00    +0.000 C 
ENDBRANCH  20  21
ENDBRANCH  18  20
ENDBRANCH   9  18
ENDBRANCH   4   7
BRANCH   1  23
ATOM     23  S   UNL     1      -8.291  53.042  45.321  0.00  0.00    +0.000 S 
ATOM     24  O   UNL     1      -8.071  54.318  44.672  0.00  0.00    +0.000 OA
ATOM     25  O   UNL     1      -8.306  51.823  44.536  0.00  0.00    +0.000 OA
BRANCH  23  26
ATOM     26  C   UNL     1      -7.050  52.836  46.593  0.00  0.00    +0.000 A 
ATOM     27  C   UNL     1      -6.473  53.943  47.235  0.00  0.00    +0.000 A 
ATOM     28  C   UNL     1      -6.736  51.548  47.025  0.00  0.00    +0.000 A 
ATOM     29  C   UNL     1      -5.535  53.740  48.264  0.00  0.00    +0.000 A 
ATOM     30  C   UNL     1      -5.807  51.353  48.039  0.00  0.00    +0.000 A 
ATOM     31  C   UNL     1      -5.185  52.441  48.662  0.00  0.00    +0.000 A 
ATOM     32  C   UNL     1      -4.161  52.199  49.736  0.00  0.00    +0.000 C 
ENDBRANCH  23  26
ENDBRANCH   1  23
TORSDOF 6
ENDMDL
