MODEL 1
REMARK VINA RESULT:      -8.0      0.000      0.000
REMARK  Name = 
REMARK  9 active torsions:
REMARK  status: ('A' for Active; 'I' for Inactive)
REMARK    1  A    between atoms: S_1  and  N_4
REMARK    2  A    between atoms: S_1  and  C_5
REMARK    3  A    between atoms: N_10  and  C_13
REMARK    4  A    between atoms: C_16  and  C_19
REMARK    5  A    between atoms: C_19  and  O_23
REMARK    6  A    between atoms: O_23  and  C_26
REMARK    7  A    between atoms: C_24  and  C_27
REMARK    8  A    between atoms: C_24  and  C_28
REMARK    9  A    between atoms: C_26  and  C_29
REMARK                            x       y       z     vdW  Elec       q    Type
REMARK                         _______ _______ _______ _____ _____    ______ ____
ROOT
ATOM      1  C   UNL     1     -10.948  54.463  51.475  0.00  0.00    +0.000 A 
ATOM      2  S   UNL     1     -10.558  53.724  52.957  0.00  0.00    +0.000 S 
ATOM      3  C   UNL     1      -9.858  55.051  50.852  0.00  0.00    +0.000 A 
ATOM      4  C   UNL     1      -8.887  53.912  52.667  0.00  0.00    +0.000 A 
ATOM      5  C   UNL     1      -8.639  54.627  51.508  0.00  0.00    +0.000 A 
ATOM      6  C   UNL     1      -7.830  53.354  53.591  0.00  0.00    +0.000 C 
ATOM      7  C   UNL     1      -7.241  54.962  51.069  0.00  0.00    +0.000 C 
ATOM      8  C   UNL     1      -6.448  54.036  53.343  0.00  0.00    +0.000 C 
ATOM      9  C   UNL     1      -6.189  54.134  51.815  0.00  0.00    +0.000 C 
ATOM     10  C   UNL     1      -5.313  53.204  53.967  0.00  0.00    +0.000 C 
ATOM     11  C   UNL     1      -6.422  55.432  53.999  0.00  0.00    +0.000 C 
ENDROOT
BRANCH   1  15
ATOM     12  N   UNL     1     -14.448  55.217  51.123  0.00  0.00    +0.000 N 
ATOM     13  C   UNL     1     -13.125  55.398  51.497  0.00  0.00    +0.000 C 
ATOM     14  O   UNL     1     -12.765  56.411  52.071  0.00  0.00    +0.000 OA
ATOM     15  N   UNL     1     -12.278  54.371  51.108  0.00  0.00    +0.000 N 
ATOM     16  H   UNL     1     -14.725  54.353  50.740  0.00  0.00    +0.000 HD
ATOM     17  H   UNL     1     -12.613  53.604  50.589  0.00  0.00    +0.000 HD
BRANCH  12  18
ATOM     18  S   UNL     1     -15.587  56.432  51.304  0.00  0.00    +0.000 S 
ATOM     19  O   UNL     1     -15.681  56.767  52.712  0.00  0.00    +0.000 OA
ATOM     20  O   UNL     1     -16.767  55.976  50.591  0.00  0.00    +0.000 OA
BRANCH  18  21
ATOM     21  C   UNL     1     -14.905  57.834  50.415  0.00  0.00    +0.000 A 
ATOM     22  N   UNL     1     -14.332  57.522  49.216  0.00  0.00    +0.000 NA
ATOM     23  C   UNL     1     -14.976  59.112  50.954  0.00  0.00    +0.000 A 
ATOM     24  C   UNL     1     -13.843  58.572  48.519  0.00  0.00    +0.000 A 
ATOM     25  C   UNL     1     -14.442  60.158  50.206  0.00  0.00    +0.000 A 
ATOM     26  C   UNL     1     -13.871  59.887  48.964  0.00  0.00    +0.000 A 
ENDBRANCH  18  21
ENDBRANCH  12  18
ENDBRANCH   1  15
BRANCH   3  27
ATOM     27  C   UNL     1      -9.936  56.009  49.736  0.00  0.00    +0.000 C 
ATOM     28  O   UNL     1      -9.256  57.028  49.669  0.00  0.00    +0.000 OA
BRANCH  27  29
ATOM     29  O   UNL     1     -10.958  55.718  48.880  0.00  0.00    +0.000 OA
BRANCH  29  30
ATOM     30  C   UNL     1     -10.634  55.365  47.533  0.00  0.00    +0.000 C 
ATOM     31  C   UNL     1     -11.791  55.663  46.602  0.00  0.00    +0.000 C 
ENDBRANCH  29  30
ENDBRANCH  27  29
ENDBRANCH   3  27
TORSDOF 6
ENDMDL
MODEL 2
REMARK VINA RESULT:      -7.6      2.809      7.688
REMARK  Name = 
REMARK  9 active torsions:
REMARK  status: ('A' for Active; 'I' for Inactive)
REMARK    1  A    between atoms: S_1  and  N_4
REMARK    2  A    between atoms: S_1  and  C_5
REMARK    3  A    between atoms: N_10  and  C_13
REMARK    4  A    between atoms: C_16  and  C_19
REMARK    5  A    between atoms: C_19  and  O_23
REMARK    6  A    between atoms: O_23  and  C_26
REMARK    7  A    between atoms: C_24  and  C_27
REMARK    8  A    between atoms: C_24  and  C_28
REMARK    9  A    between atoms: C_26  and  C_29
REMARK                            x       y       z     vdW  Elec       q    Type
REMARK                         _______ _______ _______ _____ _____    ______ ____
ROOT
ATOM      1  C   UNL     1     -11.025  54.814  50.095  0.00  0.00    +0.000 A 
ATOM      2  S   UNL     1     -11.710  54.795  51.652  0.00  0.00    +0.000 S 
ATOM      3  C   UNL     1     -11.649  55.701  49.232  0.00  0.00    +0.000 A 
ATOM      4  C   UNL     1     -12.659  56.169  51.304  0.00  0.00    +0.000 A 
ATOM      5  C   UNL     1     -12.534  56.566  49.984  0.00  0.00    +0.000 A 
ATOM      6  C   UNL     1     -13.526  56.847  52.339  0.00  0.00    +0.000 C 
ATOM      7  C   UNL     1     -13.312  57.726  49.429  0.00  0.00    +0.000 C 
ATOM      8  C   UNL     1     -14.595  57.764  51.666  0.00  0.00    +0.000 C 
ATOM      9  C   UNL     1     -13.926  58.591  50.535  0.00  0.00    +0.000 C 
ATOM     10  C   UNL     1     -15.187  58.749  52.691  0.00  0.00    +0.000 C 
ATOM     11  C   UNL     1     -15.755  56.908  51.115  0.00  0.00    +0.000 C 
ENDROOT
BRANCH   1  15
ATOM     12  N   UNL     1      -7.667  53.528  49.961  0.00  0.00    +0.000 N 
ATOM     13  C   UNL     1      -8.688  54.437  50.200  0.00  0.00    +0.000 C 
ATOM     14  O   UNL     1      -8.456  55.537  50.668  0.00  0.00    +0.000 OA
ATOM     15  N   UNL     1      -9.956  53.954  49.916  0.00  0.00    +0.000 N 
ATOM     16  H   UNL     1      -7.874  52.682  49.502  0.00  0.00    +0.000 HD
ATOM     17  H   UNL     1     -10.091  53.032  49.599  0.00  0.00    +0.000 HD
BRANCH  12  18
ATOM     18  S   UNL     1      -6.090  53.833  50.438  0.00  0.00    +0.000 S 
ATOM     19  O   UNL     1      -5.728  55.166  49.998  0.00  0.00    +0.000 OA
ATOM     20  O   UNL     1      -5.315  52.689  49.989  0.00  0.00    +0.000 OA
BRANCH  18  21
ATOM     21  C   UNL     1      -6.141  53.804  52.232  0.00  0.00    +0.000 A 
ATOM     22  N   UNL     1      -5.503  54.849  52.835  0.00  0.00    +0.000 NA
ATOM     23  C   UNL     1      -6.784  52.771  52.901  0.00  0.00    +0.000 A 
ATOM     24  C   UNL     1      -5.560  54.858  54.185  0.00  0.00    +0.000 A 
ATOM     25  C   UNL     1      -6.801  52.816  54.293  0.00  0.00    +0.000 A 
ATOM     26  C   UNL     1      -6.184  53.880  54.948  0.00  0.00    +0.000 A 
ENDBRANCH  18  21
ENDBRANCH  12  18
ENDBRANCH   1  15
BRANCH   3  27
ATOM     27  C   UNL     1     -11.485  55.716  47.769  0.00  0.00    +0.000 C 
ATOM     28  O   UNL     1     -12.419  55.617  46.981  0.00  0.00    +0.000 OA
BRANCH  27  29
ATOM     29  O   UNL     1     -10.171  55.687  47.399  0.00  0.00    +0.000 OA
BRANCH  29  30
ATOM     30  C   UNL     1      -9.766  54.738  46.410  0.00  0.00    +0.000 C 
ATOM     31  C   UNL     1      -8.299  54.901  46.072  0.00  0.00    +0.000 C 
ENDBRANCH  29  30
ENDBRANCH  27  29
ENDBRANCH   3  27
TORSDOF 6
ENDMDL
MODEL 3
REMARK VINA RESULT:      -7.2      3.967      7.380
REMARK  Name = 
REMARK  9 active torsions:
REMARK  status: ('A' for Active; 'I' for Inactive)
REMARK    1  A    between atoms: S_1  and  N_4
REMARK    2  A    between atoms: S_1  and  C_5
REMARK    3  A    between atoms: N_10  and  C_13
REMARK    4  A    between atoms: C_16  and  C_19
REMARK    5  A    between atoms: C_19  and  O_23
REMARK    6  A    between atoms: O_23  and  C_26
REMARK    7  A    between atoms: C_24  and  C_27
REMARK    8  A    between atoms: C_24  and  C_28
REMARK    9  A    between atoms: C_26  and  C_29
REMARK                            x       y       z     vdW  Elec       q    Type
REMARK                         _______ _______ _______ _____ _____    ______ ____
ROOT
ATOM      1  C   UNL     1     -11.351  54.625  49.877  0.00  0.00    +0.000 A 
ATOM      2  S   UNL     1     -12.081  54.582  51.413  0.00  0.00    +0.000 S 
ATOM      3  C   UNL     1     -11.830  55.647  49.071  0.00  0.00    +0.000 A 
ATOM      4  C   UNL     1     -12.835  56.090  51.151  0.00  0.00    +0.000 A 
ATOM      5  C   UNL     1     -12.618  56.563  49.868  0.00  0.00    +0.000 A 
ATOM      6  C   UNL     1     -13.639  56.797  52.217  0.00  0.00    +0.000 C 
ATOM      7  C   UNL     1     -13.224  57.852  49.387  0.00  0.00    +0.000 C 
ATOM      8  C   UNL     1     -14.560  57.893  51.593  0.00  0.00    +0.000 C 
ATOM      9  C   UNL     1     -13.755  58.706  50.544  0.00  0.00    +0.000 C 
ATOM     10  C   UNL     1     -15.051  58.869  52.678  0.00  0.00    +0.000 C 
ATOM     11  C   UNL     1     -15.802  57.239  50.953  0.00  0.00    +0.000 C 
ENDROOT
BRANCH   1  15
ATOM     12  N   UNL     1      -9.804  51.533  48.883  0.00  0.00    +0.000 N 
ATOM     13  C   UNL     1     -10.809  52.477  49.038  0.00  0.00    +0.000 C 
ATOM     14  O   UNL     1     -11.932  52.279  48.609  0.00  0.00    +0.000 OA
ATOM     15  N   UNL     1     -10.398  53.648  49.655  0.00  0.00    +0.000 N 
ATOM     16  H   UNL     1      -8.932  51.683  49.316  0.00  0.00    +0.000 HD
ATOM     17  H   UNL     1      -9.460  53.780  49.926  0.00  0.00    +0.000 HD
BRANCH  12  18
ATOM     18  S   UNL     1     -10.035  50.144  47.975  0.00  0.00    +0.000 S 
ATOM     19  O   UNL     1     -11.300  49.550  48.360  0.00  0.00    +0.000 OA
ATOM     20  O   UNL     1      -8.808  49.378  48.107  0.00  0.00    +0.000 OA
BRANCH  18  21
ATOM     21  C   UNL     1     -10.152  50.721  46.279  0.00  0.00    +0.000 A 
ATOM     22  N   UNL     1     -11.410  50.679  45.751  0.00  0.00    +0.000 NA
ATOM     23  C   UNL     1      -9.020  51.157  45.604  0.00  0.00    +0.000 A 
ATOM     24  C   UNL     1     -11.520  51.140  44.485  0.00  0.00    +0.000 A 
ATOM     25  C   UNL     1      -9.182  51.606  44.296  0.00  0.00    +0.000 A 
ATOM     26  C   UNL     1     -10.454  51.605  43.727  0.00  0.00    +0.000 A 
ENDBRANCH  18  21
ENDBRANCH  12  18
ENDBRANCH   1  15
BRANCH   3  27
ATOM     27  C   UNL     1     -11.619  55.748  47.617  0.00  0.00    +0.000 C 
ATOM     28  O   UNL     1     -12.531  55.738  46.798  0.00  0.00    +0.000 OA
BRANCH  27  29
ATOM     29  O   UNL     1     -10.296  55.686  47.285  0.00  0.00    +0.000 OA
BRANCH  29  30
ATOM     30  C   UNL     1      -9.893  54.753  46.280  0.00  0.00    +0.000 C 
ATOM     31  C   UNL     1      -8.410  54.869  45.998  0.00  0.00    +0.000 C 
ENDBRANCH  29  30
ENDBRANCH  27  29
ENDBRANCH   3  27
TORSDOF 6
ENDMDL
MODEL 4
REMARK VINA RESULT:      -7.2      3.590      5.964
REMARK  Name = 
REMARK  9 active torsions:
REMARK  status: ('A' for Active; 'I' for Inactive)
REMARK    1  A    between atoms: S_1  and  N_4
REMARK    2  A    between atoms: S_1  and  C_5
REMARK    3  A    between atoms: N_10  and  C_13
REMARK    4  A    between atoms: C_16  and  C_19
REMARK    5  A    between atoms: C_19  and  O_23
REMARK    6  A    between atoms: O_23  and  C_26
REMARK    7  A    between atoms: C_24  and  C_27
REMARK    8  A    between atoms: C_24  and  C_28
REMARK    9  A    between atoms: C_26  and  C_29
REMARK                            x       y       z     vdW  Elec       q    Type
REMARK                         _______ _______ _______ _____ _____    ______ ____
ROOT
ATOM      1  C   UNL     1     -10.767  53.730  47.653  0.00  0.00    +0.000 A 
ATOM      2  S   UNL     1     -11.792  52.731  46.734  0.00  0.00    +0.000 S 
ATOM      3  C   UNL     1      -9.454  53.723  47.211  0.00  0.00    +0.000 A 
ATOM      4  C   UNL     1     -10.583  52.494  45.553  0.00  0.00    +0.000 A 
ATOM      5  C   UNL     1      -9.383  53.081  45.915  0.00  0.00    +0.000 A 
ATOM      6  C   UNL     1     -10.829  51.726  44.276  0.00  0.00    +0.000 C 
ATOM      7  C   UNL     1      -8.155  52.966  45.055  0.00  0.00    +0.000 C 
ATOM      8  C   UNL     1      -9.484  51.288  43.614  0.00  0.00    +0.000 C 
ATOM      9  C   UNL     1      -8.486  52.478  43.640  0.00  0.00    +0.000 C 
ATOM     10  C   UNL     1      -9.709  50.886  42.145  0.00  0.00    +0.000 C 
ATOM     11  C   UNL     1      -8.905  50.064  44.353  0.00  0.00    +0.000 C 
ENDROOT
BRANCH   1  15
ATOM     12  N   UNL     1     -12.603  56.209  49.504  0.00  0.00    +0.000 N 
ATOM     13  C   UNL     1     -12.042  55.581  48.401  0.00  0.00    +0.000 C 
ATOM     14  O   UNL     1     -12.183  56.032  47.279  0.00  0.00    +0.000 OA
ATOM     15  N   UNL     1     -11.383  54.398  48.696  0.00  0.00    +0.000 N 
ATOM     16  H   UNL     1     -12.399  55.870  50.406  0.00  0.00    +0.000 HD
ATOM     17  H   UNL     1     -11.354  54.046  49.616  0.00  0.00    +0.000 HD
BRANCH  12  18
ATOM     18  S   UNL     1     -13.621  57.530  49.339  0.00  0.00    +0.000 S 
ATOM     19  O   UNL     1     -14.661  57.192  48.387  0.00  0.00    +0.000 OA
ATOM     20  O   UNL     1     -12.753  58.667  49.087  0.00  0.00    +0.000 OA
BRANCH  18  21
ATOM     21  C   UNL     1     -14.361  57.742  50.961  0.00  0.00    +0.000 A 
ATOM     22  N   UNL     1     -14.132  58.960  51.534  0.00  0.00    +0.000 NA
ATOM     23  C   UNL     1     -15.091  56.714  51.542  0.00  0.00    +0.000 A 
ATOM     24  C   UNL     1     -14.710  59.147  52.742  0.00  0.00    +0.000 A 
ATOM     25  C   UNL     1     -15.652  56.948  52.795  0.00  0.00    +0.000 A 
ATOM     26  C   UNL     1     -15.465  58.188  53.404  0.00  0.00    +0.000 A 
ENDBRANCH  18  21
ENDBRANCH  12  18
ENDBRANCH   1  15
BRANCH   3  27
ATOM     27  C   UNL     1      -8.301  54.234  47.971  0.00  0.00    +0.000 C 
ATOM     28  O   UNL     1      -7.286  53.580  48.186  0.00  0.00    +0.000 OA
BRANCH  27  29
ATOM     29  O   UNL     1      -8.559  55.447  48.542  0.00  0.00    +0.000 OA
BRANCH  29  30
ATOM     30  C   UNL     1      -8.372  55.585  49.953  0.00  0.00    +0.000 C 
ATOM     31  C   UNL     1      -8.132  57.033  50.327  0.00  0.00    +0.000 C 
ENDBRANCH  29  30
ENDBRANCH  27  29
ENDBRANCH   3  27
TORSDOF 6
ENDMDL
MODEL 5
REMARK VINA RESULT:      -7.1      4.193      7.601
REMARK  Name = 
REMARK  9 active torsions:
REMARK  status: ('A' for Active; 'I' for Inactive)
REMARK    1  A    between atoms: S_1  and  N_4
REMARK    2  A    between atoms: S_1  and  C_5
REMARK    3  A    between atoms: N_10  and  C_13
REMARK    4  A    between atoms: C_16  and  C_19
REMARK    5  A    between atoms: C_19  and  O_23
REMARK    6  A    between atoms: O_23  and  C_26
REMARK    7  A    between atoms: C_24  and  C_27
REMARK    8  A    between atoms: C_24  and  C_28
REMARK    9  A    between atoms: C_26  and  C_29
REMARK                            x       y       z     vdW  Elec       q    Type
REMARK                         _______ _______ _______ _____ _____    ______ ____
ROOT
ATOM      1  C   UNL     1      -8.803  54.971  47.229  0.00  0.00    +0.000 A 
ATOM      2  S   UNL     1      -7.552  54.283  46.305  0.00  0.00    +0.000 S 
ATOM      3  C   UNL     1     -10.069  54.627  46.780  0.00  0.00    +0.000 A 
ATOM      4  C   UNL     1      -8.652  53.280  45.471  0.00  0.00    +0.000 A 
ATOM      5  C   UNL     1      -9.965  53.550  45.818  0.00  0.00    +0.000 A 
ATOM      6  C   UNL     1      -8.211  52.234  44.475  0.00  0.00    +0.000 C 
ATOM      7  C   UNL     1     -11.117  52.827  45.178  0.00  0.00    +0.000 C 
ATOM      8  C   UNL     1      -9.395  51.794  43.558  0.00  0.00    +0.000 C 
ATOM      9  C   UNL     1     -10.663  51.570  44.427  0.00  0.00    +0.000 C 
ATOM     10  C   UNL     1      -9.066  50.469  42.846  0.00  0.00    +0.000 C 
ATOM     11  C   UNL     1      -9.649  52.860  42.472  0.00  0.00    +0.000 C 
ENDROOT
BRANCH   1  15
ATOM     12  N   UNL     1      -7.723  56.003  50.502  0.00  0.00    +0.000 N 
ATOM     13  C   UNL     1      -8.102  55.137  49.486  0.00  0.00    +0.000 C 
ATOM     14  O   UNL     1      -8.122  53.932  49.659  0.00  0.00    +0.000 OA
ATOM     15  N   UNL     1      -8.385  55.764  48.282  0.00  0.00    +0.000 N 
ATOM     16  H   UNL     1      -7.801  56.974  50.360  0.00  0.00    +0.000 HD
ATOM     17  H   UNL     1      -8.291  56.739  48.180  0.00  0.00    +0.000 HD
BRANCH  12  18
ATOM     18  S   UNL     1      -7.135  55.436  51.965  0.00  0.00    +0.000 S 
ATOM     19  O   UNL     1      -6.975  56.563  52.863  0.00  0.00    +0.000 OA
ATOM     20  O   UNL     1      -5.987  54.610  51.633  0.00  0.00    +0.000 OA
BRANCH  18  21
ATOM     21  C   UNL     1      -8.430  54.366  52.595  0.00  0.00    +0.000 A 
ATOM     22  N   UNL     1      -8.018  53.105  52.917  0.00  0.00    +0.000 NA
ATOM     23  C   UNL     1      -9.732  54.832  52.717  0.00  0.00    +0.000 A 
ATOM     24  C   UNL     1      -8.975  52.296  53.424  0.00  0.00    +0.000 A 
ATOM     25  C   UNL     1     -10.687  53.956  53.227  0.00  0.00    +0.000 A 
ATOM     26  C   UNL     1     -10.303  52.668  53.594  0.00  0.00    +0.000 A 
ENDBRANCH  18  21
ENDBRANCH  12  18
ENDBRANCH   1  15
BRANCH   3  27
ATOM     27  C   UNL     1     -11.319  55.297  47.176  0.00  0.00    +0.000 C 
ATOM     28  O   UNL     1     -11.919  56.091  46.458  0.00  0.00    +0.000 OA
BRANCH  27  29
ATOM     29  O   UNL     1     -11.637  55.061  48.482  0.00  0.00    +0.000 OA
BRANCH  29  30
ATOM     30  C   UNL     1     -12.311  53.843  48.806  0.00  0.00    +0.000 C 
ATOM     31  C   UNL     1     -11.498  53.017  49.781  0.00  0.00    +0.000 C 
ENDBRANCH  29  30
ENDBRANCH  27  29
ENDBRANCH   3  27
TORSDOF 6
ENDMDL
MODEL 6
REMARK VINA RESULT:      -7.1      2.865      7.648
REMARK  Name = 
REMARK  9 active torsions:
REMARK  status: ('A' for Active; 'I' for Inactive)
REMARK    1  A    between atoms: S_1  and  N_4
REMARK    2  A    between atoms: S_1  and  C_5
REMARK    3  A    between atoms: N_10  and  C_13
REMARK    4  A    between atoms: C_16  and  C_19
REMARK    5  A    between atoms: C_19  and  O_23
REMARK    6  A    between atoms: O_23  and  C_26
REMARK    7  A    between atoms: C_24  and  C_27
REMARK    8  A    between atoms: C_24  and  C_28
REMARK    9  A    between atoms: C_26  and  C_29
REMARK                            x       y       z     vdW  Elec       q    Type
REMARK                         _______ _______ _______ _____ _____    ______ ____
ROOT
ATOM      1  C   UNL     1     -11.276  54.563  49.980  0.00  0.00    +0.000 A 
ATOM      2  S   UNL     1     -11.823  54.703  51.584  0.00  0.00    +0.000 S 
ATOM      3  C   UNL     1     -11.949  55.392  49.096  0.00  0.00    +0.000 A 
ATOM      4  C   UNL     1     -12.762  56.074  51.196  0.00  0.00    +0.000 A 
ATOM      5  C   UNL     1     -12.741  56.350  49.839  0.00  0.00    +0.000 A 
ATOM      6  C   UNL     1     -13.518  56.868  52.235  0.00  0.00    +0.000 C 
ATOM      7  C   UNL     1     -13.534  57.483  49.250  0.00  0.00    +0.000 C 
ATOM      8  C   UNL     1     -14.616  57.759  51.575  0.00  0.00    +0.000 C 
ATOM      9  C   UNL     1     -14.025  58.461  50.322  0.00  0.00    +0.000 C 
ATOM     10  C   UNL     1     -15.090  58.850  52.553  0.00  0.00    +0.000 C 
ATOM     11  C   UNL     1     -15.842  56.900  51.202  0.00  0.00    +0.000 C 
ENDROOT
BRANCH   1  15
ATOM     12  N   UNL     1      -7.979  53.147  49.717  0.00  0.00    +0.000 N 
ATOM     13  C   UNL     1      -8.951  54.107  49.960  0.00  0.00    +0.000 C 
ATOM     14  O   UNL     1      -8.653  55.224  50.342  0.00  0.00    +0.000 OA
ATOM     15  N   UNL     1     -10.251  53.654  49.789  0.00  0.00    +0.000 N 
ATOM     16  H   UNL     1      -8.243  52.283  49.327  0.00  0.00    +0.000 HD
ATOM     17  H   UNL     1     -10.437  52.720  49.541  0.00  0.00    +0.000 HD
BRANCH  12  18
ATOM     18  S   UNL     1      -6.365  53.422  50.073  0.00  0.00    +0.000 S 
ATOM     19  O   UNL     1      -5.985  54.707  49.518  0.00  0.00    +0.000 OA
ATOM     20  O   UNL     1      -5.661  52.221  49.659  0.00  0.00    +0.000 OA
BRANCH  18  21
ATOM     21  C   UNL     1      -6.301  53.517  51.864  0.00  0.00    +0.000 A 
ATOM     22  N   UNL     1      -7.135  52.650  52.509  0.00  0.00    +0.000 NA
ATOM     23  C   UNL     1      -5.457  54.425  52.491  0.00  0.00    +0.000 A 
ATOM     24  C   UNL     1      -7.075  52.687  53.859  0.00  0.00    +0.000 A 
ATOM     25  C   UNL     1      -5.443  54.437  53.884  0.00  0.00    +0.000 A 
ATOM     26  C   UNL     1      -6.261  53.549  54.581  0.00  0.00    +0.000 A 
ENDBRANCH  18  21
ENDBRANCH  12  18
ENDBRANCH   1  15
BRANCH   3  27
ATOM     27  C   UNL     1     -11.912  55.275  47.629  0.00  0.00    +0.000 C 
ATOM     28  O   UNL     1     -12.143  56.208  46.868  0.00  0.00    +0.000 OA
BRANCH  27  29
ATOM     29  O   UNL     1     -11.755  53.981  47.221  0.00  0.00    +0.000 OA
BRANCH  29  30
ATOM     30  C   UNL     1     -10.794  53.705  46.200  0.00  0.00    +0.000 C 
ATOM     31  C   UNL     1     -11.468  53.180  44.949  0.00  0.00    +0.000 C 
ENDBRANCH  29  30
ENDBRANCH  27  29
ENDBRANCH   3  27
TORSDOF 6
ENDMDL
MODEL 7
REMARK VINA RESULT:      -7.0      3.395      5.593
REMARK  Name = 
REMARK  9 active torsions:
REMARK  status: ('A' for Active; 'I' for Inactive)
REMARK    1  A    between atoms: S_1  and  N_4
REMARK    2  A    between atoms: S_1  and  C_5
REMARK    3  A    between atoms: N_10  and  C_13
REMARK    4  A    between atoms: C_16  and  C_19
REMARK    5  A    between atoms: C_19  and  O_23
REMARK    6  A    between atoms: O_23  and  C_26
REMARK    7  A    between atoms: C_24  and  C_27
REMARK    8  A    between atoms: C_24  and  C_28
REMARK    9  A    between atoms: C_26  and  C_29
REMARK                            x       y       z     vdW  Elec       q    Type
REMARK                         _______ _______ _______ _____ _____    ______ ____
ROOT
ATOM      1  C   UNL     1     -10.995  54.986  48.216  0.00  0.00    +0.000 A 
ATOM      2  S   UNL     1     -11.018  54.933  46.516  0.00  0.00    +0.000 S 
ATOM      3  C   UNL     1     -10.927  53.732  48.802  0.00  0.00    +0.000 A 
ATOM      4  C   UNL     1     -10.644  53.268  46.514  0.00  0.00    +0.000 A 
ATOM      5  C   UNL     1     -10.612  52.742  47.794  0.00  0.00    +0.000 A 
ATOM      6  C   UNL     1     -10.386  52.490  45.245  0.00  0.00    +0.000 C 
ATOM      7  C   UNL     1     -10.350  51.283  48.043  0.00  0.00    +0.000 C 
ATOM      8  C   UNL     1     -10.514  50.954  45.490  0.00  0.00    +0.000 C 
ATOM      9  C   UNL     1      -9.780  50.580  46.807  0.00  0.00    +0.000 C 
ATOM     10  C   UNL     1      -9.861  50.165  44.340  0.00  0.00    +0.000 C 
ATOM     11  C   UNL     1     -12.001  50.549  45.551  0.00  0.00    +0.000 C 
ENDROOT
BRANCH   1  15
ATOM     12  N   UNL     1     -12.220  58.207  49.248  0.00  0.00    +0.000 N 
ATOM     13  C   UNL     1     -12.258  56.927  48.713  0.00  0.00    +0.000 C 
ATOM     14  O   UNL     1     -13.297  56.449  48.294  0.00  0.00    +0.000 OA
ATOM     15  N   UNL     1     -11.046  56.255  48.762  0.00  0.00    +0.000 N 
ATOM     16  H   UNL     1     -11.352  58.598  49.498  0.00  0.00    +0.000 HD
ATOM     17  H   UNL     1     -10.251  56.668  49.171  0.00  0.00    +0.000 HD
BRANCH  12  18
ATOM     18  S   UNL     1     -13.616  59.103  49.483  0.00  0.00    +0.000 S 
ATOM     19  O   UNL     1     -14.446  58.978  48.300  0.00  0.00    +0.000 OA
ATOM     20  O   UNL     1     -13.173  60.416  49.918  0.00  0.00    +0.000 OA
BRANCH  18  21
ATOM     21  C   UNL     1     -14.444  58.307  50.863  0.00  0.00    +0.000 A 
ATOM     22  N   UNL     1     -15.292  57.297  50.511  0.00  0.00    +0.000 NA
ATOM     23  C   UNL     1     -14.209  58.731  52.164  0.00  0.00    +0.000 A 
ATOM     24  C   UNL     1     -15.899  56.667  51.541  0.00  0.00    +0.000 A 
ATOM     25  C   UNL     1     -14.870  58.062  53.190  0.00  0.00    +0.000 A 
ATOM     26  C   UNL     1     -15.726  57.007  52.876  0.00  0.00    +0.000 A 
ENDBRANCH  18  21
ENDBRANCH  12  18
ENDBRANCH   1  15
BRANCH   3  27
ATOM     27  C   UNL     1     -11.196  53.445  50.222  0.00  0.00    +0.000 C 
ATOM     28  O   UNL     1     -12.092  52.701  50.605  0.00  0.00    +0.000 OA
BRANCH  27  29
ATOM     29  O   UNL     1     -10.447  54.225  51.054  0.00  0.00    +0.000 OA
BRANCH  29  30
ATOM     30  C   UNL     1     -11.012  54.615  52.308  0.00  0.00    +0.000 C 
ATOM     31  C   UNL     1     -12.096  55.655  52.113  0.00  0.00    +0.000 C 
ENDBRANCH  29  30
ENDBRANCH  27  29
ENDBRANCH   3  27
TORSDOF 6
ENDMDL
MODEL 8
REMARK VINA RESULT:      -7.0      2.359      3.054
REMARK  Name = 
REMARK  9 active torsions:
REMARK  status: ('A' for Active; 'I' for Inactive)
REMARK    1  A    between atoms: S_1  and  N_4
REMARK    2  A    between atoms: S_1  and  C_5
REMARK    3  A    between atoms: N_10  and  C_13
REMARK    4  A    between atoms: C_16  and  C_19
REMARK    5  A    between atoms: C_19  and  O_23
REMARK    6  A    between atoms: O_23  and  C_26
REMARK    7  A    between atoms: C_24  and  C_27
REMARK    8  A    between atoms: C_24  and  C_28
REMARK    9  A    between atoms: C_26  and  C_29
REMARK                            x       y       z     vdW  Elec       q    Type
REMARK                         _______ _______ _______ _____ _____    ______ ____
ROOT
ATOM      1  C   UNL     1      -8.374  55.700  49.913  0.00  0.00    +0.000 A 
ATOM      2  S   UNL     1      -8.006  55.832  51.568  0.00  0.00    +0.000 S 
ATOM      3  C   UNL     1      -7.556  54.806  49.239  0.00  0.00    +0.000 A 
ATOM      4  C   UNL     1      -6.949  54.495  51.491  0.00  0.00    +0.000 A 
ATOM      5  C   UNL     1      -6.798  54.027  50.196  0.00  0.00    +0.000 A 
ATOM      6  C   UNL     1      -6.272  53.917  52.711  0.00  0.00    +0.000 C 
ATOM      7  C   UNL     1      -5.877  52.885  49.870  0.00  0.00    +0.000 C 
ATOM      8  C   UNL     1      -5.054  53.026  52.311  0.00  0.00    +0.000 C 
ATOM      9  C   UNL     1      -5.454  52.110  51.123  0.00  0.00    +0.000 C 
ATOM     10  C   UNL     1      -4.631  52.126  53.486  0.00  0.00    +0.000 C 
ATOM     11  C   UNL     1      -3.847  53.914  51.943  0.00  0.00    +0.000 C 
ENDROOT
BRANCH   1  15
ATOM     12  N   UNL     1     -11.692  56.794  49.055  0.00  0.00    +0.000 N 
ATOM     13  C   UNL     1     -10.699  55.953  49.537  0.00  0.00    +0.000 C 
ATOM     14  O   UNL     1     -10.970  54.863  50.010  0.00  0.00    +0.000 OA
ATOM     15  N   UNL     1      -9.423  56.491  49.481  0.00  0.00    +0.000 N 
ATOM     16  H   UNL     1     -11.436  57.628  48.599  0.00  0.00    +0.000 HD
ATOM     17  H   UNL     1      -9.269  57.404  49.147  0.00  0.00    +0.000 HD
BRANCH  12  18
ATOM     18  S   UNL     1     -13.317  56.424  49.229  0.00  0.00    +0.000 S 
ATOM     19  O   UNL     1     -13.435  55.017  49.558  0.00  0.00    +0.000 OA
ATOM     20  O   UNL     1     -13.969  56.945  48.040  0.00  0.00    +0.000 OA
BRANCH  18  21
ATOM     21  C   UNL     1     -13.859  57.400  50.635  0.00  0.00    +0.000 A 
ATOM     22  N   UNL     1     -14.392  58.615  50.311  0.00  0.00    +0.000 NA
ATOM     23  C   UNL     1     -13.717  56.913  51.927  0.00  0.00    +0.000 A 
ATOM     24  C   UNL     1     -14.835  59.348  51.356  0.00  0.00    +0.000 A 
ATOM     25  C   UNL     1     -14.172  57.713  52.972  0.00  0.00    +0.000 A 
ATOM     26  C   UNL     1     -14.747  58.950  52.684  0.00  0.00    +0.000 A 
ENDBRANCH  18  21
ENDBRANCH  12  18
ENDBRANCH   1  15
BRANCH   3  27
ATOM     27  C   UNL     1      -7.431  54.709  47.775  0.00  0.00    +0.000 C 
ATOM     28  O   UNL     1      -6.418  54.319  47.205  0.00  0.00    +0.000 OA
BRANCH  27  29
ATOM     29  O   UNL     1      -8.504  55.256  47.131  0.00  0.00    +0.000 OA
BRANCH  29  30
ATOM     30  C   UNL     1      -9.113  54.510  46.075  0.00  0.00    +0.000 C 
ATOM     31  C   UNL     1     -10.620  54.498  46.220  0.00  0.00    +0.000 C 
ENDBRANCH  29  30
ENDBRANCH  27  29
ENDBRANCH   3  27
TORSDOF 6
ENDMDL
MODEL 9
REMARK VINA RESULT:      -6.7      3.764      6.040
REMARK  Name = 
REMARK  9 active torsions:
REMARK  status: ('A' for Active; 'I' for Inactive)
REMARK    1  A    between atoms: S_1  and  N_4
REMARK    2  A    between atoms: S_1  and  C_5
REMARK    3  A    between atoms: N_10  and  C_13
REMARK    4  A    between atoms: C_16  and  C_19
REMARK    5  A    between atoms: C_19  and  O_23
REMARK    6  A    between atoms: O_23  and  C_26
REMARK    7  A    between atoms: C_24  and  C_27
REMARK    8  A    between atoms: C_24  and  C_28
REMARK    9  A    between atoms: C_26  and  C_29
REMARK                            x       y       z     vdW  Elec       q    Type
REMARK                         _______ _______ _______ _____ _____    ______ ____
ROOT
ATOM      1  C   UNL     1     -10.174  54.127  47.245  0.00  0.00    +0.000 A 
ATOM      2  S   UNL     1     -11.269  53.778  45.991  0.00  0.00    +0.000 S 
ATOM      3  C   UNL     1      -9.045  53.323  47.226  0.00  0.00    +0.000 A 
ATOM      4  C   UNL     1     -10.141  52.754  45.224  0.00  0.00    +0.000 A 
ATOM      5  C   UNL     1      -8.988  52.598  45.974  0.00  0.00    +0.000 A 
ATOM      6  C   UNL     1     -10.404  52.108  43.884  0.00  0.00    +0.000 C 
ATOM      7  C   UNL     1      -7.868  51.702  45.525  0.00  0.00    +0.000 C 
ATOM      8  C   UNL     1      -9.437  50.907  43.638  0.00  0.00    +0.000 C 
ATOM      9  C   UNL     1      -7.995  51.315  44.048  0.00  0.00    +0.000 C 
ATOM     10  C   UNL     1      -9.418  50.523  42.147  0.00  0.00    +0.000 C 
ATOM     11  C   UNL     1      -9.911  49.674  44.434  0.00  0.00    +0.000 C 
ENDROOT
BRANCH   1  15
ATOM     12  N   UNL     1     -11.755  55.907  49.942  0.00  0.00    +0.000 N 
ATOM     13  C   UNL     1     -11.382  54.823  49.160  0.00  0.00    +0.000 C 
ATOM     14  O   UNL     1     -11.723  53.690  49.449  0.00  0.00    +0.000 OA
ATOM     15  N   UNL     1     -10.561  55.150  48.092  0.00  0.00    +0.000 N 
ATOM     16  H   UNL     1     -11.539  56.818  49.636  0.00  0.00    +0.000 HD
ATOM     17  H   UNL     1     -10.263  56.076  47.942  0.00  0.00    +0.000 HD
BRANCH  12  18
ATOM     18  S   UNL     1     -12.563  55.705  51.396  0.00  0.00    +0.000 S 
ATOM     19  O   UNL     1     -11.586  55.700  52.467  0.00  0.00    +0.000 OA
ATOM     20  O   UNL     1     -13.432  54.557  51.207  0.00  0.00    +0.000 OA
BRANCH  18  21
ATOM     21  C   UNL     1     -13.595  57.165  51.552  0.00  0.00    +0.000 A 
ATOM     22  N   UNL     1     -13.705  57.908  50.412  0.00  0.00    +0.000 NA
ATOM     23  C   UNL     1     -14.202  57.472  52.763  0.00  0.00    +0.000 A 
ATOM     24  C   UNL     1     -14.505  58.993  50.505  0.00  0.00    +0.000 A 
ATOM     25  C   UNL     1     -15.002  58.610  52.813  0.00  0.00    +0.000 A 
ATOM     26  C   UNL     1     -15.163  59.382  51.664  0.00  0.00    +0.000 A 
ENDBRANCH  18  21
ENDBRANCH  12  18
ENDBRANCH   1  15
BRANCH   3  27
ATOM     27  C   UNL     1      -8.087  53.181  48.335  0.00  0.00    +0.000 C 
ATOM     28  O   UNL     1      -7.919  52.138  48.957  0.00  0.00    +0.000 OA
BRANCH  27  29
ATOM     29  O   UNL     1      -7.536  54.378  48.693  0.00  0.00    +0.000 OA
BRANCH  29  30
ATOM     30  C   UNL     1      -6.124  54.546  48.541  0.00  0.00    +0.000 C 
ATOM     31  C   UNL     1      -5.393  54.154  49.808  0.00  0.00    +0.000 C 
ENDBRANCH  29  30
ENDBRANCH  27  29
ENDBRANCH   3  27
TORSDOF 6
ENDMDL
