MODEL 1
REMARK VINA RESULT:      -8.0      0.000      0.000
REMARK  Name = 
REMARK  10 active torsions:
REMARK  status: ('A' for Active; 'I' for Inactive)
REMARK    1  A    between atoms: S_1  and  N_4
REMARK    2  A    between atoms: S_1  and  C_5
REMARK    3  A    between atoms: N_8  and  C_13
REMARK    4  A    between atoms: N_10  and  C_14
REMARK    5  A    between atoms: C_16  and  C_19
REMARK    6  A    between atoms: C_19  and  O_23
REMARK    7  A    between atoms: O_23  and  C_26
REMARK    8  A    between atoms: C_24  and  C_27
REMARK    9  A    between atoms: C_24  and  C_28
REMARK   10  A    between atoms: C_26  and  C_29
REMARK                            x       y       z     vdW  Elec       q    Type
REMARK                         _______ _______ _______ _____ _____    ______ ____
ROOT
ATOM      1  C   UNL     1     -10.979  54.364  51.606  0.00  0.00    +0.000 A 
ATOM      2  S   UNL     1     -10.559  53.630  53.082  0.00  0.00    +0.000 S 
ATOM      3  C   UNL     1      -9.899  54.887  50.918  0.00  0.00    +0.000 A 
ATOM      4  C   UNL     1      -8.896  53.753  52.721  0.00  0.00    +0.000 A 
ATOM      5  C   UNL     1      -8.669  54.436  51.540  0.00  0.00    +0.000 A 
ATOM      6  C   UNL     1      -7.824  53.161  53.606  0.00  0.00    +0.000 C 
ATOM      7  C   UNL     1      -7.275  54.693  51.040  0.00  0.00    +0.000 C 
ATOM      8  C   UNL     1      -6.430  53.789  53.292  0.00  0.00    +0.000 C 
ATOM      9  C   UNL     1      -6.226  53.844  51.758  0.00  0.00    +0.000 C 
ATOM     10  C   UNL     1      -5.301  52.927  53.882  0.00  0.00    +0.000 C 
ATOM     11  C   UNL     1      -6.330  55.198  53.914  0.00  0.00    +0.000 C 
ENDROOT
BRANCH   1  15
ATOM     12  N   UNL     1     -14.420  55.284  51.211  0.00  0.00    +0.000 N 
ATOM     13  C   UNL     1     -13.080  55.454  51.538  0.00  0.00    +0.000 C 
ATOM     14  O   UNL     1     -12.638  56.534  51.917  0.00  0.00    +0.000 OA
ATOM     15  N   UNL     1     -12.324  54.324  51.301  0.00  0.00    +0.000 N 
ATOM     16  H   UNL     1     -14.731  54.405  50.894  0.00  0.00    +0.000 HD
ATOM     17  H   UNL     1     -12.734  53.512  50.922  0.00  0.00    +0.000 HD
BRANCH  12  18
ATOM     18  S   UNL     1     -15.515  56.537  51.343  0.00  0.00    +0.000 S 
ATOM     19  O   UNL     1     -15.682  56.848  52.747  0.00  0.00    +0.000 OA
ATOM     20  O   UNL     1     -16.665  56.148  50.548  0.00  0.00    +0.000 OA
BRANCH  18  21
ATOM     21  C   UNL     1     -14.835  57.980  50.526  0.00  0.00    +0.000 A 
ATOM     22  N   UNL     1     -14.822  59.183  51.100  0.00  0.00    +0.000 NA
ATOM     23  N   UNL     1     -14.276  58.061  49.268  0.00  0.00    +0.000 N 
ATOM     24  C   UNL     1     -14.217  60.030  50.215  0.00  0.00    +0.000 A 
ATOM     25  C   UNL     1     -13.876  59.362  49.068  0.00  0.00    +0.000 A 
ATOM     26  C   UNL     1     -14.095  57.047  48.261  0.00  0.00    +0.000 C 
ENDBRANCH  18  21
ENDBRANCH  12  18
ENDBRANCH   1  15
BRANCH   3  27
ATOM     27  C   UNL     1     -10.019  55.765  49.746  0.00  0.00    +0.000 C 
ATOM     28  O   UNL     1      -9.453  56.845  49.631  0.00  0.00    +0.000 OA
BRANCH  27  29
ATOM     29  O   UNL     1     -10.800  55.211  48.776  0.00  0.00    +0.000 OA
BRANCH  29  30
ATOM     30  C   UNL     1     -10.393  55.354  47.414  0.00  0.00    +0.000 C 
ATOM     31  C   UNL     1     -11.526  54.956  46.490  0.00  0.00    +0.000 C 
ENDBRANCH  29  30
ENDBRANCH  27  29
ENDBRANCH   3  27
TORSDOF 6
ENDMDL
MODEL 2
REMARK VINA RESULT:      -7.5      3.116      7.649
REMARK  Name = 
REMARK  10 active torsions:
REMARK  status: ('A' for Active; 'I' for Inactive)
REMARK    1  A    between atoms: S_1  and  N_4
REMARK    2  A    between atoms: S_1  and  C_5
REMARK    3  A    between atoms: N_8  and  C_13
REMARK    4  A    between atoms: N_10  and  C_14
REMARK    5  A    between atoms: C_16  and  C_19
REMARK    6  A    between atoms: C_19  and  O_23
REMARK    7  A    between atoms: O_23  and  C_26
REMARK    8  A    between atoms: C_24  and  C_27
REMARK    9  A    between atoms: C_24  and  C_28
REMARK   10  A    between atoms: C_26  and  C_29
REMARK                            x       y       z     vdW  Elec       q    Type
REMARK                         _______ _______ _______ _____ _____    ______ ____
ROOT
ATOM      1  C   UNL     1     -10.983  54.802  50.292  0.00  0.00    +0.000 A 
ATOM      2  S   UNL     1     -11.674  54.842  51.846  0.00  0.00    +0.000 S 
ATOM      3  C   UNL     1     -11.599  55.648  49.388  0.00  0.00    +0.000 A 
ATOM      4  C   UNL     1     -12.644  56.181  51.429  0.00  0.00    +0.000 A 
ATOM      5  C   UNL     1     -12.513  56.524  50.095  0.00  0.00    +0.000 A 
ATOM      6  C   UNL     1     -13.522  56.894  52.430  0.00  0.00    +0.000 C 
ATOM      7  C   UNL     1     -13.300  57.656  49.497  0.00  0.00    +0.000 C 
ATOM      8  C   UNL     1     -14.603  57.760  51.709  0.00  0.00    +0.000 C 
ATOM      9  C   UNL     1     -13.939  58.553  50.556  0.00  0.00    +0.000 C 
ATOM     10  C   UNL     1     -15.219  58.780  52.682  0.00  0.00    +0.000 C 
ATOM     11  C   UNL     1     -15.738  56.860  51.179  0.00  0.00    +0.000 C 
ENDROOT
BRANCH   1  15
ATOM     12  N   UNL     1      -7.661  53.457  50.358  0.00  0.00    +0.000 N 
ATOM     13  C   UNL     1      -8.666  54.396  50.563  0.00  0.00    +0.000 C 
ATOM     14  O   UNL     1      -8.447  55.466  51.122  0.00  0.00    +0.000 OA
ATOM     15  N   UNL     1      -9.906  53.948  50.158  0.00  0.00    +0.000 N 
ATOM     16  H   UNL     1      -7.882  52.603  49.921  0.00  0.00    +0.000 HD
ATOM     17  H   UNL     1     -10.021  53.043  49.785  0.00  0.00    +0.000 HD
BRANCH  12  18
ATOM     18  S   UNL     1      -6.088  53.745  50.838  0.00  0.00    +0.000 S 
ATOM     19  O   UNL     1      -5.674  55.019  50.291  0.00  0.00    +0.000 OA
ATOM     20  O   UNL     1      -5.344  52.543  50.510  0.00  0.00    +0.000 OA
BRANCH  18  21
ATOM     21  C   UNL     1      -6.047  53.860  52.625  0.00  0.00    +0.000 A 
ATOM     22  N   UNL     1      -5.516  54.906  53.258  0.00  0.00    +0.000 NA
ATOM     23  N   UNL     1      -6.511  52.946  53.547  0.00  0.00    +0.000 N 
ATOM     24  C   UNL     1      -5.676  54.673  54.596  0.00  0.00    +0.000 A 
ATOM     25  C   UNL     1      -6.283  53.462  54.803  0.00  0.00    +0.000 A 
ATOM     26  C   UNL     1      -7.130  51.659  53.356  0.00  0.00    +0.000 C 
ENDBRANCH  18  21
ENDBRANCH  12  18
ENDBRANCH   1  15
BRANCH   3  27
ATOM     27  C   UNL     1     -11.344  55.629  47.941  0.00  0.00    +0.000 C 
ATOM     28  O   UNL     1     -12.215  55.514  47.088  0.00  0.00    +0.000 OA
BRANCH  27  29
ATOM     29  O   UNL     1     -10.023  55.803  47.657  0.00  0.00    +0.000 OA
BRANCH  29  30
ATOM     30  C   UNL     1      -9.440  55.005  46.625  0.00  0.00    +0.000 C 
ATOM     31  C   UNL     1      -7.968  54.784  46.909  0.00  0.00    +0.000 C 
ENDBRANCH  29  30
ENDBRANCH  27  29
ENDBRANCH   3  27
TORSDOF 6
ENDMDL
MODEL 3
REMARK VINA RESULT:      -7.0      1.339      1.937
REMARK  Name = 
REMARK  10 active torsions:
REMARK  status: ('A' for Active; 'I' for Inactive)
REMARK    1  A    between atoms: S_1  and  N_4
REMARK    2  A    between atoms: S_1  and  C_5
REMARK    3  A    between atoms: N_8  and  C_13
REMARK    4  A    between atoms: N_10  and  C_14
REMARK    5  A    between atoms: C_16  and  C_19
REMARK    6  A    between atoms: C_19  and  O_23
REMARK    7  A    between atoms: O_23  and  C_26
REMARK    8  A    between atoms: C_24  and  C_27
REMARK    9  A    between atoms: C_24  and  C_28
REMARK   10  A    between atoms: C_26  and  C_29
REMARK                            x       y       z     vdW  Elec       q    Type
REMARK                         _______ _______ _______ _____ _____    ______ ____
ROOT
ATOM      1  C   UNL     1     -11.088  53.509  51.476  0.00  0.00    +0.000 A 
ATOM      2  S   UNL     1     -10.383  53.745  53.006  0.00  0.00    +0.000 S 
ATOM      3  C   UNL     1     -10.186  53.118  50.503  0.00  0.00    +0.000 A 
ATOM      4  C   UNL     1      -8.905  53.078  52.478  0.00  0.00    +0.000 A 
ATOM      5  C   UNL     1      -8.923  52.776  51.128  0.00  0.00    +0.000 A 
ATOM      6  C   UNL     1      -7.737  52.847  53.407  0.00  0.00    +0.000 C 
ATOM      7  C   UNL     1      -7.716  52.207  50.437  0.00  0.00    +0.000 C 
ATOM      8  C   UNL     1      -6.412  52.659  52.604  0.00  0.00    +0.000 C 
ATOM      9  C   UNL     1      -6.662  51.695  51.418  0.00  0.00    +0.000 C 
ATOM     10  C   UNL     1      -5.322  52.033  53.492  0.00  0.00    +0.000 C 
ATOM     11  C   UNL     1      -5.895  54.025  52.106  0.00  0.00    +0.000 C 
ENDROOT
BRANCH   1  15
ATOM     12  N   UNL     1     -14.287  55.121  51.358  0.00  0.00    +0.000 N 
ATOM     13  C   UNL     1     -12.900  55.030  51.386  0.00  0.00    +0.000 C 
ATOM     14  O   UNL     1     -12.185  56.024  51.300  0.00  0.00    +0.000 OA
ATOM     15  N   UNL     1     -12.450  53.727  51.425  0.00  0.00    +0.000 N 
ATOM     16  H   UNL     1     -14.825  54.298  51.413  0.00  0.00    +0.000 HD
ATOM     17  H   UNL     1     -13.084  52.972  51.416  0.00  0.00    +0.000 HD
BRANCH  12  18
ATOM     18  S   UNL     1     -15.062  56.594  51.235  0.00  0.00    +0.000 S 
ATOM     19  O   UNL     1     -14.636  57.425  52.341  0.00  0.00    +0.000 OA
ATOM     20  O   UNL     1     -16.470  56.291  51.061  0.00  0.00    +0.000 OA
BRANCH  18  21
ATOM     21  C   UNL     1     -14.551  57.384  49.709  0.00  0.00    +0.000 A 
ATOM     22  N   UNL     1     -14.405  56.705  48.572  0.00  0.00    +0.000 NA
ATOM     23  N   UNL     1     -14.243  58.711  49.500  0.00  0.00    +0.000 N 
ATOM     24  C   UNL     1     -14.035  57.614  47.621  0.00  0.00    +0.000 A 
ATOM     25  C   UNL     1     -13.919  58.864  48.171  0.00  0.00    +0.000 A 
ATOM     26  C   UNL     1     -14.220  59.820  50.420  0.00  0.00    +0.000 C 
ENDBRANCH  18  21
ENDBRANCH  12  18
ENDBRANCH   1  15
BRANCH   3  27
ATOM     27  C   UNL     1     -10.496  53.075  49.067  0.00  0.00    +0.000 C 
ATOM     28  O   UNL     1     -10.417  52.067  48.375  0.00  0.00    +0.000 OA
BRANCH  27  29
ATOM     29  O   UNL     1     -10.929  54.281  48.605  0.00  0.00    +0.000 OA
BRANCH  29  30
ATOM     30  C   UNL     1     -11.966  54.298  47.623  0.00  0.00    +0.000 C 
ATOM     31  C   UNL     1     -11.562  55.176  46.457  0.00  0.00    +0.000 C 
ENDBRANCH  29  30
ENDBRANCH  27  29
ENDBRANCH   3  27
TORSDOF 6
ENDMDL
MODEL 4
REMARK VINA RESULT:      -6.9      2.375      3.726
REMARK  Name = 
REMARK  10 active torsions:
REMARK  status: ('A' for Active; 'I' for Inactive)
REMARK    1  A    between atoms: S_1  and  N_4
REMARK    2  A    between atoms: S_1  and  C_5
REMARK    3  A    between atoms: N_8  and  C_13
REMARK    4  A    between atoms: N_10  and  C_14
REMARK    5  A    between atoms: C_16  and  C_19
REMARK    6  A    between atoms: C_19  and  O_23
REMARK    7  A    between atoms: O_23  and  C_26
REMARK    8  A    between atoms: C_24  and  C_27
REMARK    9  A    between atoms: C_24  and  C_28
REMARK   10  A    between atoms: C_26  and  C_29
REMARK                            x       y       z     vdW  Elec       q    Type
REMARK                         _______ _______ _______ _____ _____    ______ ____
ROOT
ATOM      1  C   UNL     1     -11.203  53.612  50.310  0.00  0.00    +0.000 A 
ATOM      2  S   UNL     1     -10.879  53.717  48.643  0.00  0.00    +0.000 S 
ATOM      3  C   UNL     1     -10.113  53.213  51.064  0.00  0.00    +0.000 A 
ATOM      4  C   UNL     1      -9.209  53.490  48.907  0.00  0.00    +0.000 A 
ATOM      5  C   UNL     1      -8.923  53.238  50.237  0.00  0.00    +0.000 A 
ATOM      6  C   UNL     1      -8.190  53.575  47.796  0.00  0.00    +0.000 C 
ATOM      7  C   UNL     1      -7.516  52.974  50.697  0.00  0.00    +0.000 C 
ATOM      8  C   UNL     1      -6.846  52.903  48.219  0.00  0.00    +0.000 C 
ATOM      9  C   UNL     1      -6.471  53.359  49.650  0.00  0.00    +0.000 C 
ATOM     10  C   UNL     1      -5.705  53.334  47.279  0.00  0.00    +0.000 C 
ATOM     11  C   UNL     1      -6.973  51.368  48.142  0.00  0.00    +0.000 C 
ENDROOT
BRANCH   1  15
ATOM     12  N   UNL     1     -14.043  55.425  51.531  0.00  0.00    +0.000 N 
ATOM     13  C   UNL     1     -12.715  55.212  51.182  0.00  0.00    +0.000 C 
ATOM     14  O   UNL     1     -11.875  56.103  51.258  0.00  0.00    +0.000 OA
ATOM     15  N   UNL     1     -12.491  53.949  50.673  0.00  0.00    +0.000 N 
ATOM     16  H   UNL     1     -14.690  54.688  51.439  0.00  0.00    +0.000 HD
ATOM     17  H   UNL     1     -13.231  53.307  50.570  0.00  0.00    +0.000 HD
BRANCH  12  18
ATOM     18  S   UNL     1     -14.569  56.903  52.101  0.00  0.00    +0.000 S 
ATOM     19  O   UNL     1     -13.777  57.249  53.262  0.00  0.00    +0.000 OA
ATOM     20  O   UNL     1     -16.012  56.796  52.218  0.00  0.00    +0.000 OA
BRANCH  18  21
ATOM     21  C   UNL     1     -14.282  58.139  50.836  0.00  0.00    +0.000 A 
ATOM     22  N   UNL     1     -14.067  59.421  51.131  0.00  0.00    +0.000 NA
ATOM     23  N   UNL     1     -14.256  57.967  49.469  0.00  0.00    +0.000 N 
ATOM     24  C   UNL     1     -13.866  60.065  49.942  0.00  0.00    +0.000 A 
ATOM     25  C   UNL     1     -13.986  59.189  48.895  0.00  0.00    +0.000 A 
ATOM     26  C   UNL     1     -14.464  56.784  48.673  0.00  0.00    +0.000 C 
ENDBRANCH  18  21
ENDBRANCH  12  18
ENDBRANCH   1  15
BRANCH   3  27
ATOM     27  C   UNL     1     -10.192  52.827  52.479  0.00  0.00    +0.000 C 
ATOM     28  O   UNL     1     -10.991  52.016  52.930  0.00  0.00    +0.000 OA
BRANCH  27  29
ATOM     29  O   UNL     1      -9.236  53.446  53.227  0.00  0.00    +0.000 OA
BRANCH  29  30
ATOM     30  C   UNL     1      -9.369  54.847  53.474  0.00  0.00    +0.000 C 
ATOM     31  C   UNL     1      -8.085  55.393  54.064  0.00  0.00    +0.000 C 
ENDBRANCH  29  30
ENDBRANCH  27  29
ENDBRANCH   3  27
TORSDOF 6
ENDMDL
MODEL 5
REMARK VINA RESULT:      -6.9      4.125      8.163
REMARK  Name = 
REMARK  10 active torsions:
REMARK  status: ('A' for Active; 'I' for Inactive)
REMARK    1  A    between atoms: S_1  and  N_4
REMARK    2  A    between atoms: S_1  and  C_5
REMARK    3  A    between atoms: N_8  and  C_13
REMARK    4  A    between atoms: N_10  and  C_14
REMARK    5  A    between atoms: C_16  and  C_19
REMARK    6  A    between atoms: C_19  and  O_23
REMARK    7  A    between atoms: O_23  and  C_26
REMARK    8  A    between atoms: C_24  and  C_27
REMARK    9  A    between atoms: C_24  and  C_28
REMARK   10  A    between atoms: C_26  and  C_29
REMARK                            x       y       z     vdW  Elec       q    Type
REMARK                         _______ _______ _______ _____ _____    ______ ____
ROOT
ATOM      1  C   UNL     1      -8.546  54.906  47.215  0.00  0.00    +0.000 A 
ATOM      2  S   UNL     1      -7.352  54.036  46.372  0.00  0.00    +0.000 S 
ATOM      3  C   UNL     1      -9.825  54.710  46.726  0.00  0.00    +0.000 A 
ATOM      4  C   UNL     1      -8.535  53.168  45.501  0.00  0.00    +0.000 A 
ATOM      5  C   UNL     1      -9.815  53.611  45.780  0.00  0.00    +0.000 A 
ATOM      6  C   UNL     1      -8.188  52.044  44.554  0.00  0.00    +0.000 C 
ATOM      7  C   UNL     1     -11.015  53.012  45.102  0.00  0.00    +0.000 C 
ATOM      8  C   UNL     1      -9.376  51.742  43.587  0.00  0.00    +0.000 C 
ATOM      9  C   UNL     1     -10.697  51.696  44.393  0.00  0.00    +0.000 C 
ATOM     10  C   UNL     1      -9.192  50.370  42.914  0.00  0.00    +0.000 C 
ATOM     11  C   UNL     1      -9.442  52.812  42.477  0.00  0.00    +0.000 C 
ENDROOT
BRANCH   1  15
ATOM     12  N   UNL     1      -7.578  55.968  50.498  0.00  0.00    +0.000 N 
ATOM     13  C   UNL     1      -8.050  55.098  49.522  0.00  0.00    +0.000 C 
ATOM     14  O   UNL     1      -8.328  53.931  49.776  0.00  0.00    +0.000 OA
ATOM     15  N   UNL     1      -8.075  55.667  48.265  0.00  0.00    +0.000 N 
ATOM     16  H   UNL     1      -7.350  56.893  50.249  0.00  0.00    +0.000 HD
ATOM     17  H   UNL     1      -7.764  56.591  48.122  0.00  0.00    +0.000 HD
BRANCH  12  18
ATOM     18  S   UNL     1      -7.388  55.480  52.083  0.00  0.00    +0.000 S 
ATOM     19  O   UNL     1      -8.508  54.633  52.434  0.00  0.00    +0.000 OA
ATOM     20  O   UNL     1      -7.130  56.688  52.845  0.00  0.00    +0.000 OA
BRANCH  18  21
ATOM     21  C   UNL     1      -5.888  54.507  52.206  0.00  0.00    +0.000 A 
ATOM     22  N   UNL     1      -5.079  54.312  51.165  0.00  0.00    +0.000 NA
ATOM     23  N   UNL     1      -5.388  53.852  53.311  0.00  0.00    +0.000 N 
ATOM     24  C   UNL     1      -4.036  53.555  51.620  0.00  0.00    +0.000 A 
ATOM     25  C   UNL     1      -4.206  53.250  52.944  0.00  0.00    +0.000 A 
ATOM     26  C   UNL     1      -5.915  53.741  54.648  0.00  0.00    +0.000 C 
ENDBRANCH  18  21
ENDBRANCH  12  18
ENDBRANCH   1  15
BRANCH   3  27
ATOM     27  C   UNL     1     -10.989  55.514  47.126  0.00  0.00    +0.000 C 
ATOM     28  O   UNL     1     -11.790  56.005  46.341  0.00  0.00    +0.000 OA
BRANCH  27  29
ATOM     29  O   UNL     1     -11.097  55.609  48.480  0.00  0.00    +0.000 OA
BRANCH  29  30
ATOM     30  C   UNL     1     -12.265  55.075  49.106  0.00  0.00    +0.000 C 
ATOM     31  C   UNL     1     -12.210  53.561  49.102  0.00  0.00    +0.000 C 
ENDBRANCH  29  30
ENDBRANCH  27  29
ENDBRANCH   3  27
TORSDOF 6
ENDMDL
MODEL 6
REMARK VINA RESULT:      -6.9      3.947      7.532
REMARK  Name = 
REMARK  10 active torsions:
REMARK  status: ('A' for Active; 'I' for Inactive)
REMARK    1  A    between atoms: S_1  and  N_4
REMARK    2  A    between atoms: S_1  and  C_5
REMARK    3  A    between atoms: N_8  and  C_13
REMARK    4  A    between atoms: N_10  and  C_14
REMARK    5  A    between atoms: C_16  and  C_19
REMARK    6  A    between atoms: C_19  and  O_23
REMARK    7  A    between atoms: O_23  and  C_26
REMARK    8  A    between atoms: C_24  and  C_27
REMARK    9  A    between atoms: C_24  and  C_28
REMARK   10  A    between atoms: C_26  and  C_29
REMARK                            x       y       z     vdW  Elec       q    Type
REMARK                         _______ _______ _______ _____ _____    ______ ____
ROOT
ATOM      1  C   UNL     1      -8.727  54.897  47.194  0.00  0.00    +0.000 A 
ATOM      2  S   UNL     1      -7.507  54.113  46.307  0.00  0.00    +0.000 S 
ATOM      3  C   UNL     1     -10.002  54.672  46.705  0.00  0.00    +0.000 A 
ATOM      4  C   UNL     1      -8.661  53.237  45.406  0.00  0.00    +0.000 A 
ATOM      5  C   UNL     1      -9.956  53.617  45.712  0.00  0.00    +0.000 A 
ATOM      6  C   UNL     1      -8.277  52.170  44.408  0.00  0.00    +0.000 C 
ATOM      7  C   UNL     1     -11.136  53.001  45.015  0.00  0.00    +0.000 C 
ATOM      8  C   UNL     1      -9.459  51.864  43.436  0.00  0.00    +0.000 C 
ATOM      9  C   UNL     1     -10.771  51.730  44.248  0.00  0.00    +0.000 C 
ATOM     10  C   UNL     1      -9.227  50.530  42.703  0.00  0.00    +0.000 C 
ATOM     11  C   UNL     1      -9.576  52.977  42.375  0.00  0.00    +0.000 C 
ENDROOT
BRANCH   1  15
ATOM     12  N   UNL     1      -7.617  55.812  50.477  0.00  0.00    +0.000 N 
ATOM     13  C   UNL     1      -8.043  54.965  49.460  0.00  0.00    +0.000 C 
ATOM     14  O   UNL     1      -8.111  53.750  49.615  0.00  0.00    +0.000 OA
ATOM     15  N   UNL     1      -8.279  55.630  48.274  0.00  0.00    +0.000 N 
ATOM     16  H   UNL     1      -7.560  56.780  50.306  0.00  0.00    +0.000 HD
ATOM     17  H   UNL     1      -8.130  56.602  48.201  0.00  0.00    +0.000 HD
BRANCH  12  18
ATOM     18  S   UNL     1      -7.199  55.224  51.982  0.00  0.00    +0.000 S 
ATOM     19  O   UNL     1      -7.194  56.330  52.915  0.00  0.00    +0.000 OA
ATOM     20  O   UNL     1      -5.992  54.442  51.785  0.00  0.00    +0.000 OA
BRANCH  18  21
ATOM     21  C   UNL     1      -8.448  54.051  52.506  0.00  0.00    +0.000 A 
ATOM     22  N   UNL     1      -8.140  52.825  52.928  0.00  0.00    +0.000 NA
ATOM     23  N   UNL     1      -9.815  54.222  52.538  0.00  0.00    +0.000 N 
ATOM     24  C   UNL     1      -9.319  52.222  53.265  0.00  0.00    +0.000 A 
ATOM     25  C   UNL     1     -10.374  53.063  53.026  0.00  0.00    +0.000 A 
ATOM     26  C   UNL     1     -10.624  55.351  52.153  0.00  0.00    +0.000 C 
ENDBRANCH  18  21
ENDBRANCH  12  18
ENDBRANCH   1  15
BRANCH   3  27
ATOM     27  C   UNL     1     -11.193  55.411  47.146  0.00  0.00    +0.000 C 
ATOM     28  O   UNL     1     -11.956  56.001  46.393  0.00  0.00    +0.000 OA
BRANCH  27  29
ATOM     29  O   UNL     1     -11.374  55.322  48.493  0.00  0.00    +0.000 OA
BRANCH  29  30
ATOM     30  C   UNL     1     -12.448  54.516  48.981  0.00  0.00    +0.000 C 
ATOM     31  C   UNL     1     -11.933  53.147  49.374  0.00  0.00    +0.000 C 
ENDBRANCH  29  30
ENDBRANCH  27  29
ENDBRANCH   3  27
TORSDOF 6
ENDMDL
MODEL 7
REMARK VINA RESULT:      -6.7      2.007      3.026
REMARK  Name = 
REMARK  10 active torsions:
REMARK  status: ('A' for Active; 'I' for Inactive)
REMARK    1  A    between atoms: S_1  and  N_4
REMARK    2  A    between atoms: S_1  and  C_5
REMARK    3  A    between atoms: N_8  and  C_13
REMARK    4  A    between atoms: N_10  and  C_14
REMARK    5  A    between atoms: C_16  and  C_19
REMARK    6  A    between atoms: C_19  and  O_23
REMARK    7  A    between atoms: O_23  and  C_26
REMARK    8  A    between atoms: C_24  and  C_27
REMARK    9  A    between atoms: C_24  and  C_28
REMARK   10  A    between atoms: C_26  and  C_29
REMARK                            x       y       z     vdW  Elec       q    Type
REMARK                         _______ _______ _______ _____ _____    ______ ____
ROOT
ATOM      1  C   UNL     1     -10.295  54.059  51.264  0.00  0.00    +0.000 A 
ATOM      2  S   UNL     1      -9.011  54.966  50.617  0.00  0.00    +0.000 S 
ATOM      3  C   UNL     1      -9.927  53.251  52.325  0.00  0.00    +0.000 A 
ATOM      4  C   UNL     1      -7.983  54.509  51.899  0.00  0.00    +0.000 A 
ATOM      5  C   UNL     1      -8.585  53.597  52.749  0.00  0.00    +0.000 A 
ATOM      6  C   UNL     1      -6.588  55.064  52.063  0.00  0.00    +0.000 C 
ATOM      7  C   UNL     1      -7.852  53.030  53.932  0.00  0.00    +0.000 C 
ATOM      8  C   UNL     1      -5.739  54.169  53.020  0.00  0.00    +0.000 C 
ATOM      9  C   UNL     1      -6.581  53.808  54.268  0.00  0.00    +0.000 C 
ATOM     10  C   UNL     1      -4.489  54.926  53.503  0.00  0.00    +0.000 C 
ATOM     11  C   UNL     1      -5.271  52.898  52.282  0.00  0.00    +0.000 C 
ENDROOT
BRANCH   1  15
ATOM     12  N   UNL     1     -13.587  55.275  50.533  0.00  0.00    +0.000 N 
ATOM     13  C   UNL     1     -12.385  55.171  51.225  0.00  0.00    +0.000 C 
ATOM     14  O   UNL     1     -12.130  55.885  52.190  0.00  0.00    +0.000 OA
ATOM     15  N   UNL     1     -11.516  54.265  50.653  0.00  0.00    +0.000 N 
ATOM     16  H   UNL     1     -13.746  54.695  49.754  0.00  0.00    +0.000 HD
ATOM     17  H   UNL     1     -11.760  53.780  49.831  0.00  0.00    +0.000 HD
BRANCH  12  18
ATOM     18  S   UNL     1     -14.767  56.362  50.994  0.00  0.00    +0.000 S 
ATOM     19  O   UNL     1     -14.751  56.463  52.438  0.00  0.00    +0.000 OA
ATOM     20  O   UNL     1     -15.979  55.948  50.313  0.00  0.00    +0.000 OA
BRANCH  18  21
ATOM     21  C   UNL     1     -14.361  57.970  50.314  0.00  0.00    +0.000 A 
ATOM     22  N   UNL     1     -14.345  59.074  51.060  0.00  0.00    +0.000 NA
ATOM     23  N   UNL     1     -14.042  58.286  49.011  0.00  0.00    +0.000 N 
ATOM     24  C   UNL     1     -13.977  60.097  50.232  0.00  0.00    +0.000 A 
ATOM     25  C   UNL     1     -13.790  59.638  48.955  0.00  0.00    +0.000 A 
ATOM     26  C   UNL     1     -13.960  57.449  47.841  0.00  0.00    +0.000 C 
ENDBRANCH  18  21
ENDBRANCH  12  18
ENDBRANCH   1  15
BRANCH   3  27
ATOM     27  C   UNL     1     -10.789  52.210  52.902  0.00  0.00    +0.000 C 
ATOM     28  O   UNL     1     -11.131  52.171  54.077  0.00  0.00    +0.000 OA
BRANCH  27  29
ATOM     29  O   UNL     1     -11.203  51.316  51.961  0.00  0.00    +0.000 OA
BRANCH  29  30
ATOM     30  C   UNL     1     -10.224  50.482  51.339  0.00  0.00    +0.000 C 
ATOM     31  C   UNL     1      -9.403  49.771  52.395  0.00  0.00    +0.000 C 
ENDBRANCH  29  30
ENDBRANCH  27  29
ENDBRANCH   3  27
TORSDOF 6
ENDMDL
MODEL 8
REMARK VINA RESULT:      -6.7      3.746      7.385
REMARK  Name = 
REMARK  10 active torsions:
REMARK  status: ('A' for Active; 'I' for Inactive)
REMARK    1  A    between atoms: S_1  and  N_4
REMARK    2  A    between atoms: S_1  and  C_5
REMARK    3  A    between atoms: N_8  and  C_13
REMARK    4  A    between atoms: N_10  and  C_14
REMARK    5  A    between atoms: C_16  and  C_19
REMARK    6  A    between atoms: C_19  and  O_23
REMARK    7  A    between atoms: O_23  and  C_26
REMARK    8  A    between atoms: C_24  and  C_27
REMARK    9  A    between atoms: C_24  and  C_28
REMARK   10  A    between atoms: C_26  and  C_29
REMARK                            x       y       z     vdW  Elec       q    Type
REMARK                         _______ _______ _______ _____ _____    ______ ____
ROOT
ATOM      1  C   UNL     1     -11.247  54.642  50.631  0.00  0.00    +0.000 A 
ATOM      2  S   UNL     1     -11.458  55.239  52.210  0.00  0.00    +0.000 S 
ATOM      3  C   UNL     1     -12.222  55.060  49.744  0.00  0.00    +0.000 A 
ATOM      4  C   UNL     1     -12.703  56.285  51.696  0.00  0.00    +0.000 A 
ATOM      5  C   UNL     1     -13.018  56.103  50.361  0.00  0.00    +0.000 A 
ATOM      6  C   UNL     1     -13.356  57.289  52.617  0.00  0.00    +0.000 C 
ATOM      7  C   UNL     1     -14.110  56.895  49.700  0.00  0.00    +0.000 C 
ATOM      8  C   UNL     1     -14.719  57.778  52.035  0.00  0.00    +0.000 C 
ATOM      9  C   UNL     1     -14.549  58.102  50.530  0.00  0.00    +0.000 C 
ATOM     10  C   UNL     1     -15.180  59.066  52.740  0.00  0.00    +0.000 C 
ATOM     11  C   UNL     1     -15.804  56.702  52.249  0.00  0.00    +0.000 C 
ENDROOT
BRANCH   1  15
ATOM     12  N   UNL     1      -8.151  53.316  49.406  0.00  0.00    +0.000 N 
ATOM     13  C   UNL     1      -9.211  54.209  49.503  0.00  0.00    +0.000 C 
ATOM     14  O   UNL     1      -9.244  55.247  48.848  0.00  0.00    +0.000 OA
ATOM     15  N   UNL     1     -10.136  53.841  50.458  0.00  0.00    +0.000 N 
ATOM     16  H   UNL     1      -8.154  52.503  49.961  0.00  0.00    +0.000 HD
ATOM     17  H   UNL     1     -10.006  53.030  51.002  0.00  0.00    +0.000 HD
BRANCH  12  18
ATOM     18  S   UNL     1      -6.871  53.590  48.370  0.00  0.00    +0.000 S 
ATOM     19  O   UNL     1      -5.933  52.497  48.509  0.00  0.00    +0.000 OA
ATOM     20  O   UNL     1      -6.435  54.951  48.626  0.00  0.00    +0.000 OA
BRANCH  18  21
ATOM     21  C   UNL     1      -7.487  53.593  46.688  0.00  0.00    +0.000 A 
ATOM     22  N   UNL     1      -7.459  54.685  45.922  0.00  0.00    +0.000 NA
ATOM     23  N   UNL     1      -8.052  52.550  45.987  0.00  0.00    +0.000 N 
ATOM     24  C   UNL     1      -7.979  54.323  44.711  0.00  0.00    +0.000 A 
ATOM     25  C   UNL     1      -8.361  53.007  44.726  0.00  0.00    +0.000 A 
ATOM     26  C   UNL     1      -8.326  51.194  46.391  0.00  0.00    +0.000 C 
ENDBRANCH  18  21
ENDBRANCH  12  18
ENDBRANCH   1  15
BRANCH   3  27
ATOM     27  C   UNL     1     -12.396  54.506  48.394  0.00  0.00    +0.000 C 
ATOM     28  O   UNL     1     -12.418  55.177  47.370  0.00  0.00    +0.000 OA
BRANCH  27  29
ATOM     29  O   UNL     1     -12.481  53.146  48.412  0.00  0.00    +0.000 OA
BRANCH  29  30
ATOM     30  C   UNL     1     -11.674  52.404  47.495  0.00  0.00    +0.000 C 
ATOM     31  C   UNL     1     -12.556  51.654  46.518  0.00  0.00    +0.000 C 
ENDBRANCH  29  30
ENDBRANCH  27  29
ENDBRANCH   3  27
TORSDOF 6
ENDMDL
MODEL 9
REMARK VINA RESULT:      -6.6      3.898      7.596
REMARK  Name = 
REMARK  10 active torsions:
REMARK  status: ('A' for Active; 'I' for Inactive)
REMARK    1  A    between atoms: S_1  and  N_4
REMARK    2  A    between atoms: S_1  and  C_5
REMARK    3  A    between atoms: N_8  and  C_13
REMARK    4  A    between atoms: N_10  and  C_14
REMARK    5  A    between atoms: C_16  and  C_19
REMARK    6  A    between atoms: C_19  and  O_23
REMARK    7  A    between atoms: O_23  and  C_26
REMARK    8  A    between atoms: C_24  and  C_27
REMARK    9  A    between atoms: C_24  and  C_28
REMARK   10  A    between atoms: C_26  and  C_29
REMARK                            x       y       z     vdW  Elec       q    Type
REMARK                         _______ _______ _______ _____ _____    ______ ____
ROOT
ATOM      1  C   UNL     1     -12.030  56.091  47.815  0.00  0.00    +0.000 A 
ATOM      2  S   UNL     1     -13.663  56.564  47.828  0.00  0.00    +0.000 S 
ATOM      3  C   UNL     1     -11.418  56.170  49.054  0.00  0.00    +0.000 A 
ATOM      4  C   UNL     1     -13.676  56.635  49.532  0.00  0.00    +0.000 A 
ATOM      5  C   UNL     1     -12.424  56.400  50.072  0.00  0.00    +0.000 A 
ATOM      6  C   UNL     1     -14.930  56.913  50.327  0.00  0.00    +0.000 C 
ATOM      7  C   UNL     1     -12.191  56.445  51.556  0.00  0.00    +0.000 C 
ATOM      8  C   UNL     1     -14.583  57.356  51.783  0.00  0.00    +0.000 C 
ATOM      9  C   UNL     1     -13.492  56.419  52.358  0.00  0.00    +0.000 C 
ATOM     10  C   UNL     1     -15.819  57.246  52.693  0.00  0.00    +0.000 C 
ATOM     11  C   UNL     1     -14.111  58.825  51.793  0.00  0.00    +0.000 C 
ENDROOT
BRANCH   1  15
ATOM     12  N   UNL     1     -10.957  54.051  45.071  0.00  0.00    +0.000 N 
ATOM     13  C   UNL     1     -11.471  54.333  46.331  0.00  0.00    +0.000 C 
ATOM     14  O   UNL     1     -11.875  53.447  47.078  0.00  0.00    +0.000 OA
ATOM     15  N   UNL     1     -11.552  55.687  46.585  0.00  0.00    +0.000 N 
ATOM     16  H   UNL     1     -10.659  54.792  44.495  0.00  0.00    +0.000 HD
ATOM     17  H   UNL     1     -11.279  56.346  45.905  0.00  0.00    +0.000 HD
BRANCH  12  18
ATOM     18  S   UNL     1     -10.833  52.484  44.510  0.00  0.00    +0.000 S 
ATOM     19  O   UNL     1     -10.217  52.517  43.201  0.00  0.00    +0.000 OA
ATOM     20  O   UNL     1     -12.150  51.896  44.673  0.00  0.00    +0.000 OA
BRANCH  18  21
ATOM     21  C   UNL     1      -9.761  51.564  45.613  0.00  0.00    +0.000 A 
ATOM     22  N   UNL     1     -10.096  50.369  46.099  0.00  0.00    +0.000 NA
ATOM     23  N   UNL     1      -8.525  51.932  46.100  0.00  0.00    +0.000 N 
ATOM     24  C   UNL     1      -9.049  49.957  46.874  0.00  0.00    +0.000 A 
ATOM     25  C   UNL     1      -8.065  50.910  46.898  0.00  0.00    +0.000 A 
ATOM     26  C   UNL     1      -7.760  53.135  45.890  0.00  0.00    +0.000 C 
ENDBRANCH  18  21
ENDBRANCH  12  18
ENDBRANCH   1  15
BRANCH   3  27
ATOM     27  C   UNL     1      -9.969  56.041  49.264  0.00  0.00    +0.000 C 
ATOM     28  O   UNL     1      -9.237  56.961  49.606  0.00  0.00    +0.000 OA
BRANCH  27  29
ATOM     29  O   UNL     1      -9.543  54.760  49.078  0.00  0.00    +0.000 OA
BRANCH  29  30
ATOM     30  C   UNL     1      -9.921  53.774  50.040  0.00  0.00    +0.000 C 
ATOM     31  C   UNL     1      -9.037  53.878  51.265  0.00  0.00    +0.000 C 
ENDBRANCH  29  30
ENDBRANCH  27  29
ENDBRANCH   3  27
TORSDOF 6
ENDMDL
