MODEL 1
REMARK VINA RESULT:      -7.7      0.000      0.000
REMARK  Name = 
REMARK  9 active torsions:
REMARK  status: ('A' for Active; 'I' for Inactive)
REMARK    1  A    between atoms: S_1  and  N_4
REMARK    2  A    between atoms: S_1  and  C_5
REMARK    3  A    between atoms: N_10  and  C_13
REMARK    4  A    between atoms: C_16  and  C_19
REMARK    5  A    between atoms: C_19  and  O_23
REMARK    6  A    between atoms: O_23  and  C_26
REMARK    7  A    between atoms: C_24  and  C_27
REMARK    8  A    between atoms: C_24  and  C_28
REMARK    9  A    between atoms: C_26  and  C_29
REMARK                            x       y       z     vdW  Elec       q    Type
REMARK                         _______ _______ _______ _____ _____    ______ ____
ROOT
ATOM      1  C   UNL     1     -10.964  54.431  51.452  0.00  0.00    +0.000 A 
ATOM      2  S   UNL     1     -10.573  53.831  52.995  0.00  0.00    +0.000 S 
ATOM      3  C   UNL     1      -9.870  54.931  50.763  0.00  0.00    +0.000 A 
ATOM      4  C   UNL     1      -8.902  53.966  52.677  0.00  0.00    +0.000 A 
ATOM      5  C   UNL     1      -8.653  54.561  51.451  0.00  0.00    +0.000 A 
ATOM      6  C   UNL     1      -7.844  53.492  53.646  0.00  0.00    +0.000 C 
ATOM      7  C   UNL     1      -7.256  54.837  50.975  0.00  0.00    +0.000 C 
ATOM      8  C   UNL     1      -6.459  54.137  53.324  0.00  0.00    +0.000 C 
ATOM      9  C   UNL     1      -6.205  54.079  51.794  0.00  0.00    +0.000 C 
ATOM     10  C   UNL     1      -5.321  53.365  54.021  0.00  0.00    +0.000 C 
ATOM     11  C   UNL     1      -6.419  55.592  53.836  0.00  0.00    +0.000 C 
ENDROOT
BRANCH   1  15
ATOM     12  N   UNL     1     -14.470  55.209  51.104  0.00  0.00    +0.000 N 
ATOM     13  C   UNL     1     -13.134  55.367  51.451  0.00  0.00    +0.000 C 
ATOM     14  O   UNL     1     -12.743  56.402  51.989  0.00  0.00    +0.000 OA
ATOM     15  N   UNL     1     -12.298  54.330  51.095  0.00  0.00    +0.000 N 
ATOM     16  H   UNL     1     -14.771  54.354  50.722  0.00  0.00    +0.000 HD
ATOM     17  H   UNL     1     -12.636  53.546  50.604  0.00  0.00    +0.000 HD
BRANCH  12  18
ATOM     18  S   UNL     1     -15.583  56.445  51.321  0.00  0.00    +0.000 S 
ATOM     19  O   UNL     1     -15.681  56.711  52.745  0.00  0.00    +0.000 OA
ATOM     20  O   UNL     1     -16.765  56.020  50.591  0.00  0.00    +0.000 OA
BRANCH  18  21
ATOM     21  C   UNL     1     -14.873  57.869  50.453  0.00  0.00    +0.000 A 
ATOM     22  N   UNL     1     -14.959  59.051  51.105  0.00  0.00    +0.000 NA
ATOM     23  N   UNL     1     -14.325  57.635  49.243  0.00  0.00    +0.000 NA
ATOM     24  C   UNL     1     -14.409  60.089  50.448  0.00  0.00    +0.000 A 
ATOM     25  C   UNL     1     -13.835  58.726  48.629  0.00  0.00    +0.000 A 
ATOM     26  C   UNL     1     -13.838  59.984  49.194  0.00  0.00    +0.000 A 
ENDBRANCH  18  21
ENDBRANCH  12  18
ENDBRANCH   1  15
BRANCH   3  27
ATOM     27  C   UNL     1      -9.935  55.775  49.554  0.00  0.00    +0.000 C 
ATOM     28  O   UNL     1      -9.621  56.958  49.529  0.00  0.00    +0.000 OA
BRANCH  27  29
ATOM     29  O   UNL     1     -10.544  55.125  48.515  0.00  0.00    +0.000 OA
BRANCH  29  30
ATOM     30  C   UNL     1     -11.593  55.798  47.818  0.00  0.00    +0.000 C 
ATOM     31  C   UNL     1     -11.723  55.270  46.405  0.00  0.00    +0.000 C 
ENDBRANCH  29  30
ENDBRANCH  27  29
ENDBRANCH   3  27
TORSDOF 6
ENDMDL
MODEL 2
REMARK VINA RESULT:      -7.5      3.089      7.630
REMARK  Name = 
REMARK  9 active torsions:
REMARK  status: ('A' for Active; 'I' for Inactive)
REMARK    1  A    between atoms: S_1  and  N_4
REMARK    2  A    between atoms: S_1  and  C_5
REMARK    3  A    between atoms: N_10  and  C_13
REMARK    4  A    between atoms: C_16  and  C_19
REMARK    5  A    between atoms: C_19  and  O_23
REMARK    6  A    between atoms: O_23  and  C_26
REMARK    7  A    between atoms: C_24  and  C_27
REMARK    8  A    between atoms: C_24  and  C_28
REMARK    9  A    between atoms: C_26  and  C_29
REMARK                            x       y       z     vdW  Elec       q    Type
REMARK                         _______ _______ _______ _____ _____    ______ ____
ROOT
ATOM      1  C   UNL     1     -11.037  54.808  50.126  0.00  0.00    +0.000 A 
ATOM      2  S   UNL     1     -11.713  54.798  51.687  0.00  0.00    +0.000 S 
ATOM      3  C   UNL     1     -11.655  55.701  49.264  0.00  0.00    +0.000 A 
ATOM      4  C   UNL     1     -12.661  56.174  51.338  0.00  0.00    +0.000 A 
ATOM      5  C   UNL     1     -12.539  56.566  50.015  0.00  0.00    +0.000 A 
ATOM      6  C   UNL     1     -13.528  56.854  52.371  0.00  0.00    +0.000 C 
ATOM      7  C   UNL     1     -13.319  57.721  49.457  0.00  0.00    +0.000 C 
ATOM      8  C   UNL     1     -14.601  57.763  51.693  0.00  0.00    +0.000 C 
ATOM      9  C   UNL     1     -13.936  58.589  50.560  0.00  0.00    +0.000 C 
ATOM     10  C   UNL     1     -15.200  58.754  52.710  0.00  0.00    +0.000 C 
ATOM     11  C   UNL     1     -15.757  56.901  51.144  0.00  0.00    +0.000 C 
ENDROOT
BRANCH   1  15
ATOM     12  N   UNL     1      -7.665  53.528  50.004  0.00  0.00    +0.000 N 
ATOM     13  C   UNL     1      -8.711  54.413  50.244  0.00  0.00    +0.000 C 
ATOM     14  O   UNL     1      -8.497  55.512  50.753  0.00  0.00    +0.000 OA
ATOM     15  N   UNL     1      -9.971  53.946  49.935  0.00  0.00    +0.000 N 
ATOM     16  H   UNL     1      -7.851  52.676  49.548  0.00  0.00    +0.000 HD
ATOM     17  H   UNL     1     -10.108  53.033  49.591  0.00  0.00    +0.000 HD
BRANCH  12  18
ATOM     18  S   UNL     1      -6.095  53.880  50.474  0.00  0.00    +0.000 S 
ATOM     19  O   UNL     1      -5.773  55.210  49.988  0.00  0.00    +0.000 OA
ATOM     20  O   UNL     1      -5.305  52.746  50.027  0.00  0.00    +0.000 OA
BRANCH  18  21
ATOM     21  C   UNL     1      -6.134  53.854  52.285  0.00  0.00    +0.000 A 
ATOM     22  N   UNL     1      -5.497  54.879  52.897  0.00  0.00    +0.000 NA
ATOM     23  N   UNL     1      -6.786  52.826  52.867  0.00  0.00    +0.000 NA
ATOM     24  C   UNL     1      -5.555  54.846  54.241  0.00  0.00    +0.000 A 
ATOM     25  C   UNL     1      -6.765  52.839  54.212  0.00  0.00    +0.000 A 
ATOM     26  C   UNL     1      -6.172  53.838  54.955  0.00  0.00    +0.000 A 
ENDBRANCH  18  21
ENDBRANCH  12  18
ENDBRANCH   1  15
BRANCH   3  27
ATOM     27  C   UNL     1     -11.497  55.720  47.798  0.00  0.00    +0.000 C 
ATOM     28  O   UNL     1     -12.427  55.615  47.009  0.00  0.00    +0.000 OA
BRANCH  27  29
ATOM     29  O   UNL     1     -10.179  55.701  47.431  0.00  0.00    +0.000 OA
BRANCH  29  30
ATOM     30  C   UNL     1      -9.768  54.762  46.435  0.00  0.00    +0.000 C 
ATOM     31  C   UNL     1      -8.292  54.913  46.133  0.00  0.00    +0.000 C 
ENDBRANCH  29  30
ENDBRANCH  27  29
ENDBRANCH   3  27
TORSDOF 6
ENDMDL
MODEL 3
REMARK VINA RESULT:      -6.9      3.964      7.503
REMARK  Name = 
REMARK  9 active torsions:
REMARK  status: ('A' for Active; 'I' for Inactive)
REMARK    1  A    between atoms: S_1  and  N_4
REMARK    2  A    between atoms: S_1  and  C_5
REMARK    3  A    between atoms: N_10  and  C_13
REMARK    4  A    between atoms: C_16  and  C_19
REMARK    5  A    between atoms: C_19  and  O_23
REMARK    6  A    between atoms: O_23  and  C_26
REMARK    7  A    between atoms: C_24  and  C_27
REMARK    8  A    between atoms: C_24  and  C_28
REMARK    9  A    between atoms: C_26  and  C_29
REMARK                            x       y       z     vdW  Elec       q    Type
REMARK                         _______ _______ _______ _____ _____    ______ ____
ROOT
ATOM      1  C   UNL     1      -8.681  54.969  47.187  0.00  0.00    +0.000 A 
ATOM      2  S   UNL     1      -7.470  54.212  46.263  0.00  0.00    +0.000 S 
ATOM      3  C   UNL     1      -9.966  54.662  46.767  0.00  0.00    +0.000 A 
ATOM      4  C   UNL     1      -8.621  53.242  45.459  0.00  0.00    +0.000 A 
ATOM      5  C   UNL     1      -9.918  53.571  45.819  0.00  0.00    +0.000 A 
ATOM      6  C   UNL     1      -8.238  52.167  44.470  0.00  0.00    +0.000 C 
ATOM      7  C   UNL     1     -11.106  52.891  45.203  0.00  0.00    +0.000 C 
ATOM      8  C   UNL     1      -9.453  51.770  43.573  0.00  0.00    +0.000 C 
ATOM      9  C   UNL     1     -10.717  51.608  44.459  0.00  0.00    +0.000 C 
ATOM     10  C   UNL     1      -9.195  50.425  42.867  0.00  0.00    +0.000 C 
ATOM     11  C   UNL     1      -9.677  52.836  42.480  0.00  0.00    +0.000 C 
ENDROOT
BRANCH   1  15
ATOM     12  N   UNL     1      -7.626  56.015  50.476  0.00  0.00    +0.000 N 
ATOM     13  C   UNL     1      -8.050  55.172  49.455  0.00  0.00    +0.000 C 
ATOM     14  O   UNL     1      -8.194  53.967  49.656  0.00  0.00    +0.000 OA
ATOM     15  N   UNL     1      -8.226  55.767  48.223  0.00  0.00    +0.000 N 
ATOM     16  H   UNL     1      -7.568  56.983  50.307  0.00  0.00    +0.000 HD
ATOM     17  H   UNL     1      -8.036  56.723  48.086  0.00  0.00    +0.000 HD
BRANCH  12  18
ATOM     18  S   UNL     1      -7.212  55.420  51.988  0.00  0.00    +0.000 S 
ATOM     19  O   UNL     1      -7.032  56.552  52.878  0.00  0.00    +0.000 OA
ATOM     20  O   UNL     1      -6.099  54.518  51.745  0.00  0.00    +0.000 OA
BRANCH  18  21
ATOM     21  C   UNL     1      -8.636  54.423  52.502  0.00  0.00    +0.000 A 
ATOM     22  N   UNL     1      -8.342  53.199  52.996  0.00  0.00    +0.000 NA
ATOM     23  N   UNL     1      -9.856  54.977  52.349  0.00  0.00    +0.000 NA
ATOM     24  C   UNL     1      -9.415  52.485  53.387  0.00  0.00    +0.000 A 
ATOM     25  C   UNL     1     -10.881  54.190  52.721  0.00  0.00    +0.000 A 
ATOM     26  C   UNL     1     -10.716  52.932  53.263  0.00  0.00    +0.000 A 
ENDBRANCH  18  21
ENDBRANCH  12  18
ENDBRANCH   1  15
BRANCH   3  27
ATOM     27  C   UNL     1     -11.189  55.383  47.167  0.00  0.00    +0.000 C 
ATOM     28  O   UNL     1     -11.895  56.014  46.390  0.00  0.00    +0.000 OA
BRANCH  27  29
ATOM     29  O   UNL     1     -11.345  55.402  48.526  0.00  0.00    +0.000 OA
BRANCH  29  30
ATOM     30  C   UNL     1     -12.422  54.654  49.093  0.00  0.00    +0.000 C 
ATOM     31  C   UNL     1     -12.042  53.196  49.243  0.00  0.00    +0.000 C 
ENDBRANCH  29  30
ENDBRANCH  27  29
ENDBRANCH   3  27
TORSDOF 6
ENDMDL
MODEL 4
REMARK VINA RESULT:      -6.9      3.480      8.025
REMARK  Name = 
REMARK  9 active torsions:
REMARK  status: ('A' for Active; 'I' for Inactive)
REMARK    1  A    between atoms: S_1  and  N_4
REMARK    2  A    between atoms: S_1  and  C_5
REMARK    3  A    between atoms: N_10  and  C_13
REMARK    4  A    between atoms: C_16  and  C_19
REMARK    5  A    between atoms: C_19  and  O_23
REMARK    6  A    between atoms: O_23  and  C_26
REMARK    7  A    between atoms: C_24  and  C_27
REMARK    8  A    between atoms: C_24  and  C_28
REMARK    9  A    between atoms: C_26  and  C_29
REMARK                            x       y       z     vdW  Elec       q    Type
REMARK                         _______ _______ _______ _____ _____    ______ ____
ROOT
ATOM      1  C   UNL     1     -11.316  55.066  50.276  0.00  0.00    +0.000 A 
ATOM      2  S   UNL     1     -11.763  55.194  51.912  0.00  0.00    +0.000 S 
ATOM      3  C   UNL     1     -12.114  55.816  49.426  0.00  0.00    +0.000 A 
ATOM      4  C   UNL     1     -12.850  56.463  51.565  0.00  0.00    +0.000 A 
ATOM      5  C   UNL     1     -12.945  56.708  50.205  0.00  0.00    +0.000 A 
ATOM      6  C   UNL     1     -13.611  57.205  52.639  0.00  0.00    +0.000 C 
ATOM      7  C   UNL     1     -13.880  57.744  49.652  0.00  0.00    +0.000 C 
ATOM      8  C   UNL     1     -14.834  57.966  52.036  0.00  0.00    +0.000 C 
ATOM      9  C   UNL     1     -14.399  58.695  50.737  0.00  0.00    +0.000 C 
ATOM     10  C   UNL     1     -15.356  59.030  53.022  0.00  0.00    +0.000 C 
ATOM     11  C   UNL     1     -15.988  56.981  51.757  0.00  0.00    +0.000 C 
ENDROOT
BRANCH   1  15
ATOM     12  N   UNL     1      -7.906  53.968  49.838  0.00  0.00    +0.000 N 
ATOM     13  C   UNL     1      -8.971  54.810  50.138  0.00  0.00    +0.000 C 
ATOM     14  O   UNL     1      -8.771  55.957  50.536  0.00  0.00    +0.000 OA
ATOM     15  N   UNL     1     -10.226  54.251  50.019  0.00  0.00    +0.000 N 
ATOM     16  H   UNL     1      -8.089  53.073  49.471  0.00  0.00    +0.000 HD
ATOM     17  H   UNL     1     -10.343  53.308  49.762  0.00  0.00    +0.000 HD
BRANCH  12  18
ATOM     18  S   UNL     1      -6.317  54.444  50.086  0.00  0.00    +0.000 S 
ATOM     19  O   UNL     1      -6.065  54.423  51.515  0.00  0.00    +0.000 OA
ATOM     20  O   UNL     1      -6.180  55.691  49.354  0.00  0.00    +0.000 OA
BRANCH  18  21
ATOM     21  C   UNL     1      -5.319  53.189  49.242  0.00  0.00    +0.000 A 
ATOM     22  N   UNL     1      -4.829  53.550  48.033  0.00  0.00    +0.000 NA
ATOM     23  N   UNL     1      -5.150  52.012  49.880  0.00  0.00    +0.000 NA
ATOM     24  C   UNL     1      -4.076  52.608  47.435  0.00  0.00    +0.000 A 
ATOM     25  C   UNL     1      -4.423  51.106  49.202  0.00  0.00    +0.000 A 
ATOM     26  C   UNL     1      -3.847  51.356  47.974  0.00  0.00    +0.000 A 
ENDBRANCH  18  21
ENDBRANCH  12  18
ENDBRANCH   1  15
BRANCH   3  27
ATOM     27  C   UNL     1     -12.166  55.677  47.959  0.00  0.00    +0.000 C 
ATOM     28  O   UNL     1     -12.790  56.430  47.222  0.00  0.00    +0.000 OA
BRANCH  27  29
ATOM     29  O   UNL     1     -11.574  54.517  47.539  0.00  0.00    +0.000 OA
BRANCH  29  30
ATOM     30  C   UNL     1     -10.771  54.556  46.358  0.00  0.00    +0.000 C 
ATOM     31  C   UNL     1      -9.484  55.312  46.610  0.00  0.00    +0.000 C 
ENDBRANCH  29  30
ENDBRANCH  27  29
ENDBRANCH   3  27
TORSDOF 6
ENDMDL
MODEL 5
REMARK VINA RESULT:      -6.8      3.654      5.976
REMARK  Name = 
REMARK  9 active torsions:
REMARK  status: ('A' for Active; 'I' for Inactive)
REMARK    1  A    between atoms: S_1  and  N_4
REMARK    2  A    between atoms: S_1  and  C_5
REMARK    3  A    between atoms: N_10  and  C_13
REMARK    4  A    between atoms: C_16  and  C_19
REMARK    5  A    between atoms: C_19  and  O_23
REMARK    6  A    between atoms: O_23  and  C_26
REMARK    7  A    between atoms: C_24  and  C_27
REMARK    8  A    between atoms: C_24  and  C_28
REMARK    9  A    between atoms: C_26  and  C_29
REMARK                            x       y       z     vdW  Elec       q    Type
REMARK                         _______ _______ _______ _____ _____    ______ ____
ROOT
ATOM      1  C   UNL     1     -11.213  53.052  47.478  0.00  0.00    +0.000 A 
ATOM      2  S   UNL     1     -12.069  52.007  46.445  0.00  0.00    +0.000 S 
ATOM      3  C   UNL     1      -9.860  53.128  47.186  0.00  0.00    +0.000 A 
ATOM      4  C   UNL     1     -10.720  51.843  45.413  0.00  0.00    +0.000 A 
ATOM      5  C   UNL     1      -9.602  52.493  45.912  0.00  0.00    +0.000 A 
ATOM      6  C   UNL     1     -10.768  51.065  44.119  0.00  0.00    +0.000 C 
ATOM      7  C   UNL     1      -8.279  52.445  45.206  0.00  0.00    +0.000 C 
ATOM      8  C   UNL     1      -9.332  50.699  43.629  0.00  0.00    +0.000 C 
ATOM      9  C   UNL     1      -8.409  51.940  43.765  0.00  0.00    +0.000 C 
ATOM     10  C   UNL     1      -9.349  50.284  42.145  0.00  0.00    +0.000 C 
ATOM     11  C   UNL     1      -8.781  49.509  44.441  0.00  0.00    +0.000 C 
ENDROOT
BRANCH   1  15
ATOM     12  N   UNL     1     -12.995  55.625  49.275  0.00  0.00    +0.000 N 
ATOM     13  C   UNL     1     -12.259  55.021  48.262  0.00  0.00    +0.000 C 
ATOM     14  O   UNL     1     -11.949  55.649  47.251  0.00  0.00    +0.000 OA
ATOM     15  N   UNL     1     -11.973  53.685  48.448  0.00  0.00    +0.000 N 
ATOM     16  H   UNL     1     -13.187  55.120  50.097  0.00  0.00    +0.000 HD
ATOM     17  H   UNL     1     -12.297  53.198  49.240  0.00  0.00    +0.000 HD
BRANCH  12  18
ATOM     18  S   UNL     1     -13.561  57.197  49.127  0.00  0.00    +0.000 S 
ATOM     19  O   UNL     1     -14.570  57.210  48.084  0.00  0.00    +0.000 OA
ATOM     20  O   UNL     1     -12.369  58.013  48.979  0.00  0.00    +0.000 OA
BRANCH  18  21
ATOM     21  C   UNL     1     -14.302  57.577  50.737  0.00  0.00    +0.000 A 
ATOM     22  N   UNL     1     -14.205  58.868  51.132  0.00  0.00    +0.000 NA
ATOM     23  N   UNL     1     -14.880  56.555  51.400  0.00  0.00    +0.000 NA
ATOM     24  C   UNL     1     -14.778  59.129  52.322  0.00  0.00    +0.000 A 
ATOM     25  C   UNL     1     -15.393  56.883  52.600  0.00  0.00    +0.000 A 
ATOM     26  C   UNL     1     -15.381  58.165  53.108  0.00  0.00    +0.000 A 
ENDBRANCH  18  21
ENDBRANCH  12  18
ENDBRANCH   1  15
BRANCH   3  27
ATOM     27  C   UNL     1      -8.826  53.700  48.070  0.00  0.00    +0.000 C 
ATOM     28  O   UNL     1      -8.037  53.029  48.723  0.00  0.00    +0.000 OA
BRANCH  27  29
ATOM     29  O   UNL     1      -8.966  55.055  48.200  0.00  0.00    +0.000 OA
BRANCH  29  30
ATOM     30  C   UNL     1      -8.331  55.697  49.307  0.00  0.00    +0.000 C 
ATOM     31  C   UNL     1      -9.227  55.674  50.527  0.00  0.00    +0.000 C 
ENDBRANCH  29  30
ENDBRANCH  27  29
ENDBRANCH   3  27
TORSDOF 6
ENDMDL
MODEL 6
REMARK VINA RESULT:      -6.7      2.365      3.757
REMARK  Name = 
REMARK  9 active torsions:
REMARK  status: ('A' for Active; 'I' for Inactive)
REMARK    1  A    between atoms: S_1  and  N_4
REMARK    2  A    between atoms: S_1  and  C_5
REMARK    3  A    between atoms: N_10  and  C_13
REMARK    4  A    between atoms: C_16  and  C_19
REMARK    5  A    between atoms: C_19  and  O_23
REMARK    6  A    between atoms: O_23  and  C_26
REMARK    7  A    between atoms: C_24  and  C_27
REMARK    8  A    between atoms: C_24  and  C_28
REMARK    9  A    between atoms: C_26  and  C_29
REMARK                            x       y       z     vdW  Elec       q    Type
REMARK                         _______ _______ _______ _____ _____    ______ ____
ROOT
ATOM      1  C   UNL     1     -11.187  53.586  50.278  0.00  0.00    +0.000 A 
ATOM      2  S   UNL     1     -10.803  53.700  48.624  0.00  0.00    +0.000 S 
ATOM      3  C   UNL     1     -10.115  53.196  51.065  0.00  0.00    +0.000 A 
ATOM      4  C   UNL     1      -9.139  53.504  48.947  0.00  0.00    +0.000 A 
ATOM      5  C   UNL     1      -8.897  53.248  50.287  0.00  0.00    +0.000 A 
ATOM      6  C   UNL     1      -8.081  53.594  47.873  0.00  0.00    +0.000 C 
ATOM      7  C   UNL     1      -7.512  52.986  50.804  0.00  0.00    +0.000 C 
ATOM      8  C   UNL     1      -6.745  52.937  48.344  0.00  0.00    +0.000 C 
ATOM      9  C   UNL     1      -6.431  53.390  49.795  0.00  0.00    +0.000 C 
ATOM     10  C   UNL     1      -5.572  53.379  47.447  0.00  0.00    +0.000 C 
ATOM     11  C   UNL     1      -6.848  51.400  48.255  0.00  0.00    +0.000 C 
ENDROOT
BRANCH   1  15
ATOM     12  N   UNL     1     -14.039  55.392  51.554  0.00  0.00    +0.000 N 
ATOM     13  C   UNL     1     -12.719  55.126  51.207  0.00  0.00    +0.000 C 
ATOM     14  O   UNL     1     -11.842  55.971  51.383  0.00  0.00    +0.000 OA
ATOM     15  N   UNL     1     -12.493  53.905  50.608  0.00  0.00    +0.000 N 
ATOM     16  H   UNL     1     -14.714  54.683  51.453  0.00  0.00    +0.000 HD
ATOM     17  H   UNL     1     -13.233  53.282  50.422  0.00  0.00    +0.000 HD
BRANCH  12  18
ATOM     18  S   UNL     1     -14.505  56.892  52.142  0.00  0.00    +0.000 S 
ATOM     19  O   UNL     1     -13.583  57.261  53.200  0.00  0.00    +0.000 OA
ATOM     20  O   UNL     1     -15.920  56.754  52.441  0.00  0.00    +0.000 OA
BRANCH  18  21
ATOM     21  C   UNL     1     -14.339  58.016  50.730  0.00  0.00    +0.000 A 
ATOM     22  N   UNL     1     -14.340  59.335  51.033  0.00  0.00    +0.000 NA
ATOM     23  N   UNL     1     -14.232  57.452  49.509  0.00  0.00    +0.000 NA
ATOM     24  C   UNL     1     -14.199  60.149  49.969  0.00  0.00    +0.000 A 
ATOM     25  C   UNL     1     -14.137  58.328  48.493  0.00  0.00    +0.000 A 
ATOM     26  C   UNL     1     -14.102  59.696  48.668  0.00  0.00    +0.000 A 
ENDBRANCH  18  21
ENDBRANCH  12  18
ENDBRANCH   1  15
BRANCH   3  27
ATOM     27  C   UNL     1     -10.208  52.727  52.461  0.00  0.00    +0.000 C 
ATOM     28  O   UNL     1     -11.113  52.020  52.885  0.00  0.00    +0.000 OA
BRANCH  27  29
ATOM     29  O   UNL     1      -9.258  53.310  53.255  0.00  0.00    +0.000 OA
BRANCH  29  30
ATOM     30  C   UNL     1      -9.408  54.693  53.583  0.00  0.00    +0.000 C 
ATOM     31  C   UNL     1      -8.062  55.325  53.867  0.00  0.00    +0.000 C 
ENDBRANCH  29  30
ENDBRANCH  27  29
ENDBRANCH   3  27
TORSDOF 6
ENDMDL
MODEL 7
REMARK VINA RESULT:      -6.6      4.114      7.698
REMARK  Name = 
REMARK  9 active torsions:
REMARK  status: ('A' for Active; 'I' for Inactive)
REMARK    1  A    between atoms: S_1  and  N_4
REMARK    2  A    between atoms: S_1  and  C_5
REMARK    3  A    between atoms: N_10  and  C_13
REMARK    4  A    between atoms: C_16  and  C_19
REMARK    5  A    between atoms: C_19  and  O_23
REMARK    6  A    between atoms: O_23  and  C_26
REMARK    7  A    between atoms: C_24  and  C_27
REMARK    8  A    between atoms: C_24  and  C_28
REMARK    9  A    between atoms: C_26  and  C_29
REMARK                            x       y       z     vdW  Elec       q    Type
REMARK                         _______ _______ _______ _____ _____    ______ ____
ROOT
ATOM      1  C   UNL     1     -11.874  56.016  47.752  0.00  0.00    +0.000 A 
ATOM      2  S   UNL     1     -13.502  56.509  47.710  0.00  0.00    +0.000 S 
ATOM      3  C   UNL     1     -11.316  56.064  49.020  0.00  0.00    +0.000 A 
ATOM      4  C   UNL     1     -13.587  56.535  49.415  0.00  0.00    +0.000 A 
ATOM      5  C   UNL     1     -12.359  56.273  50.000  0.00  0.00    +0.000 A 
ATOM      6  C   UNL     1     -14.866  56.822  50.166  0.00  0.00    +0.000 C 
ATOM      7  C   UNL     1     -12.172  56.295  51.489  0.00  0.00    +0.000 C 
ATOM      8  C   UNL     1     -14.570  57.228  51.644  0.00  0.00    +0.000 C 
ATOM      9  C   UNL     1     -13.508  56.266  52.241  0.00  0.00    +0.000 C 
ATOM     10  C   UNL     1     -15.843  57.120  52.506  0.00  0.00    +0.000 C 
ATOM     11  C   UNL     1     -14.086  58.692  51.706  0.00  0.00    +0.000 C 
ENDROOT
BRANCH   1  15
ATOM     12  N   UNL     1     -10.713  53.929  45.046  0.00  0.00    +0.000 N 
ATOM     13  C   UNL     1     -11.288  54.277  46.263  0.00  0.00    +0.000 C 
ATOM     14  O   UNL     1     -11.764  53.415  47.001  0.00  0.00    +0.000 OA
ATOM     15  N   UNL     1     -11.340  55.628  46.535  0.00  0.00    +0.000 N 
ATOM     16  H   UNL     1     -10.292  54.628  44.495  0.00  0.00    +0.000 HD
ATOM     17  H   UNL     1     -11.009  56.292  45.888  0.00  0.00    +0.000 HD
BRANCH  12  18
ATOM     18  S   UNL     1     -10.719  52.345  44.495  0.00  0.00    +0.000 S 
ATOM     19  O   UNL     1     -10.270  52.352  43.115  0.00  0.00    +0.000 OA
ATOM     20  O   UNL     1     -12.044  51.842  44.814  0.00  0.00    +0.000 OA
BRANCH  18  21
ATOM     21  C   UNL     1      -9.525  51.481  45.550  0.00  0.00    +0.000 A 
ATOM     22  N   UNL     1     -10.040  50.508  46.337  0.00  0.00    +0.000 NA
ATOM     23  N   UNL     1      -8.238  51.875  45.466  0.00  0.00    +0.000 NA
ATOM     24  C   UNL     1      -9.132  49.870  47.099  0.00  0.00    +0.000 A 
ATOM     25  C   UNL     1      -7.396  51.221  46.286  0.00  0.00    +0.000 A 
ATOM     26  C   UNL     1      -7.789  50.194  47.119  0.00  0.00    +0.000 A 
ENDBRANCH  18  21
ENDBRANCH  12  18
ENDBRANCH   1  15
BRANCH   3  27
ATOM     27  C   UNL     1      -9.874  55.989  49.321  0.00  0.00    +0.000 C 
ATOM     28  O   UNL     1      -9.187  56.957  49.621  0.00  0.00    +0.000 OA
BRANCH  27  29
ATOM     29  O   UNL     1      -9.368  54.744  49.064  0.00  0.00    +0.000 OA
BRANCH  29  30
ATOM     30  C   UNL     1      -7.991  54.637  48.696  0.00  0.00    +0.000 C 
ATOM     31  C   UNL     1      -7.807  54.923  47.220  0.00  0.00    +0.000 C 
ENDBRANCH  29  30
ENDBRANCH  27  29
ENDBRANCH   3  27
TORSDOF 6
ENDMDL
MODEL 8
REMARK VINA RESULT:      -6.4      2.558      4.437
REMARK  Name = 
REMARK  9 active torsions:
REMARK  status: ('A' for Active; 'I' for Inactive)
REMARK    1  A    between atoms: S_1  and  N_4
REMARK    2  A    between atoms: S_1  and  C_5
REMARK    3  A    between atoms: N_10  and  C_13
REMARK    4  A    between atoms: C_16  and  C_19
REMARK    5  A    between atoms: C_19  and  O_23
REMARK    6  A    between atoms: O_23  and  C_26
REMARK    7  A    between atoms: C_24  and  C_27
REMARK    8  A    between atoms: C_24  and  C_28
REMARK    9  A    between atoms: C_26  and  C_29
REMARK                            x       y       z     vdW  Elec       q    Type
REMARK                         _______ _______ _______ _____ _____    ______ ____
ROOT
ATOM      1  C   UNL     1     -11.684  53.968  49.292  0.00  0.00    +0.000 A 
ATOM      2  S   UNL     1     -11.848  54.446  47.668  0.00  0.00    +0.000 S 
ATOM      3  C   UNL     1     -10.421  53.486  49.599  0.00  0.00    +0.000 A 
ATOM      4  C   UNL     1     -10.170  54.285  47.400  0.00  0.00    +0.000 A 
ATOM      5  C   UNL     1      -9.515  53.771  48.508  0.00  0.00    +0.000 A 
ATOM      6  C   UNL     1      -9.510  54.658  46.094  0.00  0.00    +0.000 C 
ATOM      7  C   UNL     1      -8.041  53.489  48.494  0.00  0.00    +0.000 C 
ATOM      8  C   UNL     1      -8.101  53.998  45.967  0.00  0.00    +0.000 C 
ATOM      9  C   UNL     1      -7.335  54.156  47.308  0.00  0.00    +0.000 C 
ATOM     10  C   UNL     1      -7.271  54.685  44.865  0.00  0.00    +0.000 C 
ATOM     11  C   UNL     1      -8.244  52.509  45.586  0.00  0.00    +0.000 C 
ENDROOT
BRANCH   1  15
ATOM     12  N   UNL     1     -14.104  55.460  51.515  0.00  0.00    +0.000 N 
ATOM     13  C   UNL     1     -12.977  55.348  50.709  0.00  0.00    +0.000 C 
ATOM     14  O   UNL     1     -12.225  56.308  50.545  0.00  0.00    +0.000 OA
ATOM     15  N   UNL     1     -12.812  54.133  50.077  0.00  0.00    +0.000 N 
ATOM     16  H   UNL     1     -14.662  54.665  51.674  0.00  0.00    +0.000 HD
ATOM     17  H   UNL     1     -13.473  53.410  50.180  0.00  0.00    +0.000 HD
BRANCH  12  18
ATOM     18  S   UNL     1     -14.533  56.918  52.222  0.00  0.00    +0.000 S 
ATOM     19  O   UNL     1     -13.576  57.200  53.277  0.00  0.00    +0.000 OA
ATOM     20  O   UNL     1     -15.940  56.775  52.554  0.00  0.00    +0.000 OA
BRANCH  18  21
ATOM     21  C   UNL     1     -14.394  58.140  50.891  0.00  0.00    +0.000 A 
ATOM     22  N   UNL     1     -14.708  57.692  49.654  0.00  0.00    +0.000 NA
ATOM     23  N   UNL     1     -13.992  59.380  51.240  0.00  0.00    +0.000 NA
ATOM     24  C   UNL     1     -14.614  58.623  48.686  0.00  0.00    +0.000 A 
ATOM     25  C   UNL     1     -13.881  60.243  50.214  0.00  0.00    +0.000 A 
ATOM     26  C   UNL     1     -14.193  59.919  48.910  0.00  0.00    +0.000 A 
ENDBRANCH  18  21
ENDBRANCH  12  18
ENDBRANCH   1  15
BRANCH   3  27
ATOM     27  C   UNL     1     -10.068  52.732  50.817  0.00  0.00    +0.000 C 
ATOM     28  O   UNL     1      -9.162  51.910  50.873  0.00  0.00    +0.000 OA
BRANCH  27  29
ATOM     29  O   UNL     1     -10.975  52.939  51.821  0.00  0.00    +0.000 OA
BRANCH  29  30
ATOM     30  C   UNL     1     -10.494  53.423  53.076  0.00  0.00    +0.000 C 
ATOM     31  C   UNL     1      -9.938  54.824  52.933  0.00  0.00    +0.000 C 
ENDBRANCH  29  30
ENDBRANCH  27  29
ENDBRANCH   3  27
TORSDOF 6
ENDMDL
MODEL 9
REMARK VINA RESULT:      -6.2      1.618      2.221
REMARK  Name = 
REMARK  9 active torsions:
REMARK  status: ('A' for Active; 'I' for Inactive)
REMARK    1  A    between atoms: S_1  and  N_4
REMARK    2  A    between atoms: S_1  and  C_5
REMARK    3  A    between atoms: N_10  and  C_13
REMARK    4  A    between atoms: C_16  and  C_19
REMARK    5  A    between atoms: C_19  and  O_23
REMARK    6  A    between atoms: O_23  and  C_26
REMARK    7  A    between atoms: C_24  and  C_27
REMARK    8  A    between atoms: C_24  and  C_28
REMARK    9  A    between atoms: C_26  and  C_29
REMARK                            x       y       z     vdW  Elec       q    Type
REMARK                         _______ _______ _______ _____ _____    ______ ____
ROOT
ATOM      1  C   UNL     1     -11.049  53.855  51.555  0.00  0.00    +0.000 A 
ATOM      2  S   UNL     1     -10.588  53.952  53.189  0.00  0.00    +0.000 S 
ATOM      3  C   UNL     1      -9.974  53.845  50.679  0.00  0.00    +0.000 A 
ATOM      4  C   UNL     1      -8.947  53.704  52.791  0.00  0.00    +0.000 A 
ATOM      5  C   UNL     1      -8.747  53.655  51.421  0.00  0.00    +0.000 A 
ATOM      6  C   UNL     1      -7.863  53.568  53.835  0.00  0.00    +0.000 C 
ATOM      7  C   UNL     1      -7.377  53.499  50.827  0.00  0.00    +0.000 C 
ATOM      8  C   UNL     1      -6.451  53.809  53.213  0.00  0.00    +0.000 C 
ATOM      9  C   UNL     1      -6.344  53.046  51.866  0.00  0.00    +0.000 C 
ATOM     10  C   UNL     1      -5.345  53.278  54.146  0.00  0.00    +0.000 C 
ATOM     11  C   UNL     1      -6.210  55.320  53.014  0.00  0.00    +0.000 C 
ENDROOT
BRANCH   1  15
ATOM     12  N   UNL     1     -14.429  54.851  50.778  0.00  0.00    +0.000 N 
ATOM     13  C   UNL     1     -13.056  54.954  50.966  0.00  0.00    +0.000 C 
ATOM     14  O   UNL     1     -12.473  56.018  50.761  0.00  0.00    +0.000 OA
ATOM     15  N   UNL     1     -12.412  53.788  51.324  0.00  0.00    +0.000 N 
ATOM     16  H   UNL     1     -14.883  54.005  50.997  0.00  0.00    +0.000 HD
ATOM     17  H   UNL     1     -12.904  52.940  51.413  0.00  0.00    +0.000 HD
BRANCH  12  18
ATOM     18  S   UNL     1     -15.331  56.135  50.186  0.00  0.00    +0.000 S 
ATOM     19  O   UNL     1     -16.702  55.684  50.036  0.00  0.00    +0.000 OA
ATOM     20  O   UNL     1     -14.601  56.601  49.020  0.00  0.00    +0.000 OA
BRANCH  18  21
ATOM     21  C   UNL     1     -15.215  57.413  51.465  0.00  0.00    +0.000 A 
ATOM     22  N   UNL     1     -15.571  57.025  52.711  0.00  0.00    +0.000 NA
ATOM     23  N   UNL     1     -14.791  58.633  51.073  0.00  0.00    +0.000 NA
ATOM     24  C   UNL     1     -15.460  57.988  53.646  0.00  0.00    +0.000 A 
ATOM     25  C   UNL     1     -14.746  59.553  52.052  0.00  0.00    +0.000 A 
ATOM     26  C   UNL     1     -15.058  59.280  53.368  0.00  0.00    +0.000 A 
ENDBRANCH  18  21
ENDBRANCH  12  18
ENDBRANCH   1  15
BRANCH   3  27
ATOM     27  C   UNL     1     -10.057  54.067  49.223  0.00  0.00    +0.000 C 
ATOM     28  O   UNL     1     -10.674  53.341  48.455  0.00  0.00    +0.000 OA
BRANCH  27  29
ATOM     29  O   UNL     1      -9.229  55.079  48.818  0.00  0.00    +0.000 OA
BRANCH  29  30
ATOM     30  C   UNL     1      -9.527  56.409  49.247  0.00  0.00    +0.000 C 
ATOM     31  C   UNL     1      -8.354  57.008  49.993  0.00  0.00    +0.000 C 
ENDBRANCH  29  30
ENDBRANCH  27  29
ENDBRANCH   3  27
TORSDOF 6
ENDMDL
