MODEL 1
REMARK VINA RESULT:      -7.7      0.000      0.000
REMARK  Name = 
REMARK  9 active torsions:
REMARK  status: ('A' for Active; 'I' for Inactive)
REMARK    1  A    between atoms: S_1  and  N_4
REMARK    2  A    between atoms: S_1  and  N_5
REMARK    3  A    between atoms: N_12  and  C_14
REMARK    4  A    between atoms: C_16  and  C_19
REMARK    5  A    between atoms: C_19  and  O_23
REMARK    6  A    between atoms: O_23  and  C_26
REMARK    7  A    between atoms: C_24  and  C_27
REMARK    8  A    between atoms: C_24  and  C_28
REMARK    9  A    between atoms: C_26  and  C_29
REMARK                            x       y       z     vdW  Elec       q    Type
REMARK                         _______ _______ _______ _____ _____    ______ ____
ROOT
ATOM      1  C   UNL     1     -11.000  54.322  51.694  0.00  0.00    +0.000 A 
ATOM      2  S   UNL     1     -10.499  53.729  53.209  0.00  0.00    +0.000 S 
ATOM      3  C   UNL     1      -9.951  54.791  50.925  0.00  0.00    +0.000 A 
ATOM      4  C   UNL     1      -8.844  53.901  52.794  0.00  0.00    +0.000 A 
ATOM      5  C   UNL     1      -8.686  54.455  51.534  0.00  0.00    +0.000 A 
ATOM      6  C   UNL     1      -7.700  53.516  53.712  0.00  0.00    +0.000 C 
ATOM      7  C   UNL     1      -7.332  54.751  50.958  0.00  0.00    +0.000 C 
ATOM      8  C   UNL     1      -6.373  54.231  53.281  0.00  0.00    +0.000 C 
ATOM      9  C   UNL     1      -6.200  54.102  51.748  0.00  0.00    +0.000 C 
ATOM     10  C   UNL     1      -5.136  53.583  53.930  0.00  0.00    +0.000 C 
ATOM     11  C   UNL     1      -6.403  55.713  53.710  0.00  0.00    +0.000 C 
ENDROOT
BRANCH   1  15
ATOM     12  N   UNL     1     -14.470  55.218  51.289  0.00  0.00    +0.000 N 
ATOM     13  C   UNL     1     -13.129  55.364  51.644  0.00  0.00    +0.000 C 
ATOM     14  O   UNL     1     -12.667  56.420  52.070  0.00  0.00    +0.000 OA
ATOM     15  N   UNL     1     -12.355  54.239  51.393  0.00  0.00    +0.000 N 
ATOM     16  H   UNL     1     -14.787  54.353  50.942  0.00  0.00    +0.000 HD
ATOM     17  H   UNL     1     -12.748  53.419  51.017  0.00  0.00    +0.000 HD
BRANCH  12  18
ATOM     18  S   UNL     1     -15.550  56.487  51.441  0.00  0.00    +0.000 S 
ATOM     19  O   UNL     1     -16.724  56.116  50.684  0.00  0.00    +0.000 OA
ATOM     20  O   UNL     1     -15.661  56.852  52.835  0.00  0.00    +0.000 OA
BRANCH  18  21
ATOM     21  N   UNL     1     -14.714  57.691  50.576  0.00  0.00    +0.000 NA
ATOM     22  C   UNL     1     -14.644  57.472  49.108  0.00  0.00    +0.000 C 
ATOM     23  C   UNL     1     -15.007  59.087  50.992  0.00  0.00    +0.000 C 
ATOM     24  C   UNL     1     -13.695  58.469  48.449  0.00  0.00    +0.000 C 
ATOM     25  C   UNL     1     -14.056  60.073  50.313  0.00  0.00    +0.000 C 
ATOM     26  C   UNL     1     -14.066  59.903  48.800  0.00  0.00    +0.000 C 
ENDBRANCH  18  21
ENDBRANCH  12  18
ENDBRANCH   1  15
BRANCH   3  27
ATOM     27  C   UNL     1     -10.156  55.525  49.679  0.00  0.00    +0.000 C 
ATOM     28  O   UNL     1      -9.891  56.716  49.546  0.00  0.00    +0.000 OA
BRANCH  27  29
ATOM     29  O   UNL     1     -10.661  54.732  48.700  0.00  0.00    +0.000 OA
BRANCH  29  30
ATOM     30  C   UNL     1     -11.857  55.178  48.057  0.00  0.00    +0.000 C 
ATOM     31  C   UNL     1     -11.555  55.586  46.634  0.00  0.00    +0.000 C 
ENDBRANCH  29  30
ENDBRANCH  27  29
ENDBRANCH   3  27
TORSDOF 6
ENDMDL
MODEL 2
REMARK VINA RESULT:      -7.3      2.814      7.652
REMARK  Name = 
REMARK  9 active torsions:
REMARK  status: ('A' for Active; 'I' for Inactive)
REMARK    1  A    between atoms: S_1  and  N_4
REMARK    2  A    between atoms: S_1  and  N_5
REMARK    3  A    between atoms: N_12  and  C_14
REMARK    4  A    between atoms: C_16  and  C_19
REMARK    5  A    between atoms: C_19  and  O_23
REMARK    6  A    between atoms: O_23  and  C_26
REMARK    7  A    between atoms: C_24  and  C_27
REMARK    8  A    between atoms: C_24  and  C_28
REMARK    9  A    between atoms: C_26  and  C_29
REMARK                            x       y       z     vdW  Elec       q    Type
REMARK                         _______ _______ _______ _____ _____    ______ ____
ROOT
ATOM      1  C   UNL     1     -11.145  54.835  50.160  0.00  0.00    +0.000 A 
ATOM      2  S   UNL     1     -11.724  54.896  51.760  0.00  0.00    +0.000 S 
ATOM      3  C   UNL     1     -11.775  55.739  49.325  0.00  0.00    +0.000 A 
ATOM      4  C   UNL     1     -12.691  56.270  51.420  0.00  0.00    +0.000 A 
ATOM      5  C   UNL     1     -12.608  56.638  50.087  0.00  0.00    +0.000 A 
ATOM      6  C   UNL     1     -13.549  56.974  52.453  0.00  0.00    +0.000 C 
ATOM      7  C   UNL     1     -13.398  57.785  49.527  0.00  0.00    +0.000 C 
ATOM      8  C   UNL     1     -14.659  57.840  51.762  0.00  0.00    +0.000 C 
ATOM      9  C   UNL     1     -14.023  58.657  50.612  0.00  0.00    +0.000 C 
ATOM     10  C   UNL     1     -15.288  58.850  52.739  0.00  0.00    +0.000 C 
ATOM     11  C   UNL     1     -15.790  56.933  51.235  0.00  0.00    +0.000 C 
ENDROOT
BRANCH   1  15
ATOM     12  N   UNL     1      -7.855  53.368  49.973  0.00  0.00    +0.000 N 
ATOM     13  C   UNL     1      -8.831  54.326  50.250  0.00  0.00    +0.000 C 
ATOM     14  O   UNL     1      -8.580  55.380  50.830  0.00  0.00    +0.000 OA
ATOM     15  N   UNL     1     -10.115  53.942  49.887  0.00  0.00    +0.000 N 
ATOM     16  H   UNL     1      -8.112  52.535  49.516  0.00  0.00    +0.000 HD
ATOM     17  H   UNL     1     -10.289  53.074  49.456  0.00  0.00    +0.000 HD
BRANCH  12  18
ATOM     18  S   UNL     1      -6.258  53.609  50.406  0.00  0.00    +0.000 S 
ATOM     19  O   UNL     1      -5.568  52.370  50.127  0.00  0.00    +0.000 OA
ATOM     20  O   UNL     1      -5.792  54.852  49.834  0.00  0.00    +0.000 OA
BRANCH  18  21
ATOM     21  N   UNL     1      -6.428  53.758  52.093  0.00  0.00    +0.000 NA
ATOM     22  C   UNL     1      -6.824  52.509  52.795  0.00  0.00    +0.000 C 
ATOM     23  C   UNL     1      -5.368  54.552  52.768  0.00  0.00    +0.000 C 
ATOM     24  C   UNL     1      -7.169  52.786  54.255  0.00  0.00    +0.000 C 
ATOM     25  C   UNL     1      -5.724  54.809  54.232  0.00  0.00    +0.000 C 
ATOM     26  C   UNL     1      -6.034  53.511  54.965  0.00  0.00    +0.000 C 
ENDBRANCH  18  21
ENDBRANCH  12  18
ENDBRANCH   1  15
BRANCH   3  27
ATOM     27  C   UNL     1     -11.590  55.733  47.876  0.00  0.00    +0.000 C 
ATOM     28  O   UNL     1     -12.520  55.721  47.077  0.00  0.00    +0.000 OA
BRANCH  27  29
ATOM     29  O   UNL     1     -10.276  55.751  47.532  0.00  0.00    +0.000 OA
BRANCH  29  30
ATOM     30  C   UNL     1      -9.872  54.879  46.475  0.00  0.00    +0.000 C 
ATOM     31  C   UNL     1      -8.381  54.994  46.254  0.00  0.00    +0.000 C 
ENDBRANCH  29  30
ENDBRANCH  27  29
ENDBRANCH   3  27
TORSDOF 6
ENDMDL
MODEL 3
REMARK VINA RESULT:      -7.2      3.663      6.022
REMARK  Name = 
REMARK  9 active torsions:
REMARK  status: ('A' for Active; 'I' for Inactive)
REMARK    1  A    between atoms: S_1  and  N_4
REMARK    2  A    between atoms: S_1  and  N_5
REMARK    3  A    between atoms: N_12  and  C_14
REMARK    4  A    between atoms: C_16  and  C_19
REMARK    5  A    between atoms: C_19  and  O_23
REMARK    6  A    between atoms: O_23  and  C_26
REMARK    7  A    between atoms: C_24  and  C_27
REMARK    8  A    between atoms: C_24  and  C_28
REMARK    9  A    between atoms: C_26  and  C_29
REMARK                            x       y       z     vdW  Elec       q    Type
REMARK                         _______ _______ _______ _____ _____    ______ ____
ROOT
ATOM      1  C   UNL     1     -11.231  53.599  47.371  0.00  0.00    +0.000 A 
ATOM      2  S   UNL     1     -12.131  52.559  46.369  0.00  0.00    +0.000 S 
ATOM      3  C   UNL     1      -9.896  53.666  47.018  0.00  0.00    +0.000 A 
ATOM      4  C   UNL     1     -10.799  52.327  45.315  0.00  0.00    +0.000 A 
ATOM      5  C   UNL     1      -9.671  52.996  45.759  0.00  0.00    +0.000 A 
ATOM      6  C   UNL     1     -10.852  51.470  44.064  0.00  0.00    +0.000 C 
ATOM      7  C   UNL     1      -8.358  52.914  45.035  0.00  0.00    +0.000 C 
ATOM      8  C   UNL     1      -9.410  51.057  43.608  0.00  0.00    +0.000 C 
ATOM      9  C   UNL     1      -8.490  52.301  43.644  0.00  0.00    +0.000 C 
ATOM     10  C   UNL     1      -9.396  50.527  42.162  0.00  0.00    +0.000 C 
ATOM     11  C   UNL     1      -8.863  49.939  44.520  0.00  0.00    +0.000 C 
ENDROOT
BRANCH   1  15
ATOM     12  N   UNL     1     -12.982  56.191  49.167  0.00  0.00    +0.000 N 
ATOM     13  C   UNL     1     -12.269  55.592  48.129  0.00  0.00    +0.000 C 
ATOM     14  O   UNL     1     -12.041  56.163  47.065  0.00  0.00    +0.000 OA
ATOM     15  N   UNL     1     -11.918  54.271  48.376  0.00  0.00    +0.000 N 
ATOM     16  H   UNL     1     -13.147  55.685  49.995  0.00  0.00    +0.000 HD
ATOM     17  H   UNL     1     -12.148  53.830  49.225  0.00  0.00    +0.000 HD
BRANCH  12  18
ATOM     18  S   UNL     1     -13.562  57.754  49.031  0.00  0.00    +0.000 S 
ATOM     19  O   UNL     1     -12.415  58.627  49.140  0.00  0.00    +0.000 OA
ATOM     20  O   UNL     1     -14.441  57.837  47.886  0.00  0.00    +0.000 OA
BRANCH  18  21
ATOM     21  N   UNL     1     -14.457  57.863  50.475  0.00  0.00    +0.000 NA
ATOM     22  C   UNL     1     -14.520  56.608  51.268  0.00  0.00    +0.000 C 
ATOM     23  C   UNL     1     -14.229  59.100  51.268  0.00  0.00    +0.000 C 
ATOM     24  C   UNL     1     -15.517  56.735  52.417  0.00  0.00    +0.000 C 
ATOM     25  C   UNL     1     -15.227  59.203  52.421  0.00  0.00    +0.000 C 
ATOM     26  C   UNL     1     -15.213  57.949  53.283  0.00  0.00    +0.000 C 
ENDBRANCH  18  21
ENDBRANCH  12  18
ENDBRANCH   1  15
BRANCH   3  27
ATOM     27  C   UNL     1      -8.894  54.333  47.847  0.00  0.00    +0.000 C 
ATOM     28  O   UNL     1      -8.251  55.308  47.473  0.00  0.00    +0.000 OA
BRANCH  27  29
ATOM     29  O   UNL     1      -8.774  53.748  49.066  0.00  0.00    +0.000 OA
BRANCH  29  30
ATOM     30  C   UNL     1      -8.796  54.613  50.203  0.00  0.00    +0.000 C 
ATOM     31  C   UNL     1      -9.699  54.039  51.271  0.00  0.00    +0.000 C 
ENDBRANCH  29  30
ENDBRANCH  27  29
ENDBRANCH   3  27
TORSDOF 6
ENDMDL
MODEL 4
REMARK VINA RESULT:      -7.0      3.731      6.057
REMARK  Name = 
REMARK  9 active torsions:
REMARK  status: ('A' for Active; 'I' for Inactive)
REMARK    1  A    between atoms: S_1  and  N_4
REMARK    2  A    between atoms: S_1  and  N_5
REMARK    3  A    between atoms: N_12  and  C_14
REMARK    4  A    between atoms: C_16  and  C_19
REMARK    5  A    between atoms: C_19  and  O_23
REMARK    6  A    between atoms: O_23  and  C_26
REMARK    7  A    between atoms: C_24  and  C_27
REMARK    8  A    between atoms: C_24  and  C_28
REMARK    9  A    between atoms: C_26  and  C_29
REMARK                            x       y       z     vdW  Elec       q    Type
REMARK                         _______ _______ _______ _____ _____    ______ ____
ROOT
ATOM      1  C   UNL     1     -10.492  54.502  46.942  0.00  0.00    +0.000 A 
ATOM      2  S   UNL     1     -11.563  54.019  45.711  0.00  0.00    +0.000 S 
ATOM      3  C   UNL     1      -9.289  53.821  46.907  0.00  0.00    +0.000 A 
ATOM      4  C   UNL     1     -10.369  53.031  44.978  0.00  0.00    +0.000 A 
ATOM      5  C   UNL     1      -9.188  53.033  45.702  0.00  0.00    +0.000 A 
ATOM      6  C   UNL     1     -10.596  52.235  43.708  0.00  0.00    +0.000 C 
ATOM      7  C   UNL     1      -8.001  52.209  45.293  0.00  0.00    +0.000 C 
ATOM      8  C   UNL     1      -9.539  51.083  43.574  0.00  0.00    +0.000 C 
ATOM      9  C   UNL     1      -8.131  51.648  43.880  0.00  0.00    +0.000 C 
ATOM     10  C   UNL     1      -9.494  50.511  42.145  0.00  0.00    +0.000 C 
ATOM     11  C   UNL     1      -9.890  49.925  44.530  0.00  0.00    +0.000 C 
ENDROOT
BRANCH   1  15
ATOM     12  N   UNL     1     -11.997  56.202  49.745  0.00  0.00    +0.000 N 
ATOM     13  C   UNL     1     -11.633  55.136  48.922  0.00  0.00    +0.000 C 
ATOM     14  O   UNL     1     -11.866  53.965  49.211  0.00  0.00    +0.000 OA
ATOM     15  N   UNL     1     -10.914  55.516  47.795  0.00  0.00    +0.000 N 
ATOM     16  H   UNL     1     -11.776  57.121  49.471  0.00  0.00    +0.000 HD
ATOM     17  H   UNL     1     -10.712  56.461  47.610  0.00  0.00    +0.000 HD
BRANCH  12  18
ATOM     18  S   UNL     1     -12.800  55.946  51.189  0.00  0.00    +0.000 S 
ATOM     19  O   UNL     1     -13.832  54.971  50.916  0.00  0.00    +0.000 OA
ATOM     20  O   UNL     1     -11.832  55.714  52.237  0.00  0.00    +0.000 OA
BRANCH  18  21
ATOM     21  N   UNL     1     -13.539  57.466  51.389  0.00  0.00    +0.000 NA
ATOM     22  C   UNL     1     -13.855  58.179  50.124  0.00  0.00    +0.000 C 
ATOM     23  C   UNL     1     -14.603  57.520  52.426  0.00  0.00    +0.000 C 
ATOM     24  C   UNL     1     -14.303  59.612  50.399  0.00  0.00    +0.000 C 
ATOM     25  C   UNL     1     -15.048  58.960  52.680  0.00  0.00    +0.000 C 
ATOM     26  C   UNL     1     -15.461  59.650  51.387  0.00  0.00    +0.000 C 
ENDBRANCH  18  21
ENDBRANCH  12  18
ENDBRANCH   1  15
BRANCH   3  27
ATOM     27  C   UNL     1      -8.297  53.920  47.975  0.00  0.00    +0.000 C 
ATOM     28  O   UNL     1      -8.466  53.457  49.098  0.00  0.00    +0.000 OA
BRANCH  27  29
ATOM     29  O   UNL     1      -7.178  54.574  47.569  0.00  0.00    +0.000 OA
BRANCH  29  30
ATOM     30  C   UNL     1      -5.970  54.288  48.275  0.00  0.00    +0.000 C 
ATOM     31  C   UNL     1      -5.164  53.255  47.522  0.00  0.00    +0.000 C 
ENDBRANCH  29  30
ENDBRANCH  27  29
ENDBRANCH   3  27
TORSDOF 6
ENDMDL
MODEL 5
REMARK VINA RESULT:      -7.0      1.882      2.177
REMARK  Name = 
REMARK  9 active torsions:
REMARK  status: ('A' for Active; 'I' for Inactive)
REMARK    1  A    between atoms: S_1  and  N_4
REMARK    2  A    between atoms: S_1  and  N_5
REMARK    3  A    between atoms: N_12  and  C_14
REMARK    4  A    between atoms: C_16  and  C_19
REMARK    5  A    between atoms: C_19  and  O_23
REMARK    6  A    between atoms: O_23  and  C_26
REMARK    7  A    between atoms: C_24  and  C_27
REMARK    8  A    between atoms: C_24  and  C_28
REMARK    9  A    between atoms: C_26  and  C_29
REMARK                            x       y       z     vdW  Elec       q    Type
REMARK                         _______ _______ _______ _____ _____    ______ ____
ROOT
ATOM      1  C   UNL     1     -11.188  53.416  50.634  0.00  0.00    +0.000 A 
ATOM      2  S   UNL     1     -10.511  52.396  51.817  0.00  0.00    +0.000 S 
ATOM      3  C   UNL     1     -10.320  53.685  49.593  0.00  0.00    +0.000 A 
ATOM      4  C   UNL     1      -9.110  52.127  50.866  0.00  0.00    +0.000 A 
ATOM      5  C   UNL     1      -9.143  52.853  49.687  0.00  0.00    +0.000 A 
ATOM      6  C   UNL     1      -7.967  51.223  51.286  0.00  0.00    +0.000 C 
ATOM      7  C   UNL     1      -8.011  52.825  48.702  0.00  0.00    +0.000 C 
ATOM      8  C   UNL     1      -6.662  51.564  50.484  0.00  0.00    +0.000 C 
ATOM      9  C   UNL     1      -7.011  51.708  48.983  0.00  0.00    +0.000 C 
ATOM     10  C   UNL     1      -5.612  50.443  50.597  0.00  0.00    +0.000 C 
ATOM     11  C   UNL     1      -6.025  52.858  51.030  0.00  0.00    +0.000 C 
ENDROOT
BRANCH   1  15
ATOM     12  N   UNL     1     -14.049  55.416  51.543  0.00  0.00    +0.000 N 
ATOM     13  C   UNL     1     -12.706  55.061  51.417  0.00  0.00    +0.000 C 
ATOM     14  O   UNL     1     -11.789  55.812  51.738  0.00  0.00    +0.000 OA
ATOM     15  N   UNL     1     -12.505  53.823  50.820  0.00  0.00    +0.000 N 
ATOM     16  H   UNL     1     -14.745  54.780  51.260  0.00  0.00    +0.000 HD
ATOM     17  H   UNL     1     -13.261  53.259  50.540  0.00  0.00    +0.000 HD
BRANCH  12  18
ATOM     18  S   UNL     1     -14.498  56.901  52.166  0.00  0.00    +0.000 S 
ATOM     19  O   UNL     1     -15.937  56.869  52.304  0.00  0.00    +0.000 OA
ATOM     20  O   UNL     1     -13.660  57.215  53.301  0.00  0.00    +0.000 OA
BRANCH  18  21
ATOM     21  N   UNL     1     -14.110  57.904  50.846  0.00  0.00    +0.000 NA
ATOM     22  C   UNL     1     -14.533  57.383  49.520  0.00  0.00    +0.000 C 
ATOM     23  C   UNL     1     -14.352  59.355  51.061  0.00  0.00    +0.000 C 
ATOM     24  C   UNL     1     -13.951  58.227  48.389  0.00  0.00    +0.000 C 
ATOM     25  C   UNL     1     -13.775  60.183  49.913  0.00  0.00    +0.000 C 
ATOM     26  C   UNL     1     -14.291  59.700  48.565  0.00  0.00    +0.000 C 
ENDBRANCH  18  21
ENDBRANCH  12  18
ENDBRANCH   1  15
BRANCH   3  27
ATOM     27  C   UNL     1     -10.604  54.687  48.569  0.00  0.00    +0.000 C 
ATOM     28  O   UNL     1      -9.923  55.695  48.405  0.00  0.00    +0.000 OA
BRANCH  27  29
ATOM     29  O   UNL     1     -11.695  54.362  47.830  0.00  0.00    +0.000 OA
BRANCH  29  30
ATOM     30  C   UNL     1     -11.516  53.378  46.809  0.00  0.00    +0.000 C 
ATOM     31  C   UNL     1     -11.633  54.022  45.447  0.00  0.00    +0.000 C 
ENDBRANCH  29  30
ENDBRANCH  27  29
ENDBRANCH   3  27
TORSDOF 6
ENDMDL
MODEL 6
REMARK VINA RESULT:      -6.9      2.373      3.095
REMARK  Name = 
REMARK  9 active torsions:
REMARK  status: ('A' for Active; 'I' for Inactive)
REMARK    1  A    between atoms: S_1  and  N_4
REMARK    2  A    between atoms: S_1  and  N_5
REMARK    3  A    between atoms: N_12  and  C_14
REMARK    4  A    between atoms: C_16  and  C_19
REMARK    5  A    between atoms: C_19  and  O_23
REMARK    6  A    between atoms: O_23  and  C_26
REMARK    7  A    between atoms: C_24  and  C_27
REMARK    8  A    between atoms: C_24  and  C_28
REMARK    9  A    between atoms: C_26  and  C_29
REMARK                            x       y       z     vdW  Elec       q    Type
REMARK                         _______ _______ _______ _____ _____    ______ ____
ROOT
ATOM      1  C   UNL     1      -8.466  55.658  49.902  0.00  0.00    +0.000 A 
ATOM      2  S   UNL     1      -7.991  55.931  51.514  0.00  0.00    +0.000 S 
ATOM      3  C   UNL     1      -7.772  54.623  49.304  0.00  0.00    +0.000 A 
ATOM      4  C   UNL     1      -6.988  54.540  51.515  0.00  0.00    +0.000 A 
ATOM      5  C   UNL     1      -6.980  53.913  50.280  0.00  0.00    +0.000 A 
ATOM      6  C   UNL     1      -6.190  54.076  52.718  0.00  0.00    +0.000 C 
ATOM      7  C   UNL     1      -6.142  52.697  50.009  0.00  0.00    +0.000 C 
ATOM      8  C   UNL     1      -5.028  53.117  52.282  0.00  0.00    +0.000 C 
ATOM      9  C   UNL     1      -5.579  52.073  51.282  0.00  0.00    +0.000 C 
ATOM     10  C   UNL     1      -4.451  52.336  53.478  0.00  0.00    +0.000 C 
ATOM     11  C   UNL     1      -3.876  53.929  51.655  0.00  0.00    +0.000 C 
ENDROOT
BRANCH   1  15
ATOM     12  N   UNL     1     -11.757  56.854  49.038  0.00  0.00    +0.000 N 
ATOM     13  C   UNL     1     -10.786  55.990  49.544  0.00  0.00    +0.000 C 
ATOM     14  O   UNL     1     -11.067  54.950  50.134  0.00  0.00    +0.000 OA
ATOM     15  N   UNL     1      -9.486  56.455  49.394  0.00  0.00    +0.000 N 
ATOM     16  H   UNL     1     -11.478  57.682  48.584  0.00  0.00    +0.000 HD
ATOM     17  H   UNL     1      -9.295  57.311  48.948  0.00  0.00    +0.000 HD
BRANCH  12  18
ATOM     18  S   UNL     1     -13.387  56.511  49.192  0.00  0.00    +0.000 S 
ATOM     19  O   UNL     1     -14.045  57.145  48.072  0.00  0.00    +0.000 OA
ATOM     20  O   UNL     1     -13.555  55.097  49.436  0.00  0.00    +0.000 OA
BRANCH  18  21
ATOM     21  N   UNL     1     -13.745  57.403  50.597  0.00  0.00    +0.000 NA
ATOM     22  C   UNL     1     -14.820  58.416  50.437  0.00  0.00    +0.000 C 
ATOM     23  C   UNL     1     -13.808  56.609  51.851  0.00  0.00    +0.000 C 
ATOM     24  C   UNL     1     -14.918  59.312  51.669  0.00  0.00    +0.000 C 
ATOM     25  C   UNL     1     -13.918  57.520  53.073  0.00  0.00    +0.000 C 
ATOM     26  C   UNL     1     -15.084  58.490  52.940  0.00  0.00    +0.000 C 
ENDBRANCH  18  21
ENDBRANCH  12  18
ENDBRANCH   1  15
BRANCH   3  27
ATOM     27  C   UNL     1      -7.864  54.337  47.874  0.00  0.00    +0.000 C 
ATOM     28  O   UNL     1      -6.971  54.599  47.075  0.00  0.00    +0.000 OA
BRANCH  27  29
ATOM     29  O   UNL     1      -9.042  53.745  47.550  0.00  0.00    +0.000 OA
BRANCH  29  30
ATOM     30  C   UNL     1      -9.513  53.930  46.214  0.00  0.00    +0.000 C 
ATOM     31  C   UNL     1     -10.851  54.634  46.232  0.00  0.00    +0.000 C 
ENDBRANCH  29  30
ENDBRANCH  27  29
ENDBRANCH   3  27
TORSDOF 6
ENDMDL
MODEL 7
REMARK VINA RESULT:      -6.9      4.168      7.616
REMARK  Name = 
REMARK  9 active torsions:
REMARK  status: ('A' for Active; 'I' for Inactive)
REMARK    1  A    between atoms: S_1  and  N_4
REMARK    2  A    between atoms: S_1  and  N_5
REMARK    3  A    between atoms: N_12  and  C_14
REMARK    4  A    between atoms: C_16  and  C_19
REMARK    5  A    between atoms: C_19  and  O_23
REMARK    6  A    between atoms: O_23  and  C_26
REMARK    7  A    between atoms: C_24  and  C_27
REMARK    8  A    between atoms: C_24  and  C_28
REMARK    9  A    between atoms: C_26  and  C_29
REMARK                            x       y       z     vdW  Elec       q    Type
REMARK                         _______ _______ _______ _____ _____    ______ ____
ROOT
ATOM      1  C   UNL     1      -8.647  54.839  47.148  0.00  0.00    +0.000 A 
ATOM      2  S   UNL     1      -7.428  54.038  46.270  0.00  0.00    +0.000 S 
ATOM      3  C   UNL     1      -9.919  54.541  46.698  0.00  0.00    +0.000 A 
ATOM      4  C   UNL     1      -8.581  53.119  45.395  0.00  0.00    +0.000 A 
ATOM      5  C   UNL     1      -9.878  53.464  45.737  0.00  0.00    +0.000 A 
ATOM      6  C   UNL     1      -8.215  52.076  44.356  0.00  0.00    +0.000 C 
ATOM      7  C   UNL     1     -11.070  52.834  45.077  0.00  0.00    +0.000 C 
ATOM      8  C   UNL     1      -9.429  51.784  43.407  0.00  0.00    +0.000 C 
ATOM      9  C   UNL     1     -10.707  51.599  44.259  0.00  0.00    +0.000 C 
ATOM     10  C   UNL     1      -9.228  50.485  42.605  0.00  0.00    +0.000 C 
ATOM     11  C   UNL     1      -9.601  52.936  42.394  0.00  0.00    +0.000 C 
ENDROOT
BRANCH   1  15
ATOM     12  N   UNL     1      -7.555  55.887  50.422  0.00  0.00    +0.000 N 
ATOM     13  C   UNL     1      -7.981  55.019  49.417  0.00  0.00    +0.000 C 
ATOM     14  O   UNL     1      -8.043  53.802  49.574  0.00  0.00    +0.000 OA
ATOM     15  N   UNL     1      -8.246  55.646  48.207  0.00  0.00    +0.000 N 
ATOM     16  H   UNL     1      -7.513  56.853  50.240  0.00  0.00    +0.000 HD
ATOM     17  H   UNL     1      -8.152  56.621  48.102  0.00  0.00    +0.000 HD
BRANCH  12  18
ATOM     18  S   UNL     1      -7.113  55.315  51.930  0.00  0.00    +0.000 S 
ATOM     19  O   UNL     1      -5.939  54.496  51.729  0.00  0.00    +0.000 OA
ATOM     20  O   UNL     1      -7.087  56.415  52.868  0.00  0.00    +0.000 OA
BRANCH  18  21
ATOM     21  N   UNL     1      -8.431  54.288  52.255  0.00  0.00    +0.000 NA
ATOM     22  C   UNL     1      -8.095  53.066  53.032  0.00  0.00    +0.000 C 
ATOM     23  C   UNL     1      -9.681  54.976  52.671  0.00  0.00    +0.000 C 
ATOM     24  C   UNL     1      -9.280  52.105  53.082  0.00  0.00    +0.000 C 
ATOM     25  C   UNL     1     -10.853  53.997  52.728  0.00  0.00    +0.000 C 
ATOM     26  C   UNL     1     -10.532  52.795  53.605  0.00  0.00    +0.000 C 
ENDBRANCH  18  21
ENDBRANCH  12  18
ENDBRANCH   1  15
BRANCH   3  27
ATOM     27  C   UNL     1     -11.106  55.255  47.161  0.00  0.00    +0.000 C 
ATOM     28  O   UNL     1     -11.768  55.999  46.445  0.00  0.00    +0.000 OA
BRANCH  27  29
ATOM     29  O   UNL     1     -11.382  54.989  48.464  0.00  0.00    +0.000 OA
BRANCH  29  30
ATOM     30  C   UNL     1     -12.260  53.893  48.728  0.00  0.00    +0.000 C 
ATOM     31  C   UNL     1     -11.500  52.774  49.400  0.00  0.00    +0.000 C 
ENDBRANCH  29  30
ENDBRANCH  27  29
ENDBRANCH   3  27
TORSDOF 6
ENDMDL
MODEL 8
REMARK VINA RESULT:      -6.7      3.432      8.172
REMARK  Name = 
REMARK  9 active torsions:
REMARK  status: ('A' for Active; 'I' for Inactive)
REMARK    1  A    between atoms: S_1  and  N_4
REMARK    2  A    between atoms: S_1  and  N_5
REMARK    3  A    between atoms: N_12  and  C_14
REMARK    4  A    between atoms: C_16  and  C_19
REMARK    5  A    between atoms: C_19  and  O_23
REMARK    6  A    between atoms: O_23  and  C_26
REMARK    7  A    between atoms: C_24  and  C_27
REMARK    8  A    between atoms: C_24  and  C_28
REMARK    9  A    between atoms: C_26  and  C_29
REMARK                            x       y       z     vdW  Elec       q    Type
REMARK                         _______ _______ _______ _____ _____    ______ ____
ROOT
ATOM      1  C   UNL     1     -10.643  54.767  50.421  0.00  0.00    +0.000 A 
ATOM      2  S   UNL     1     -11.260  54.950  51.998  0.00  0.00    +0.000 S 
ATOM      3  C   UNL     1     -11.354  55.486  49.478  0.00  0.00    +0.000 A 
ATOM      4  C   UNL     1     -12.370  56.153  51.487  0.00  0.00    +0.000 A 
ATOM      5  C   UNL     1     -12.300  56.367  50.120  0.00  0.00    +0.000 A 
ATOM      6  C   UNL     1     -13.325  56.870  52.421  0.00  0.00    +0.000 C 
ATOM      7  C   UNL     1     -13.204  57.340  49.419  0.00  0.00    +0.000 C 
ATOM      8  C   UNL     1     -14.511  57.513  51.621  0.00  0.00    +0.000 C 
ATOM      9  C   UNL     1     -13.947  58.256  50.386  0.00  0.00    +0.000 C 
ATOM     10  C   UNL     1     -15.273  58.553  52.464  0.00  0.00    +0.000 C 
ATOM     11  C   UNL     1     -15.519  56.425  51.198  0.00  0.00    +0.000 C 
ENDROOT
BRANCH   1  15
ATOM     12  N   UNL     1      -7.191  53.746  50.192  0.00  0.00    +0.000 N 
ATOM     13  C   UNL     1      -8.279  54.609  50.325  0.00  0.00    +0.000 C 
ATOM     14  O   UNL     1      -8.149  55.810  50.548  0.00  0.00    +0.000 OA
ATOM     15  N   UNL     1      -9.512  53.973  50.266  0.00  0.00    +0.000 N 
ATOM     16  H   UNL     1      -7.351  52.789  50.025  0.00  0.00    +0.000 HD
ATOM     17  H   UNL     1      -9.582  53.002  50.122  0.00  0.00    +0.000 HD
BRANCH  12  18
ATOM     18  S   UNL     1      -5.621  54.307  50.313  0.00  0.00    +0.000 S 
ATOM     19  O   UNL     1      -5.496  55.382  49.354  0.00  0.00    +0.000 OA
ATOM     20  O   UNL     1      -5.299  54.525  51.705  0.00  0.00    +0.000 OA
BRANCH  18  21
ATOM     21  N   UNL     1      -4.777  52.956  49.713  0.00  0.00    +0.000 NA
ATOM     22  C   UNL     1      -4.978  51.701  50.484  0.00  0.00    +0.000 C 
ATOM     23  C   UNL     1      -4.803  52.799  48.235  0.00  0.00    +0.000 C 
ATOM     24  C   UNL     1      -4.019  50.610  50.015  0.00  0.00    +0.000 C 
ATOM     25  C   UNL     1      -3.847  51.694  47.784  0.00  0.00    +0.000 C 
ATOM     26  C   UNL     1      -4.126  50.387  48.513  0.00  0.00    +0.000 C 
ENDBRANCH  18  21
ENDBRANCH  12  18
ENDBRANCH   1  15
BRANCH   3  27
ATOM     27  C   UNL     1     -11.137  55.330  48.042  0.00  0.00    +0.000 C 
ATOM     28  O   UNL     1     -10.173  55.805  47.450  0.00  0.00    +0.000 OA
BRANCH  27  29
ATOM     29  O   UNL     1     -12.119  54.597  47.457  0.00  0.00    +0.000 OA
BRANCH  29  30
ATOM     30  C   UNL     1     -11.732  53.361  46.854  0.00  0.00    +0.000 C 
ATOM     31  C   UNL     1     -12.221  52.202  47.692  0.00  0.00    +0.000 C 
ENDBRANCH  29  30
ENDBRANCH  27  29
ENDBRANCH   3  27
TORSDOF 6
ENDMDL
MODEL 9
REMARK VINA RESULT:      -6.6      2.501      3.332
REMARK  Name = 
REMARK  9 active torsions:
REMARK  status: ('A' for Active; 'I' for Inactive)
REMARK    1  A    between atoms: S_1  and  N_4
REMARK    2  A    between atoms: S_1  and  N_5
REMARK    3  A    between atoms: N_12  and  C_14
REMARK    4  A    between atoms: C_16  and  C_19
REMARK    5  A    between atoms: C_19  and  O_23
REMARK    6  A    between atoms: O_23  and  C_26
REMARK    7  A    between atoms: C_24  and  C_27
REMARK    8  A    between atoms: C_24  and  C_28
REMARK    9  A    between atoms: C_26  and  C_29
REMARK                            x       y       z     vdW  Elec       q    Type
REMARK                         _______ _______ _______ _____ _____    ______ ____
ROOT
ATOM      1  C   UNL     1     -10.086  54.680  50.685  0.00  0.00    +0.000 A 
ATOM      2  S   UNL     1      -9.981  54.883  52.372  0.00  0.00    +0.000 S 
ATOM      3  C   UNL     1      -9.729  53.410  50.271  0.00  0.00    +0.000 A 
ATOM      4  C   UNL     1      -9.648  53.218  52.610  0.00  0.00    +0.000 A 
ATOM      5  C   UNL     1      -9.567  52.534  51.408  0.00  0.00    +0.000 A 
ATOM      6  C   UNL     1      -9.444  52.585  53.972  0.00  0.00    +0.000 C 
ATOM      7  C   UNL     1      -9.240  51.071  51.344  0.00  0.00    +0.000 C 
ATOM      8  C   UNL     1      -8.686  51.218  53.846  0.00  0.00    +0.000 C 
ATOM      9  C   UNL     1      -9.323  50.388  52.705  0.00  0.00    +0.000 C 
ATOM     10  C   UNL     1      -8.799  50.379  55.132  0.00  0.00    +0.000 C 
ATOM     11  C   UNL     1      -7.186  51.464  53.579  0.00  0.00    +0.000 C 
ENDROOT
BRANCH   1  15
ATOM     12  N   UNL     1     -12.284  57.094  49.151  0.00  0.00    +0.000 N 
ATOM     13  C   UNL     1     -11.908  55.973  49.892  0.00  0.00    +0.000 C 
ATOM     14  O   UNL     1     -12.718  55.283  50.506  0.00  0.00    +0.000 OA
ATOM     15  N   UNL     1     -10.536  55.764  49.938  0.00  0.00    +0.000 N 
ATOM     16  H   UNL     1     -11.593  57.619  48.687  0.00  0.00    +0.000 HD
ATOM     17  H   UNL     1      -9.910  56.357  49.464  0.00  0.00    +0.000 HD
BRANCH  12  18
ATOM     18  S   UNL     1     -13.886  57.561  49.039  0.00  0.00    +0.000 S 
ATOM     19  O   UNL     1     -13.887  58.872  48.429  0.00  0.00    +0.000 OA
ATOM     20  O   UNL     1     -14.657  56.483  48.463  0.00  0.00    +0.000 OA
BRANCH  18  21
ATOM     21  N   UNL     1     -14.257  57.740  50.690  0.00  0.00    +0.000 NA
ATOM     22  C   UNL     1     -14.150  59.129  51.209  0.00  0.00    +0.000 C 
ATOM     23  C   UNL     1     -15.449  56.984  51.157  0.00  0.00    +0.000 C 
ATOM     24  C   UNL     1     -14.279  59.159  52.729  0.00  0.00    +0.000 C 
ATOM     25  C   UNL     1     -15.569  57.035  52.679  0.00  0.00    +0.000 C 
ATOM     26  C   UNL     1     -15.555  58.469  53.191  0.00  0.00    +0.000 C 
ENDBRANCH  18  21
ENDBRANCH  12  18
ENDBRANCH   1  15
BRANCH   3  27
ATOM     27  C   UNL     1      -9.550  53.062  48.864  0.00  0.00    +0.000 C 
ATOM     28  O   UNL     1     -10.253  52.246  48.277  0.00  0.00    +0.000 OA
BRANCH  27  29
ATOM     29  O   UNL     1      -8.526  53.750  48.297  0.00  0.00    +0.000 OA
BRANCH  29  30
ATOM     30  C   UNL     1      -8.584  53.948  46.883  0.00  0.00    +0.000 C 
ATOM     31  C   UNL     1      -9.315  55.234  46.572  0.00  0.00    +0.000 C 
ENDBRANCH  29  30
ENDBRANCH  27  29
ENDBRANCH   3  27
TORSDOF 6
ENDMDL
