MODEL 1
REMARK VINA RESULT:      -7.4      0.000      0.000
REMARK  Name = 
REMARK  10 active torsions:
REMARK  status: ('A' for Active; 'I' for Inactive)
REMARK    1  A    between atoms: S_1  and  N_4
REMARK    2  A    between atoms: S_1  and  C_5
REMARK    3  A    between atoms: N_10  and  C_13
REMARK    4  A    between atoms: C_14  and  C_17
REMARK    5  A    between atoms: C_16  and  C_20
REMARK    6  A    between atoms: C_20  and  O_24
REMARK    7  A    between atoms: O_24  and  C_27
REMARK    8  A    between atoms: C_25  and  C_28
REMARK    9  A    between atoms: C_25  and  C_29
REMARK   10  A    between atoms: C_27  and  C_30
REMARK                            x       y       z     vdW  Elec       q    Type
REMARK                         _______ _______ _______ _____ _____    ______ ____
ROOT
ATOM      1  N   UNL     1      -9.779  51.725  48.730  0.00  0.00    +0.000 N 
ATOM      2  C   UNL     1     -10.797  52.647  49.032  0.00  0.00    +0.000 C 
ATOM      3  O   UNL     1     -11.907  52.540  48.523  0.00  0.00    +0.000 OA
ATOM      4  N   UNL     1     -10.414  53.713  49.835  0.00  0.00    +0.000 N 
ATOM      5  H   UNL     1      -8.893  51.860  49.137  0.00  0.00    +0.000 HD
ATOM      6  H   UNL     1      -9.507  53.776  50.213  0.00  0.00    +0.000 HD
ENDROOT
BRANCH   4   7
ATOM      7  C   UNL     1     -11.381  54.692  50.079  0.00  0.00    +0.000 A 
ATOM      8  S   UNL     1     -12.070  54.702  51.643  0.00  0.00    +0.000 S 
ATOM      9  C   UNL     1     -11.871  55.704  49.277  0.00  0.00    +0.000 A 
ATOM     10  C   UNL     1     -12.868  56.189  51.348  0.00  0.00    +0.000 A 
ATOM     11  C   UNL     1     -12.665  56.635  50.053  0.00  0.00    +0.000 A 
ATOM     12  C   UNL     1     -13.705  56.915  52.386  0.00  0.00    +0.000 C 
ATOM     13  C   UNL     1     -13.298  57.896  49.539  0.00  0.00    +0.000 C 
ATOM     14  C   UNL     1     -14.657  57.962  51.717  0.00  0.00    +0.000 C 
ATOM     15  C   UNL     1     -13.867  58.766  50.656  0.00  0.00    +0.000 C 
ATOM     16  C   UNL     1     -15.208  58.978  52.736  0.00  0.00    +0.000 C 
ATOM     17  C   UNL     1     -15.868  57.249  51.075  0.00  0.00    +0.000 C 
BRANCH   9  18
ATOM     18  C   UNL     1     -11.599  55.783  47.845  0.00  0.00    +0.000 C 
ATOM     19  O   UNL     1     -12.482  55.913  46.997  0.00  0.00    +0.000 OA
BRANCH  18  20
ATOM     20  O   UNL     1     -10.273  55.700  47.568  0.00  0.00    +0.000 OA
BRANCH  20  21
ATOM     21  C   UNL     1      -9.890  54.940  46.422  0.00  0.00    +0.000 C 
ATOM     22  C   UNL     1      -8.385  54.971  46.262  0.00  0.00    +0.000 C 
ENDBRANCH  20  21
ENDBRANCH  18  20
ENDBRANCH   9  18
ENDBRANCH   4   7
BRANCH   1  23
ATOM     23  S   UNL     1      -9.996  50.410  47.714  0.00  0.00    +0.000 S 
ATOM     24  O   UNL     1     -11.352  49.909  47.828  0.00  0.00    +0.000 OA
ATOM     25  O   UNL     1      -8.877  49.530  47.986  0.00  0.00    +0.000 OA
BRANCH  23  26
ATOM     26  C   UNL     1      -9.766  51.061  46.065  0.00  0.00    +0.000 A 
ATOM     27  C   UNL     1     -10.856  51.513  45.310  0.00  0.00    +0.000 A 
ATOM     28  C   UNL     1      -8.469  51.220  45.576  0.00  0.00    +0.000 A 
ATOM     29  C   UNL     1     -10.638  52.065  44.037  0.00  0.00    +0.000 A 
ATOM     30  C   UNL     1      -8.259  51.766  44.305  0.00  0.00    +0.000 A 
ATOM     31  C   UNL     1      -9.341  52.181  43.520  0.00  0.00    +0.000 A 
ATOM     32  C   UNL     1      -9.090  52.737  42.145  0.00  0.00    +0.000 C 
ENDBRANCH  23  26
ENDBRANCH   1  23
TORSDOF 6
ENDMDL
MODEL 2
REMARK VINA RESULT:      -7.2      1.892      2.720
REMARK  Name = 
REMARK  10 active torsions:
REMARK  status: ('A' for Active; 'I' for Inactive)
REMARK    1  A    between atoms: S_1  and  N_4
REMARK    2  A    between atoms: S_1  and  C_5
REMARK    3  A    between atoms: N_10  and  C_13
REMARK    4  A    between atoms: C_14  and  C_17
REMARK    5  A    between atoms: C_16  and  C_20
REMARK    6  A    between atoms: C_20  and  O_24
REMARK    7  A    between atoms: O_24  and  C_27
REMARK    8  A    between atoms: C_25  and  C_28
REMARK    9  A    between atoms: C_25  and  C_29
REMARK   10  A    between atoms: C_27  and  C_30
REMARK                            x       y       z     vdW  Elec       q    Type
REMARK                         _______ _______ _______ _____ _____    ______ ____
ROOT
ATOM      1  N   UNL     1      -8.069  53.268  49.560  0.00  0.00    +0.000 N 
ATOM      2  C   UNL     1      -9.196  54.101  49.664  0.00  0.00    +0.000 C 
ATOM      3  O   UNL     1      -9.237  55.172  49.068  0.00  0.00    +0.000 OA
ATOM      4  N   UNL     1     -10.170  53.675  50.557  0.00  0.00    +0.000 N 
ATOM      5  H   UNL     1      -8.060  52.428  50.075  0.00  0.00    +0.000 HD
ATOM      6  H   UNL     1     -10.096  52.816  51.032  0.00  0.00    +0.000 HD
ENDROOT
BRANCH   4   7
ATOM      7  C   UNL     1     -11.261  54.528  50.747  0.00  0.00    +0.000 A 
ATOM      8  S   UNL     1     -11.407  55.236  52.295  0.00  0.00    +0.000 S 
ATOM      9  C   UNL     1     -12.251  54.943  49.878  0.00  0.00    +0.000 A 
ATOM     10  C   UNL     1     -12.661  56.277  51.767  0.00  0.00    +0.000 A 
ATOM     11  C   UNL     1     -13.008  56.039  50.448  0.00  0.00    +0.000 A 
ATOM     12  C   UNL     1     -13.315  57.322  52.653  0.00  0.00    +0.000 C 
ATOM     13  C   UNL     1     -14.113  56.794  49.768  0.00  0.00    +0.000 C 
ATOM     14  C   UNL     1     -14.693  57.781  52.068  0.00  0.00    +0.000 C 
ATOM     15  C   UNL     1     -14.543  58.034  50.548  0.00  0.00    +0.000 C 
ATOM     16  C   UNL     1     -15.180  59.099  52.700  0.00  0.00    +0.000 C 
ATOM     17  C   UNL     1     -15.772  56.710  52.342  0.00  0.00    +0.000 C 
BRANCH   9  18
ATOM     18  C   UNL     1     -12.469  54.329  48.571  0.00  0.00    +0.000 C 
ATOM     19  O   UNL     1     -12.569  53.113  48.405  0.00  0.00    +0.000 OA
BRANCH  18  20
ATOM     20  O   UNL     1     -12.547  55.250  47.578  0.00  0.00    +0.000 OA
BRANCH  20  21
ATOM     21  C   UNL     1     -11.451  55.324  46.667  0.00  0.00    +0.000 C 
ATOM     22  C   UNL     1     -11.657  54.344  45.531  0.00  0.00    +0.000 C 
ENDBRANCH  20  21
ENDBRANCH  18  20
ENDBRANCH   9  18
ENDBRANCH   4   7
BRANCH   1  23
ATOM     23  S   UNL     1      -6.738  53.628  48.607  0.00  0.00    +0.000 S 
ATOM     24  O   UNL     1      -5.673  52.676  48.856  0.00  0.00    +0.000 OA
ATOM     25  O   UNL     1      -6.500  55.043  48.803  0.00  0.00    +0.000 OA
BRANCH  23  26
ATOM     26  C   UNL     1      -7.307  53.417  46.926  0.00  0.00    +0.000 A 
ATOM     27  C   UNL     1      -7.648  52.150  46.433  0.00  0.00    +0.000 A 
ATOM     28  C   UNL     1      -7.518  54.548  46.137  0.00  0.00    +0.000 A 
ATOM     29  C   UNL     1      -8.139  52.023  45.123  0.00  0.00    +0.000 A 
ATOM     30  C   UNL     1      -8.003  54.414  44.831  0.00  0.00    +0.000 A 
ATOM     31  C   UNL     1      -8.305  53.150  44.309  0.00  0.00    +0.000 A 
ATOM     32  C   UNL     1      -8.797  53.032  42.892  0.00  0.00    +0.000 C 
ENDBRANCH  23  26
ENDBRANCH   1  23
TORSDOF 6
ENDMDL
MODEL 3
REMARK VINA RESULT:      -7.0      3.427      4.875
REMARK  Name = 
REMARK  10 active torsions:
REMARK  status: ('A' for Active; 'I' for Inactive)
REMARK    1  A    between atoms: S_1  and  N_4
REMARK    2  A    between atoms: S_1  and  C_5
REMARK    3  A    between atoms: N_10  and  C_13
REMARK    4  A    between atoms: C_14  and  C_17
REMARK    5  A    between atoms: C_16  and  C_20
REMARK    6  A    between atoms: C_20  and  O_24
REMARK    7  A    between atoms: O_24  and  C_27
REMARK    8  A    between atoms: C_25  and  C_28
REMARK    9  A    between atoms: C_25  and  C_29
REMARK   10  A    between atoms: C_27  and  C_30
REMARK                            x       y       z     vdW  Elec       q    Type
REMARK                         _______ _______ _______ _____ _____    ______ ____
ROOT
ATOM      1  N   UNL     1      -8.287  53.023  48.845  0.00  0.00    +0.000 N 
ATOM      2  C   UNL     1      -9.261  54.004  49.099  0.00  0.00    +0.000 C 
ATOM      3  O   UNL     1      -8.952  55.189  49.166  0.00  0.00    +0.000 OA
ATOM      4  N   UNL     1     -10.534  53.521  49.373  0.00  0.00    +0.000 N 
ATOM      5  H   UNL     1      -8.570  52.080  48.826  0.00  0.00    +0.000 HD
ATOM      6  H   UNL     1     -10.744  52.560  49.327  0.00  0.00    +0.000 HD
ENDROOT
BRANCH   4   7
ATOM      7  C   UNL     1     -11.503  54.469  49.717  0.00  0.00    +0.000 A 
ATOM      8  S   UNL     1     -11.880  54.596  51.378  0.00  0.00    +0.000 S 
ATOM      9  C   UNL     1     -12.205  55.371  48.943  0.00  0.00    +0.000 A 
ATOM     10  C   UNL     1     -12.820  56.004  51.120  0.00  0.00    +0.000 A 
ATOM     11  C   UNL     1     -12.899  56.332  49.776  0.00  0.00    +0.000 A 
ATOM     12  C   UNL     1     -13.492  56.784  52.236  0.00  0.00    +0.000 C 
ATOM     13  C   UNL     1     -13.704  57.502  49.290  0.00  0.00    +0.000 C 
ATOM     14  C   UNL     1     -14.624  57.711  51.679  0.00  0.00    +0.000 C 
ATOM     15  C   UNL     1     -14.108  58.447  50.419  0.00  0.00    +0.000 C 
ATOM     16  C   UNL     1     -15.039  58.792  52.696  0.00  0.00    +0.000 C 
ATOM     17  C   UNL     1     -15.883  56.877  51.351  0.00  0.00    +0.000 C 
BRANCH   9  18
ATOM     18  C   UNL     1     -12.218  55.324  47.483  0.00  0.00    +0.000 C 
ATOM     19  O   UNL     1     -12.391  56.317  46.778  0.00  0.00    +0.000 OA
BRANCH  18  20
ATOM     20  O   UNL     1     -12.016  54.069  47.008  0.00  0.00    +0.000 OA
BRANCH  20  21
ATOM     21  C   UNL     1     -11.653  53.940  45.634  0.00  0.00    +0.000 C 
ATOM     22  C   UNL     1     -10.147  53.846  45.506  0.00  0.00    +0.000 C 
ENDBRANCH  20  21
ENDBRANCH  18  20
ENDBRANCH   9  18
ENDBRANCH   4   7
BRANCH   1  23
ATOM     23  S   UNL     1      -6.671  53.375  48.573  0.00  0.00    +0.000 S 
ATOM     24  O   UNL     1      -6.550  54.578  47.774  0.00  0.00    +0.000 OA
ATOM     25  O   UNL     1      -6.086  52.135  48.103  0.00  0.00    +0.000 OA
BRANCH  23  26
ATOM     26  C   UNL     1      -5.992  53.697  50.194  0.00  0.00    +0.000 A 
ATOM     27  C   UNL     1      -6.796  53.629  51.340  0.00  0.00    +0.000 A 
ATOM     28  C   UNL     1      -4.619  53.908  50.322  0.00  0.00    +0.000 A 
ATOM     29  C   UNL     1      -6.223  53.839  52.604  0.00  0.00    +0.000 A 
ATOM     30  C   UNL     1      -4.055  54.122  51.585  0.00  0.00    +0.000 A 
ATOM     31  C   UNL     1      -4.854  54.102  52.735  0.00  0.00    +0.000 A 
ATOM     32  C   UNL     1      -4.227  54.364  54.077  0.00  0.00    +0.000 C 
ENDBRANCH  23  26
ENDBRANCH   1  23
TORSDOF 6
ENDMDL
MODEL 4
REMARK VINA RESULT:      -7.0      3.741      8.206
REMARK  Name = 
REMARK  10 active torsions:
REMARK  status: ('A' for Active; 'I' for Inactive)
REMARK    1  A    between atoms: S_1  and  N_4
REMARK    2  A    between atoms: S_1  and  C_5
REMARK    3  A    between atoms: N_10  and  C_13
REMARK    4  A    between atoms: C_14  and  C_17
REMARK    5  A    between atoms: C_16  and  C_20
REMARK    6  A    between atoms: C_20  and  O_24
REMARK    7  A    between atoms: O_24  and  C_27
REMARK    8  A    between atoms: C_25  and  C_28
REMARK    9  A    between atoms: C_25  and  C_29
REMARK   10  A    between atoms: C_27  and  C_30
REMARK                            x       y       z     vdW  Elec       q    Type
REMARK                         _______ _______ _______ _____ _____    ______ ____
ROOT
ATOM      1  N   UNL     1     -11.713  56.883  48.980  0.00  0.00    +0.000 N 
ATOM      2  C   UNL     1     -10.690  56.041  49.449  0.00  0.00    +0.000 C 
ATOM      3  O   UNL     1     -10.958  54.968  49.979  0.00  0.00    +0.000 OA
ATOM      4  N   UNL     1      -9.406  56.565  49.369  0.00  0.00    +0.000 N 
ATOM      5  H   UNL     1     -11.460  57.749  48.585  0.00  0.00    +0.000 HD
ATOM      6  H   UNL     1      -9.229  57.439  48.952  0.00  0.00    +0.000 HD
ENDROOT
BRANCH   4   7
ATOM      7  C   UNL     1      -8.379  55.787  49.910  0.00  0.00    +0.000 A 
ATOM      8  S   UNL     1      -7.985  56.086  51.546  0.00  0.00    +0.000 S 
ATOM      9  C   UNL     1      -7.625  54.768  49.361  0.00  0.00    +0.000 A 
ATOM     10  C   UNL     1      -6.960  54.715  51.613  0.00  0.00    +0.000 A 
ATOM     11  C   UNL     1      -6.868  54.079  50.386  0.00  0.00    +0.000 A 
ATOM     12  C   UNL     1      -6.235  54.267  52.870  0.00  0.00    +0.000 C 
ATOM     13  C   UNL     1      -5.994  52.876  50.178  0.00  0.00    +0.000 C 
ATOM     14  C   UNL     1      -5.049  53.303  52.528  0.00  0.00    +0.000 C 
ATOM     15  C   UNL     1      -5.525  52.256  51.492  0.00  0.00    +0.000 C 
ATOM     16  C   UNL     1      -4.562  52.525  53.765  0.00  0.00    +0.000 C 
ATOM     17  C   UNL     1      -3.847  54.106  51.984  0.00  0.00    +0.000 C 
BRANCH   9  18
ATOM     18  C   UNL     1      -7.624  54.464  47.933  0.00  0.00    +0.000 C 
ATOM     19  O   UNL     1      -6.627  54.575  47.220  0.00  0.00    +0.000 OA
BRANCH  18  20
ATOM     20  O   UNL     1      -8.839  54.048  47.495  0.00  0.00    +0.000 OA
BRANCH  20  21
ATOM     21  C   UNL     1      -9.318  54.602  46.270  0.00  0.00    +0.000 C 
ATOM     22  C   UNL     1     -10.808  54.362  46.143  0.00  0.00    +0.000 C 
ENDBRANCH  20  21
ENDBRANCH  18  20
ENDBRANCH   9  18
ENDBRANCH   4   7
BRANCH   1  23
ATOM     23  S   UNL     1     -13.341  56.490  49.056  0.00  0.00    +0.000 S 
ATOM     24  O   UNL     1     -13.500  55.078  49.343  0.00  0.00    +0.000 OA
ATOM     25  O   UNL     1     -13.925  57.052  47.855  0.00  0.00    +0.000 OA
BRANCH  23  26
ATOM     26  C   UNL     1     -13.975  57.427  50.439  0.00  0.00    +0.000 A 
ATOM     27  C   UNL     1     -14.527  58.702  50.254  0.00  0.00    +0.000 A 
ATOM     28  C   UNL     1     -14.021  56.828  51.698  0.00  0.00    +0.000 A 
ATOM     29  C   UNL     1     -15.062  59.394  51.353  0.00  0.00    +0.000 A 
ATOM     30  C   UNL     1     -14.551  57.524  52.790  0.00  0.00    +0.000 A 
ATOM     31  C   UNL     1     -15.064  58.817  52.630  0.00  0.00    +0.000 A 
ATOM     32  C   UNL     1     -15.601  59.555  53.825  0.00  0.00    +0.000 C 
ENDBRANCH  23  26
ENDBRANCH   1  23
TORSDOF 6
ENDMDL
MODEL 5
REMARK VINA RESULT:      -7.0      3.735      5.592
REMARK  Name = 
REMARK  10 active torsions:
REMARK  status: ('A' for Active; 'I' for Inactive)
REMARK    1  A    between atoms: S_1  and  N_4
REMARK    2  A    between atoms: S_1  and  C_5
REMARK    3  A    between atoms: N_10  and  C_13
REMARK    4  A    between atoms: C_14  and  C_17
REMARK    5  A    between atoms: C_16  and  C_20
REMARK    6  A    between atoms: C_20  and  O_24
REMARK    7  A    between atoms: O_24  and  C_27
REMARK    8  A    between atoms: C_25  and  C_28
REMARK    9  A    between atoms: C_25  and  C_29
REMARK   10  A    between atoms: C_27  and  C_30
REMARK                            x       y       z     vdW  Elec       q    Type
REMARK                         _______ _______ _______ _____ _____    ______ ____
ROOT
ATOM      1  N   UNL     1      -8.067  52.977  50.378  0.00  0.00    +0.000 N 
ATOM      2  C   UNL     1      -9.037  53.977  50.564  0.00  0.00    +0.000 C 
ATOM      3  O   UNL     1      -8.883  54.845  51.417  0.00  0.00    +0.000 OA
ATOM      4  N   UNL     1     -10.192  53.833  49.807  0.00  0.00    +0.000 N 
ATOM      5  H   UNL     1      -8.238  52.281  49.703  0.00  0.00    +0.000 HD
ATOM      6  H   UNL     1     -10.289  53.112  49.143  0.00  0.00    +0.000 HD
ENDROOT
BRANCH   4   7
ATOM      7  C   UNL     1     -11.211  54.763  50.036  0.00  0.00    +0.000 A 
ATOM      8  S   UNL     1     -11.893  54.766  51.603  0.00  0.00    +0.000 S 
ATOM      9  C   UNL     1     -11.758  55.730  49.216  0.00  0.00    +0.000 A 
ATOM     10  C   UNL     1     -12.772  56.202  51.282  0.00  0.00    +0.000 A 
ATOM     11  C   UNL     1     -12.598  56.632  49.977  0.00  0.00    +0.000 A 
ATOM     12  C   UNL     1     -13.643  56.901  52.310  0.00  0.00    +0.000 C 
ATOM     13  C   UNL     1     -13.302  57.845  49.441  0.00  0.00    +0.000 C 
ATOM     14  C   UNL     1     -14.654  57.881  51.624  0.00  0.00    +0.000 C 
ATOM     15  C   UNL     1     -13.913  58.706  50.544  0.00  0.00    +0.000 C 
ATOM     16  C   UNL     1     -15.255  58.886  52.626  0.00  0.00    +0.000 C 
ATOM     17  C   UNL     1     -15.826  57.090  51.003  0.00  0.00    +0.000 C 
BRANCH   9  18
ATOM     18  C   UNL     1     -11.497  55.795  47.781  0.00  0.00    +0.000 C 
ATOM     19  O   UNL     1     -12.382  55.950  46.941  0.00  0.00    +0.000 OA
BRANCH  18  20
ATOM     20  O   UNL     1     -10.177  55.666  47.493  0.00  0.00    +0.000 OA
BRANCH  20  21
ATOM     21  C   UNL     1      -9.822  54.782  46.431  0.00  0.00    +0.000 C 
ATOM     22  C   UNL     1      -8.361  54.961  46.077  0.00  0.00    +0.000 C 
ENDBRANCH  20  21
ENDBRANCH  18  20
ENDBRANCH   9  18
ENDBRANCH   4   7
BRANCH   1  23
ATOM     23  S   UNL     1      -6.635  52.906  51.245  0.00  0.00    +0.000 S 
ATOM     24  O   UNL     1      -6.171  54.245  51.554  0.00  0.00    +0.000 OA
ATOM     25  O   UNL     1      -5.782  52.002  50.501  0.00  0.00    +0.000 OA
BRANCH  23  26
ATOM     26  C   UNL     1      -7.064  52.087  52.775  0.00  0.00    +0.000 A 
ATOM     27  C   UNL     1      -6.290  52.264  53.930  0.00  0.00    +0.000 A 
ATOM     28  C   UNL     1      -8.248  51.353  52.839  0.00  0.00    +0.000 A 
ATOM     29  C   UNL     1      -6.681  51.646  55.129  0.00  0.00    +0.000 A 
ATOM     30  C   UNL     1      -8.629  50.735  54.036  0.00  0.00    +0.000 A 
ATOM     31  C   UNL     1      -7.843  50.866  55.187  0.00  0.00    +0.000 A 
ATOM     32  C   UNL     1      -8.259  50.168  56.453  0.00  0.00    +0.000 C 
ENDBRANCH  23  26
ENDBRANCH   1  23
TORSDOF 6
ENDMDL
MODEL 6
REMARK VINA RESULT:      -6.9      3.750      7.639
REMARK  Name = 
REMARK  10 active torsions:
REMARK  status: ('A' for Active; 'I' for Inactive)
REMARK    1  A    between atoms: S_1  and  N_4
REMARK    2  A    between atoms: S_1  and  C_5
REMARK    3  A    between atoms: N_10  and  C_13
REMARK    4  A    between atoms: C_14  and  C_17
REMARK    5  A    between atoms: C_16  and  C_20
REMARK    6  A    between atoms: C_20  and  O_24
REMARK    7  A    between atoms: O_24  and  C_27
REMARK    8  A    between atoms: C_25  and  C_28
REMARK    9  A    between atoms: C_25  and  C_29
REMARK   10  A    between atoms: C_27  and  C_30
REMARK                            x       y       z     vdW  Elec       q    Type
REMARK                         _______ _______ _______ _____ _____    ______ ____
ROOT
ATOM      1  N   UNL     1     -14.432  55.036  51.212  0.00  0.00    +0.000 N 
ATOM      2  C   UNL     1     -13.095  55.167  51.623  0.00  0.00    +0.000 C 
ATOM      3  O   UNL     1     -12.687  56.222  52.096  0.00  0.00    +0.000 OA
ATOM      4  N   UNL     1     -12.279  54.077  51.348  0.00  0.00    +0.000 N 
ATOM      5  H   UNL     1     -14.716  54.182  50.811  0.00  0.00    +0.000 HD
ATOM      6  H   UNL     1     -12.637  53.250  50.950  0.00  0.00    +0.000 HD
ENDROOT
BRANCH   4   7
ATOM      7  C   UNL     1     -10.924  54.213  51.665  0.00  0.00    +0.000 A 
ATOM      8  S   UNL     1     -10.430  53.566  53.167  0.00  0.00    +0.000 S 
ATOM      9  C   UNL     1      -9.876  54.758  50.950  0.00  0.00    +0.000 A 
ATOM     10  C   UNL     1      -8.775  53.803  52.793  0.00  0.00    +0.000 A 
ATOM     11  C   UNL     1      -8.607  54.428  51.569  0.00  0.00    +0.000 A 
ATOM     12  C   UNL     1      -7.638  53.385  53.708  0.00  0.00    +0.000 C 
ATOM     13  C   UNL     1      -7.249  54.786  51.039  0.00  0.00    +0.000 C 
ATOM     14  C   UNL     1      -6.308  54.124  53.335  0.00  0.00    +0.000 C 
ATOM     15  C   UNL     1      -6.120  54.094  51.799  0.00  0.00    +0.000 C 
ATOM     16  C   UNL     1      -5.074  53.442  53.956  0.00  0.00    +0.000 C 
ATOM     17  C   UNL     1      -6.343  55.579  53.856  0.00  0.00    +0.000 C 
BRANCH   9  18
ATOM     18  C   UNL     1     -10.067  55.553  49.741  0.00  0.00    +0.000 C 
ATOM     19  O   UNL     1      -9.645  56.702  49.615  0.00  0.00    +0.000 OA
BRANCH  18  20
ATOM     20  O   UNL     1     -10.758  54.878  48.787  0.00  0.00    +0.000 OA
BRANCH  20  21
ATOM     21  C   UNL     1     -11.745  55.605  48.057  0.00  0.00    +0.000 C 
ATOM     22  C   UNL     1     -11.508  55.446  46.570  0.00  0.00    +0.000 C 
ENDBRANCH  20  21
ENDBRANCH  18  20
ENDBRANCH   9  18
ENDBRANCH   4   7
BRANCH   1  23
ATOM     23  S   UNL     1     -15.570  56.256  51.368  0.00  0.00    +0.000 S 
ATOM     24  O   UNL     1     -15.869  56.484  52.768  0.00  0.00    +0.000 OA
ATOM     25  O   UNL     1     -16.636  55.904  50.452  0.00  0.00    +0.000 OA
BRANCH  23  26
ATOM     26  C   UNL     1     -14.772  57.715  50.712  0.00  0.00    +0.000 A 
ATOM     27  C   UNL     1     -14.343  57.764  49.379  0.00  0.00    +0.000 A 
ATOM     28  C   UNL     1     -14.682  58.854  51.512  0.00  0.00    +0.000 A 
ATOM     29  C   UNL     1     -13.764  58.942  48.878  0.00  0.00    +0.000 A 
ATOM     30  C   UNL     1     -14.099  60.023  51.009  0.00  0.00    +0.000 A 
ATOM     31  C   UNL     1     -13.624  60.073  49.693  0.00  0.00    +0.000 A 
ATOM     32  C   UNL     1     -12.975  61.331  49.186  0.00  0.00    +0.000 C 
ENDBRANCH  23  26
ENDBRANCH   1  23
TORSDOF 6
ENDMDL
MODEL 7
REMARK VINA RESULT:      -6.8      3.903      7.669
REMARK  Name = 
REMARK  10 active torsions:
REMARK  status: ('A' for Active; 'I' for Inactive)
REMARK    1  A    between atoms: S_1  and  N_4
REMARK    2  A    between atoms: S_1  and  C_5
REMARK    3  A    between atoms: N_10  and  C_13
REMARK    4  A    between atoms: C_14  and  C_17
REMARK    5  A    between atoms: C_16  and  C_20
REMARK    6  A    between atoms: C_20  and  O_24
REMARK    7  A    between atoms: O_24  and  C_27
REMARK    8  A    between atoms: C_25  and  C_28
REMARK    9  A    between atoms: C_25  and  C_29
REMARK   10  A    between atoms: C_27  and  C_30
REMARK                            x       y       z     vdW  Elec       q    Type
REMARK                         _______ _______ _______ _____ _____    ______ ____
ROOT
ATOM      1  N   UNL     1      -7.866  55.947  50.631  0.00  0.00    +0.000 N 
ATOM      2  C   UNL     1      -8.367  55.161  49.580  0.00  0.00    +0.000 C 
ATOM      3  O   UNL     1      -8.682  53.991  49.770  0.00  0.00    +0.000 OA
ATOM      4  N   UNL     1      -8.366  55.768  48.331  0.00  0.00    +0.000 N 
ATOM      5  H   UNL     1      -7.598  56.874  50.433  0.00  0.00    +0.000 HD
ATOM      6  H   UNL     1      -8.090  56.705  48.211  0.00  0.00    +0.000 HD
ENDROOT
BRANCH   4   7
ATOM      7  C   UNL     1      -8.776  54.980  47.252  0.00  0.00    +0.000 A 
ATOM      8  S   UNL     1      -7.548  54.117  46.435  0.00  0.00    +0.000 S 
ATOM      9  C   UNL     1     -10.032  54.735  46.732  0.00  0.00    +0.000 A 
ATOM     10  C   UNL     1      -8.693  53.233  45.518  0.00  0.00    +0.000 A 
ATOM     11  C   UNL     1      -9.990  53.639  45.784  0.00  0.00    +0.000 A 
ATOM     12  C   UNL     1      -8.319  52.146  44.526  0.00  0.00    +0.000 C 
ATOM     13  C   UNL     1     -11.171  53.045  45.072  0.00  0.00    +0.000 C 
ATOM     14  C   UNL     1      -9.494  51.855  43.533  0.00  0.00    +0.000 C 
ATOM     15  C   UNL     1     -10.821  51.760  44.325  0.00  0.00    +0.000 C 
ATOM     16  C   UNL     1      -9.310  50.514  42.797  0.00  0.00    +0.000 C 
ATOM     17  C   UNL     1      -9.573  52.964  42.460  0.00  0.00    +0.000 C 
BRANCH   9  18
ATOM     18  C   UNL     1     -11.213  55.503  47.114  0.00  0.00    +0.000 C 
ATOM     19  O   UNL     1     -11.867  56.177  46.319  0.00  0.00    +0.000 OA
BRANCH  18  20
ATOM     20  O   UNL     1     -11.497  55.383  48.436  0.00  0.00    +0.000 OA
BRANCH  20  21
ATOM     21  C   UNL     1     -12.160  54.192  48.858  0.00  0.00    +0.000 C 
ATOM     22  C   UNL     1     -12.107  54.078  50.366  0.00  0.00    +0.000 C 
ENDBRANCH  20  21
ENDBRANCH  18  20
ENDBRANCH   9  18
ENDBRANCH   4   7
BRANCH   1  23
ATOM     23  S   UNL     1      -7.698  55.391  52.203  0.00  0.00    +0.000 S 
ATOM     24  O   UNL     1      -8.970  54.899  52.696  0.00  0.00    +0.000 OA
ATOM     25  O   UNL     1      -7.011  56.451  52.912  0.00  0.00    +0.000 OA
BRANCH  23  26
ATOM     26  C   UNL     1      -6.563  54.015  52.085  0.00  0.00    +0.000 A 
ATOM     27  C   UNL     1      -5.290  54.176  51.522  0.00  0.00    +0.000 A 
ATOM     28  C   UNL     1      -6.916  52.796  52.664  0.00  0.00    +0.000 A 
ATOM     29  C   UNL     1      -4.403  53.089  51.488  0.00  0.00    +0.000 A 
ATOM     30  C   UNL     1      -6.029  51.714  52.622  0.00  0.00    +0.000 A 
ATOM     31  C   UNL     1      -4.770  51.847  52.023  0.00  0.00    +0.000 A 
ATOM     32  C   UNL     1      -3.847  50.662  51.965  0.00  0.00    +0.000 C 
ENDBRANCH  23  26
ENDBRANCH   1  23
TORSDOF 6
ENDMDL
MODEL 8
REMARK VINA RESULT:      -6.5      3.706      8.149
REMARK  Name = 
REMARK  10 active torsions:
REMARK  status: ('A' for Active; 'I' for Inactive)
REMARK    1  A    between atoms: S_1  and  N_4
REMARK    2  A    between atoms: S_1  and  C_5
REMARK    3  A    between atoms: N_10  and  C_13
REMARK    4  A    between atoms: C_14  and  C_17
REMARK    5  A    between atoms: C_16  and  C_20
REMARK    6  A    between atoms: C_20  and  O_24
REMARK    7  A    between atoms: O_24  and  C_27
REMARK    8  A    between atoms: C_25  and  C_28
REMARK    9  A    between atoms: C_25  and  C_29
REMARK   10  A    between atoms: C_27  and  C_30
REMARK                            x       y       z     vdW  Elec       q    Type
REMARK                         _______ _______ _______ _____ _____    ______ ____
ROOT
ATOM      1  N   UNL     1     -13.020  55.258  49.496  0.00  0.00    +0.000 N 
ATOM      2  C   UNL     1     -11.910  54.996  50.317  0.00  0.00    +0.000 C 
ATOM      3  O   UNL     1     -11.214  55.913  50.738  0.00  0.00    +0.000 OA
ATOM      4  N   UNL     1     -11.614  53.652  50.505  0.00  0.00    +0.000 N 
ATOM      5  H   UNL     1     -13.538  54.494  49.154  0.00  0.00    +0.000 HD
ATOM      6  H   UNL     1     -12.187  52.940  50.137  0.00  0.00    +0.000 HD
ENDROOT
BRANCH   4   7
ATOM      7  C   UNL     1     -10.464  53.361  51.244  0.00  0.00    +0.000 A 
ATOM      8  S   UNL     1     -10.692  53.057  52.910  0.00  0.00    +0.000 S 
ATOM      9  C   UNL     1      -9.144  53.236  50.858  0.00  0.00    +0.000 A 
ATOM     10  C   UNL     1      -9.070  52.537  53.099  0.00  0.00    +0.000 A 
ATOM     11  C   UNL     1      -8.350  52.659  51.923  0.00  0.00    +0.000 A 
ATOM     12  C   UNL     1      -8.500  52.019  54.407  0.00  0.00    +0.000 C 
ATOM     13  C   UNL     1      -6.892  52.309  51.845  0.00  0.00    +0.000 C 
ATOM     14  C   UNL     1      -6.935  52.062  54.401  0.00  0.00    +0.000 C 
ATOM     15  C   UNL     1      -6.414  51.507  53.053  0.00  0.00    +0.000 C 
ATOM     16  C   UNL     1      -6.327  51.188  55.515  0.00  0.00    +0.000 C 
ATOM     17  C   UNL     1      -6.440  53.508  54.627  0.00  0.00    +0.000 C 
BRANCH   9  18
ATOM     18  C   UNL     1      -8.660  53.646  49.542  0.00  0.00    +0.000 C 
ATOM     19  O   UNL     1      -9.141  53.232  48.488  0.00  0.00    +0.000 OA
BRANCH  18  20
ATOM     20  O   UNL     1      -7.631  54.527  49.625  0.00  0.00    +0.000 OA
BRANCH  20  21
ATOM     21  C   UNL     1      -7.943  55.912  49.480  0.00  0.00    +0.000 C 
ATOM     22  C   UNL     1      -7.599  56.654  50.753  0.00  0.00    +0.000 C 
ENDBRANCH  20  21
ENDBRANCH  18  20
ENDBRANCH   9  18
ENDBRANCH   4   7
BRANCH   1  23
ATOM     23  S   UNL     1     -13.507  56.804  49.067  0.00  0.00    +0.000 S 
ATOM     24  O   UNL     1     -14.538  56.738  48.051  0.00  0.00    +0.000 OA
ATOM     25  O   UNL     1     -12.281  57.531  48.806  0.00  0.00    +0.000 OA
BRANCH  23  26
ATOM     26  C   UNL     1     -14.218  57.490  50.556  0.00  0.00    +0.000 A 
ATOM     27  C   UNL     1     -14.528  56.672  51.652  0.00  0.00    +0.000 A 
ATOM     28  C   UNL     1     -14.360  58.874  50.663  0.00  0.00    +0.000 A 
ATOM     29  C   UNL     1     -15.040  57.248  52.826  0.00  0.00    +0.000 A 
ATOM     30  C   UNL     1     -14.876  59.441  51.834  0.00  0.00    +0.000 A 
ATOM     31  C   UNL     1     -15.232  58.632  52.920  0.00  0.00    +0.000 A 
ATOM     32  C   UNL     1     -15.812  59.264  54.155  0.00  0.00    +0.000 C 
ENDBRANCH  23  26
ENDBRANCH   1  23
TORSDOF 6
ENDMDL
MODEL 9
REMARK VINA RESULT:      -6.5      2.412      3.378
REMARK  Name = 
REMARK  10 active torsions:
REMARK  status: ('A' for Active; 'I' for Inactive)
REMARK    1  A    between atoms: S_1  and  N_4
REMARK    2  A    between atoms: S_1  and  C_5
REMARK    3  A    between atoms: N_10  and  C_13
REMARK    4  A    between atoms: C_14  and  C_17
REMARK    5  A    between atoms: C_16  and  C_20
REMARK    6  A    between atoms: C_20  and  O_24
REMARK    7  A    between atoms: O_24  and  C_27
REMARK    8  A    between atoms: C_25  and  C_28
REMARK    9  A    between atoms: C_25  and  C_29
REMARK   10  A    between atoms: C_27  and  C_30
REMARK                            x       y       z     vdW  Elec       q    Type
REMARK                         _______ _______ _______ _____ _____    ______ ____
ROOT
ATOM      1  N   UNL     1     -10.828  53.971  45.007  0.00  0.00    +0.000 N 
ATOM      2  C   UNL     1     -11.304  54.324  46.282  0.00  0.00    +0.000 C 
ATOM      3  O   UNL     1     -11.720  53.466  47.052  0.00  0.00    +0.000 OA
ATOM      4  N   UNL     1     -11.366  55.688  46.537  0.00  0.00    +0.000 N 
ATOM      5  H   UNL     1     -10.527  54.691  44.406  0.00  0.00    +0.000 HD
ATOM      6  H   UNL     1     -11.038  56.351  45.886  0.00  0.00    +0.000 HD
ENDROOT
BRANCH   4   7
ATOM      7  C   UNL     1     -11.919  56.071  47.762  0.00  0.00    +0.000 A 
ATOM      8  S   UNL     1     -13.576  56.485  47.748  0.00  0.00    +0.000 S 
ATOM      9  C   UNL     1     -11.364  56.144  49.025  0.00  0.00    +0.000 A 
ATOM     10  C   UNL     1     -13.636  56.555  49.459  0.00  0.00    +0.000 A 
ATOM     11  C   UNL     1     -12.393  56.331  50.027  0.00  0.00    +0.000 A 
ATOM     12  C   UNL     1     -14.903  56.840  50.245  0.00  0.00    +0.000 C 
ATOM     13  C   UNL     1     -12.178  56.384  51.512  0.00  0.00    +0.000 C 
ATOM     14  C   UNL     1     -14.573  57.291  51.708  0.00  0.00    +0.000 C 
ATOM     15  C   UNL     1     -13.487  56.358  52.297  0.00  0.00    +0.000 C 
ATOM     16  C   UNL     1     -15.801  57.195  52.634  0.00  0.00    +0.000 C 
ATOM     17  C   UNL     1     -14.099  58.761  51.720  0.00  0.00    +0.000 C 
BRANCH   9  18
ATOM     18  C   UNL     1      -9.928  56.043  49.268  0.00  0.00    +0.000 C 
ATOM     19  O   UNL     1      -9.234  56.996  49.619  0.00  0.00    +0.000 OA
BRANCH  18  20
ATOM     20  O   UNL     1      -9.460  54.785  49.063  0.00  0.00    +0.000 OA
BRANCH  20  21
ATOM     21  C   UNL     1      -9.637  53.842  50.119  0.00  0.00    +0.000 C 
ATOM     22  C   UNL     1      -9.432  52.436  49.594  0.00  0.00    +0.000 C 
ENDBRANCH  20  21
ENDBRANCH  18  20
ENDBRANCH   9  18
ENDBRANCH   4   7
BRANCH   1  23
ATOM     23  S   UNL     1     -10.746  52.390  44.457  0.00  0.00    +0.000 S 
ATOM     24  O   UNL     1     -10.223  52.359  43.105  0.00  0.00    +0.000 OA
ATOM     25  O   UNL     1     -12.047  51.819  44.741  0.00  0.00    +0.000 OA
BRANCH  23  26
ATOM     26  C   UNL     1      -9.571  51.588  45.539  0.00  0.00    +0.000 A 
ATOM     27  C   UNL     1      -9.888  50.384  46.182  0.00  0.00    +0.000 A 
ATOM     28  C   UNL     1      -8.284  52.115  45.650  0.00  0.00    +0.000 A 
ATOM     29  C   UNL     1      -8.927  49.752  46.987  0.00  0.00    +0.000 A 
ATOM     30  C   UNL     1      -7.332  51.483  46.458  0.00  0.00    +0.000 A 
ATOM     31  C   UNL     1      -7.649  50.304  47.143  0.00  0.00    +0.000 A 
ATOM     32  C   UNL     1      -6.617  49.661  48.028  0.00  0.00    +0.000 C 
ENDBRANCH  23  26
ENDBRANCH   1  23
TORSDOF 6
ENDMDL
