MODEL 1
REMARK VINA RESULT:      -7.9      0.000      0.000
REMARK  Name = 
REMARK  9 active torsions:
REMARK  status: ('A' for Active; 'I' for Inactive)
REMARK    1  A    between atoms: S_1  and  N_4
REMARK    2  A    between atoms: S_1  and  C_5
REMARK    3  A    between atoms: N_10  and  C_13
REMARK    4  A    between atoms: C_16  and  C_19
REMARK    5  A    between atoms: C_19  and  O_23
REMARK    6  A    between atoms: O_23  and  C_26
REMARK    7  A    between atoms: C_24  and  C_27
REMARK    8  A    between atoms: C_24  and  C_28
REMARK    9  A    between atoms: C_26  and  C_29
REMARK                            x       y       z     vdW  Elec       q    Type
REMARK                         _______ _______ _______ _____ _____    ______ ____
ROOT
ATOM      1  C   UNL     1     -10.965  54.424  51.631  0.00  0.00    +0.000 A 
ATOM      2  S   UNL     1     -10.528  53.746  53.126  0.00  0.00    +0.000 S 
ATOM      3  C   UNL     1      -9.892  54.927  50.919  0.00  0.00    +0.000 A 
ATOM      4  C   UNL     1      -8.869  53.867  52.746  0.00  0.00    +0.000 A 
ATOM      5  C   UNL     1      -8.653  54.515  51.540  0.00  0.00    +0.000 A 
ATOM      6  C   UNL     1      -7.785  53.315  53.640  0.00  0.00    +0.000 C 
ATOM      7  C   UNL     1      -7.267  54.787  51.029  0.00  0.00    +0.000 C 
ATOM      8  C   UNL     1      -6.403  53.956  53.309  0.00  0.00    +0.000 C 
ATOM      9  C   UNL     1      -6.200  53.981  51.773  0.00  0.00    +0.000 C 
ATOM     10  C   UNL     1      -5.259  53.126  53.920  0.00  0.00    +0.000 C 
ATOM     11  C   UNL     1      -6.325  55.380  53.897  0.00  0.00    +0.000 C 
ENDROOT
BRANCH   1  15
ATOM     12  N   UNL     1     -14.438  55.250  51.210  0.00  0.00    +0.000 N 
ATOM     13  C   UNL     1     -13.119  55.410  51.621  0.00  0.00    +0.000 C 
ATOM     14  O   UNL     1     -12.727  56.446  52.129  0.00  0.00    +0.000 OA
ATOM     15  N   UNL     1     -12.309  54.332  51.312  0.00  0.00    +0.000 N 
ATOM     16  H   UNL     1     -14.696  54.388  50.808  0.00  0.00    +0.000 HD
ATOM     17  H   UNL     1     -12.676  53.528  50.880  0.00  0.00    +0.000 HD
BRANCH  12  18
ATOM     18  S   UNL     1     -15.609  56.427  51.354  0.00  0.00    +0.000 S 
ATOM     19  O   UNL     1     -15.764  56.834  52.732  0.00  0.00    +0.000 OA
ATOM     20  O   UNL     1     -16.744  55.921  50.605  0.00  0.00    +0.000 OA
BRANCH  18  21
ATOM     21  C   UNL     1     -14.933  57.792  50.426  0.00  0.00    +0.000 A 
ATOM     22  C   UNL     1     -14.358  57.562  49.172  0.00  0.00    +0.000 A 
ATOM     23  C   UNL     1     -15.058  59.096  50.917  0.00  0.00    +0.000 A 
ATOM     24  C   UNL     1     -13.887  58.644  48.423  0.00  0.00    +0.000 A 
ATOM     25  C   UNL     1     -14.581  60.169  50.162  0.00  0.00    +0.000 A 
ATOM     26  C   UNL     1     -13.996  59.941  48.917  0.00  0.00    +0.000 A 
ENDBRANCH  18  21
ENDBRANCH  12  18
ENDBRANCH   1  15
BRANCH   3  27
ATOM     27  C   UNL     1     -10.056  55.743  49.712  0.00  0.00    +0.000 C 
ATOM     28  O   UNL     1      -9.514  56.832  49.563  0.00  0.00    +0.000 OA
BRANCH  27  29
ATOM     29  O   UNL     1     -10.863  55.150  48.793  0.00  0.00    +0.000 OA
BRANCH  29  30
ATOM     30  C   UNL     1     -10.575  55.397  47.414  0.00  0.00    +0.000 C 
ATOM     31  C   UNL     1     -11.859  55.714  46.677  0.00  0.00    +0.000 C 
ENDBRANCH  29  30
ENDBRANCH  27  29
ENDBRANCH   3  27
TORSDOF 6
ENDMDL
MODEL 2
REMARK VINA RESULT:      -7.5      2.619      7.712
REMARK  Name = 
REMARK  9 active torsions:
REMARK  status: ('A' for Active; 'I' for Inactive)
REMARK    1  A    between atoms: S_1  and  N_4
REMARK    2  A    between atoms: S_1  and  C_5
REMARK    3  A    between atoms: N_10  and  C_13
REMARK    4  A    between atoms: C_16  and  C_19
REMARK    5  A    between atoms: C_19  and  O_23
REMARK    6  A    between atoms: O_23  and  C_26
REMARK    7  A    between atoms: C_24  and  C_27
REMARK    8  A    between atoms: C_24  and  C_28
REMARK    9  A    between atoms: C_26  and  C_29
REMARK                            x       y       z     vdW  Elec       q    Type
REMARK                         _______ _______ _______ _____ _____    ______ ____
ROOT
ATOM      1  C   UNL     1     -11.122  54.798  50.072  0.00  0.00    +0.000 A 
ATOM      2  S   UNL     1     -11.748  54.798  51.652  0.00  0.00    +0.000 S 
ATOM      3  C   UNL     1     -11.757  55.690  49.228  0.00  0.00    +0.000 A 
ATOM      4  C   UNL     1     -12.703  56.172  51.321  0.00  0.00    +0.000 A 
ATOM      5  C   UNL     1     -12.626  56.558  49.992  0.00  0.00    +0.000 A 
ATOM      6  C   UNL     1     -13.524  56.868  52.380  0.00  0.00    +0.000 C 
ATOM      7  C   UNL     1     -13.428  57.709  49.458  0.00  0.00    +0.000 C 
ATOM      8  C   UNL     1     -14.628  57.762  51.737  0.00  0.00    +0.000 C 
ATOM      9  C   UNL     1     -14.016  58.580  50.571  0.00  0.00    +0.000 C 
ATOM     10  C   UNL     1     -15.186  58.761  52.767  0.00  0.00    +0.000 C 
ATOM     11  C   UNL     1     -15.796  56.887  51.241  0.00  0.00    +0.000 C 
ENDROOT
BRANCH   1  15
ATOM     12  N   UNL     1      -7.772  53.498  50.009  0.00  0.00    +0.000 N 
ATOM     13  C   UNL     1      -8.785  54.431  50.197  0.00  0.00    +0.000 C 
ATOM     14  O   UNL     1      -8.566  55.526  50.685  0.00  0.00    +0.000 OA
ATOM     15  N   UNL     1     -10.042  53.958  49.865  0.00  0.00    +0.000 N 
ATOM     16  H   UNL     1      -8.010  52.631  49.606  0.00  0.00    +0.000 HD
ATOM     17  H   UNL     1     -10.163  53.055  49.494  0.00  0.00    +0.000 HD
BRANCH  12  18
ATOM     18  S   UNL     1      -6.178  53.755  50.424  0.00  0.00    +0.000 S 
ATOM     19  O   UNL     1      -5.726  55.047  49.959  0.00  0.00    +0.000 OA
ATOM     20  O   UNL     1      -5.486  52.546  50.021  0.00  0.00    +0.000 OA
BRANCH  18  21
ATOM     21  C   UNL     1      -6.218  53.769  52.207  0.00  0.00    +0.000 A 
ATOM     22  C   UNL     1      -6.555  52.604  52.903  0.00  0.00    +0.000 A 
ATOM     23  C   UNL     1      -5.828  54.919  52.902  0.00  0.00    +0.000 A 
ATOM     24  C   UNL     1      -6.523  52.604  54.301  0.00  0.00    +0.000 A 
ATOM     25  C   UNL     1      -5.802  54.909  54.298  0.00  0.00    +0.000 A 
ATOM     26  C   UNL     1      -6.150  53.753  54.995  0.00  0.00    +0.000 A 
ENDBRANCH  18  21
ENDBRANCH  12  18
ENDBRANCH   1  15
BRANCH   3  27
ATOM     27  C   UNL     1     -11.531  55.707  47.780  0.00  0.00    +0.000 C 
ATOM     28  O   UNL     1     -12.443  55.707  46.960  0.00  0.00    +0.000 OA
BRANCH  27  29
ATOM     29  O   UNL     1     -10.210  55.729  47.463  0.00  0.00    +0.000 OA
BRANCH  29  30
ATOM     30  C   UNL     1      -9.769  54.834  46.438  0.00  0.00    +0.000 C 
ATOM     31  C   UNL     1      -8.262  54.913  46.310  0.00  0.00    +0.000 C 
ENDBRANCH  29  30
ENDBRANCH  27  29
ENDBRANCH   3  27
TORSDOF 6
ENDMDL
MODEL 3
REMARK VINA RESULT:      -7.1      2.574      3.919
REMARK  Name = 
REMARK  9 active torsions:
REMARK  status: ('A' for Active; 'I' for Inactive)
REMARK    1  A    between atoms: S_1  and  N_4
REMARK    2  A    between atoms: S_1  and  C_5
REMARK    3  A    between atoms: N_10  and  C_13
REMARK    4  A    between atoms: C_16  and  C_19
REMARK    5  A    between atoms: C_19  and  O_23
REMARK    6  A    between atoms: O_23  and  C_26
REMARK    7  A    between atoms: C_24  and  C_27
REMARK    8  A    between atoms: C_24  and  C_28
REMARK    9  A    between atoms: C_26  and  C_29
REMARK                            x       y       z     vdW  Elec       q    Type
REMARK                         _______ _______ _______ _____ _____    ______ ____
ROOT
ATOM      1  C   UNL     1     -11.412  53.416  49.971  0.00  0.00    +0.000 A 
ATOM      2  S   UNL     1     -10.976  54.008  48.439  0.00  0.00    +0.000 S 
ATOM      3  C   UNL     1     -10.419  52.669  50.577  0.00  0.00    +0.000 A 
ATOM      4  C   UNL     1      -9.360  53.506  48.657  0.00  0.00    +0.000 A 
ATOM      5  C   UNL     1      -9.183  52.801  49.836  0.00  0.00    +0.000 A 
ATOM      6  C   UNL     1      -8.270  53.816  47.659  0.00  0.00    +0.000 C 
ATOM      7  C   UNL     1      -7.854  52.212  50.211  0.00  0.00    +0.000 C 
ATOM      8  C   UNL     1      -7.044  52.871  47.855  0.00  0.00    +0.000 C 
ATOM      9  C   UNL     1      -6.707  52.770  49.365  0.00  0.00    +0.000 C 
ATOM     10  C   UNL     1      -5.806  53.433  47.135  0.00  0.00    +0.000 C 
ATOM     11  C   UNL     1      -7.349  51.480  47.266  0.00  0.00    +0.000 C 
ENDROOT
BRANCH   1  15
ATOM     12  N   UNL     1     -14.070  55.361  51.410  0.00  0.00    +0.000 N 
ATOM     13  C   UNL     1     -12.769  55.033  51.047  0.00  0.00    +0.000 C 
ATOM     14  O   UNL     1     -11.844  55.810  51.206  0.00  0.00    +0.000 OA
ATOM     15  N   UNL     1     -12.663  53.804  50.420  0.00  0.00    +0.000 N 
ATOM     16  H   UNL     1     -14.776  54.690  51.259  0.00  0.00    +0.000 HD
ATOM     17  H   UNL     1     -13.449  53.226  50.298  0.00  0.00    +0.000 HD
BRANCH  12  18
ATOM     18  S   UNL     1     -14.511  56.821  52.083  0.00  0.00    +0.000 S 
ATOM     19  O   UNL     1     -13.601  57.196  53.140  0.00  0.00    +0.000 OA
ATOM     20  O   UNL     1     -15.933  56.699  52.346  0.00  0.00    +0.000 OA
BRANCH  18  21
ATOM     21  C   UNL     1     -14.322  57.968  50.730  0.00  0.00    +0.000 A 
ATOM     22  C   UNL     1     -14.263  57.490  49.417  0.00  0.00    +0.000 A 
ATOM     23  C   UNL     1     -14.322  59.345  50.981  0.00  0.00    +0.000 A 
ATOM     24  C   UNL     1     -14.179  58.397  48.358  0.00  0.00    +0.000 A 
ATOM     25  C   UNL     1     -14.234  60.242  49.915  0.00  0.00    +0.000 A 
ATOM     26  C   UNL     1     -14.163  59.768  48.606  0.00  0.00    +0.000 A 
ENDBRANCH  18  21
ENDBRANCH  12  18
ENDBRANCH   1  15
BRANCH   3  27
ATOM     27  C   UNL     1     -10.648  51.887  51.795  0.00  0.00    +0.000 C 
ATOM     28  O   UNL     1     -10.689  50.662  51.806  0.00  0.00    +0.000 OA
BRANCH  27  29
ATOM     29  O   UNL     1     -10.801  52.674  52.893  0.00  0.00    +0.000 OA
BRANCH  29  30
ATOM     30  C   UNL     1      -9.609  53.131  53.540  0.00  0.00    +0.000 C 
ATOM     31  C   UNL     1      -9.590  54.645  53.554  0.00  0.00    +0.000 C 
ENDBRANCH  29  30
ENDBRANCH  27  29
ENDBRANCH   3  27
TORSDOF 6
ENDMDL
MODEL 4
REMARK VINA RESULT:      -7.1      2.518      4.307
REMARK  Name = 
REMARK  9 active torsions:
REMARK  status: ('A' for Active; 'I' for Inactive)
REMARK    1  A    between atoms: S_1  and  N_4
REMARK    2  A    between atoms: S_1  and  C_5
REMARK    3  A    between atoms: N_10  and  C_13
REMARK    4  A    between atoms: C_16  and  C_19
REMARK    5  A    between atoms: C_19  and  O_23
REMARK    6  A    between atoms: O_23  and  C_26
REMARK    7  A    between atoms: C_24  and  C_27
REMARK    8  A    between atoms: C_24  and  C_28
REMARK    9  A    between atoms: C_26  and  C_29
REMARK                            x       y       z     vdW  Elec       q    Type
REMARK                         _______ _______ _______ _____ _____    ______ ____
ROOT
ATOM      1  C   UNL     1      -8.687  53.705  51.824  0.00  0.00    +0.000 A 
ATOM      2  S   UNL     1      -8.831  52.044  51.498  0.00  0.00    +0.000 S 
ATOM      3  C   UNL     1      -7.385  54.168  51.769  0.00  0.00    +0.000 A 
ATOM      4  C   UNL     1      -7.196  51.953  51.016  0.00  0.00    +0.000 A 
ATOM      5  C   UNL     1      -6.525  53.150  51.206  0.00  0.00    +0.000 A 
ATOM      6  C   UNL     1      -6.584  50.696  50.447  0.00  0.00    +0.000 C 
ATOM      7  C   UNL     1      -5.061  53.289  50.906  0.00  0.00    +0.000 C 
ATOM      8  C   UNL     1      -5.028  50.740  50.536  0.00  0.00    +0.000 C 
ATOM      9  C   UNL     1      -4.523  52.128  50.067  0.00  0.00    +0.000 C 
ATOM     10  C   UNL     1      -4.402  49.677  49.615  0.00  0.00    +0.000 C 
ATOM     11  C   UNL     1      -4.571  50.448  51.980  0.00  0.00    +0.000 C 
ENDROOT
BRANCH   1  15
ATOM     12  N   UNL     1     -11.706  55.575  51.263  0.00  0.00    +0.000 N 
ATOM     13  C   UNL     1     -10.484  54.985  50.960  0.00  0.00    +0.000 C 
ATOM     14  O   UNL     1     -10.050  54.959  49.821  0.00  0.00    +0.000 OA
ATOM     15  N   UNL     1      -9.882  54.370  52.043  0.00  0.00    +0.000 N 
ATOM     16  H   UNL     1     -12.002  55.568  52.203  0.00  0.00    +0.000 HD
ATOM     17  H   UNL     1     -10.289  54.404  52.938  0.00  0.00    +0.000 HD
BRANCH  12  18
ATOM     18  S   UNL     1     -12.701  56.293  50.135  0.00  0.00    +0.000 S 
ATOM     19  O   UNL     1     -13.574  55.318  49.524  0.00  0.00    +0.000 OA
ATOM     20  O   UNL     1     -11.817  57.102  49.317  0.00  0.00    +0.000 OA
BRANCH  18  21
ATOM     21  C   UNL     1     -13.686  57.412  51.113  0.00  0.00    +0.000 A 
ATOM     22  C   UNL     1     -14.237  58.552  50.520  0.00  0.00    +0.000 A 
ATOM     23  C   UNL     1     -13.975  57.101  52.446  0.00  0.00    +0.000 A 
ATOM     24  C   UNL     1     -15.060  59.392  51.275  0.00  0.00    +0.000 A 
ATOM     25  C   UNL     1     -14.795  57.948  53.193  0.00  0.00    +0.000 A 
ATOM     26  C   UNL     1     -15.336  59.092  52.607  0.00  0.00    +0.000 A 
ENDBRANCH  18  21
ENDBRANCH  12  18
ENDBRANCH   1  15
BRANCH   3  27
ATOM     27  C   UNL     1      -7.001  55.508  52.223  0.00  0.00    +0.000 C 
ATOM     28  O   UNL     1      -7.376  56.535  51.669  0.00  0.00    +0.000 OA
BRANCH  27  29
ATOM     29  O   UNL     1      -6.197  55.471  53.318  0.00  0.00    +0.000 OA
BRANCH  29  30
ATOM     30  C   UNL     1      -6.765  54.962  54.529  0.00  0.00    +0.000 C 
ATOM     31  C   UNL     1      -5.993  53.737  54.974  0.00  0.00    +0.000 C 
ENDBRANCH  29  30
ENDBRANCH  27  29
ENDBRANCH   3  27
TORSDOF 6
ENDMDL
MODEL 5
REMARK VINA RESULT:      -7.1      4.067      7.586
REMARK  Name = 
REMARK  9 active torsions:
REMARK  status: ('A' for Active; 'I' for Inactive)
REMARK    1  A    between atoms: S_1  and  N_4
REMARK    2  A    between atoms: S_1  and  C_5
REMARK    3  A    between atoms: N_10  and  C_13
REMARK    4  A    between atoms: C_16  and  C_19
REMARK    5  A    between atoms: C_19  and  O_23
REMARK    6  A    between atoms: O_23  and  C_26
REMARK    7  A    between atoms: C_24  and  C_27
REMARK    8  A    between atoms: C_24  and  C_28
REMARK    9  A    between atoms: C_26  and  C_29
REMARK                            x       y       z     vdW  Elec       q    Type
REMARK                         _______ _______ _______ _____ _____    ______ ____
ROOT
ATOM      1  C   UNL     1      -8.751  54.980  47.147  0.00  0.00    +0.000 A 
ATOM      2  S   UNL     1      -7.509  54.233  46.259  0.00  0.00    +0.000 S 
ATOM      3  C   UNL     1     -10.019  54.669  46.691  0.00  0.00    +0.000 A 
ATOM      4  C   UNL     1      -8.634  53.270  45.412  0.00  0.00    +0.000 A 
ATOM      5  C   UNL     1      -9.945  53.593  45.727  0.00  0.00    +0.000 A 
ATOM      6  C   UNL     1      -8.216  52.193  44.441  0.00  0.00    +0.000 C 
ATOM      7  C   UNL     1     -11.106  52.914  45.060  0.00  0.00    +0.000 C 
ATOM      8  C   UNL     1      -9.390  51.809  43.488  0.00  0.00    +0.000 C 
ATOM      9  C   UNL     1     -10.691  51.645  44.313  0.00  0.00    +0.000 C 
ATOM     10  C   UNL     1      -9.105  50.468  42.789  0.00  0.00    +0.000 C 
ATOM     11  C   UNL     1      -9.562  52.887  42.400  0.00  0.00    +0.000 C 
ENDROOT
BRANCH   1  15
ATOM     12  N   UNL     1      -7.624  55.926  50.427  0.00  0.00    +0.000 N 
ATOM     13  C   UNL     1      -8.098  55.090  49.422  0.00  0.00    +0.000 C 
ATOM     14  O   UNL     1      -8.209  53.887  49.587  0.00  0.00    +0.000 OA
ATOM     15  N   UNL     1      -8.331  55.742  48.224  0.00  0.00    +0.000 N 
ATOM     16  H   UNL     1      -7.559  56.890  50.234  0.00  0.00    +0.000 HD
ATOM     17  H   UNL     1      -8.203  56.713  48.141  0.00  0.00    +0.000 HD
BRANCH  12  18
ATOM     18  S   UNL     1      -7.158  55.396  51.937  0.00  0.00    +0.000 S 
ATOM     19  O   UNL     1      -6.971  56.511  52.838  0.00  0.00    +0.000 OA
ATOM     20  O   UNL     1      -6.076  54.462  51.690  0.00  0.00    +0.000 OA
BRANCH  18  21
ATOM     21  C   UNL     1      -8.562  54.444  52.487  0.00  0.00    +0.000 A 
ATOM     22  C   UNL     1      -9.846  54.989  52.405  0.00  0.00    +0.000 A 
ATOM     23  C   UNL     1      -8.381  53.124  52.917  0.00  0.00    +0.000 A 
ATOM     24  C   UNL     1     -10.948  54.214  52.778  0.00  0.00    +0.000 A 
ATOM     25  C   UNL     1      -9.488  52.360  53.290  0.00  0.00    +0.000 A 
ATOM     26  C   UNL     1     -10.769  52.906  53.221  0.00  0.00    +0.000 A 
ENDBRANCH  18  21
ENDBRANCH  12  18
ENDBRANCH   1  15
BRANCH   3  27
ATOM     27  C   UNL     1     -11.221  55.362  47.162  0.00  0.00    +0.000 C 
ATOM     28  O   UNL     1     -11.922  56.056  46.435  0.00  0.00    +0.000 OA
BRANCH  27  29
ATOM     29  O   UNL     1     -11.462  55.138  48.481  0.00  0.00    +0.000 OA
BRANCH  29  30
ATOM     30  C   UNL     1     -12.380  54.090  48.809  0.00  0.00    +0.000 C 
ATOM     31  C   UNL     1     -11.623  52.923  49.408  0.00  0.00    +0.000 C 
ENDBRANCH  29  30
ENDBRANCH  27  29
ENDBRANCH   3  27
TORSDOF 6
ENDMDL
MODEL 6
REMARK VINA RESULT:      -7.0      2.324      3.042
REMARK  Name = 
REMARK  9 active torsions:
REMARK  status: ('A' for Active; 'I' for Inactive)
REMARK    1  A    between atoms: S_1  and  N_4
REMARK    2  A    between atoms: S_1  and  C_5
REMARK    3  A    between atoms: N_10  and  C_13
REMARK    4  A    between atoms: C_16  and  C_19
REMARK    5  A    between atoms: C_19  and  O_23
REMARK    6  A    between atoms: O_23  and  C_26
REMARK    7  A    between atoms: C_24  and  C_27
REMARK    8  A    between atoms: C_24  and  C_28
REMARK    9  A    between atoms: C_26  and  C_29
REMARK                            x       y       z     vdW  Elec       q    Type
REMARK                         _______ _______ _______ _____ _____    ______ ____
ROOT
ATOM      1  C   UNL     1      -9.914  55.142  50.385  0.00  0.00    +0.000 A 
ATOM      2  S   UNL     1      -9.372  55.412  51.972  0.00  0.00    +0.000 S 
ATOM      3  C   UNL     1      -9.743  53.838  49.958  0.00  0.00    +0.000 A 
ATOM      4  C   UNL     1      -9.138  53.741  52.223  0.00  0.00    +0.000 A 
ATOM      5  C   UNL     1      -9.369  53.000  51.076  0.00  0.00    +0.000 A 
ATOM      6  C   UNL     1      -8.732  53.167  53.560  0.00  0.00    +0.000 C 
ATOM      7  C   UNL     1      -9.170  51.512  51.045  0.00  0.00    +0.000 C 
ATOM      8  C   UNL     1      -8.146  51.731  53.399  0.00  0.00    +0.000 C 
ATOM      9  C   UNL     1      -9.050  50.908  52.446  0.00  0.00    +0.000 C 
ATOM     10  C   UNL     1      -8.110  51.005  54.755  0.00  0.00    +0.000 C 
ATOM     11  C   UNL     1      -6.703  51.805  52.860  0.00  0.00    +0.000 C 
ENDROOT
BRANCH   1  15
ATOM     12  N   UNL     1     -12.369  57.417  49.073  0.00  0.00    +0.000 N 
ATOM     13  C   UNL     1     -11.874  56.255  49.655  0.00  0.00    +0.000 C 
ATOM     14  O   UNL     1     -12.615  55.391  50.092  0.00  0.00    +0.000 OA
ATOM     15  N   UNL     1     -10.495  56.235  49.764  0.00  0.00    +0.000 N 
ATOM     16  H   UNL     1     -11.721  58.077  48.736  0.00  0.00    +0.000 HD
ATOM     17  H   UNL     1      -9.947  56.972  49.414  0.00  0.00    +0.000 HD
BRANCH  12  18
ATOM     18  S   UNL     1     -13.992  57.761  48.911  0.00  0.00    +0.000 S 
ATOM     19  O   UNL     1     -14.691  56.665  48.280  0.00  0.00    +0.000 OA
ATOM     20  O   UNL     1     -14.037  59.091  48.334  0.00  0.00    +0.000 OA
BRANCH  18  21
ATOM     21  C   UNL     1     -14.549  57.901  50.599  0.00  0.00    +0.000 A 
ATOM     22  C   UNL     1     -15.305  56.871  51.169  0.00  0.00    +0.000 A 
ATOM     23  C   UNL     1     -14.156  58.999  51.373  0.00  0.00    +0.000 A 
ATOM     24  C   UNL     1     -15.685  56.958  52.511  0.00  0.00    +0.000 A 
ATOM     25  C   UNL     1     -14.543  59.077  52.711  0.00  0.00    +0.000 A 
ATOM     26  C   UNL     1     -15.307  58.058  53.279  0.00  0.00    +0.000 A 
ENDBRANCH  18  21
ENDBRANCH  12  18
ENDBRANCH   1  15
BRANCH   3  27
ATOM     27  C   UNL     1      -9.938  53.429  48.564  0.00  0.00    +0.000 C 
ATOM     28  O   UNL     1     -10.393  52.336  48.245  0.00  0.00    +0.000 OA
BRANCH  27  29
ATOM     29  O   UNL     1      -9.565  54.396  47.685  0.00  0.00    +0.000 OA
BRANCH  29  30
ATOM     30  C   UNL     1     -10.114  54.326  46.365  0.00  0.00    +0.000 C 
ATOM     31  C   UNL     1     -11.442  55.054  46.330  0.00  0.00    +0.000 C 
ENDBRANCH  29  30
ENDBRANCH  27  29
ENDBRANCH   3  27
TORSDOF 6
ENDMDL
MODEL 7
REMARK VINA RESULT:      -6.9      2.133      2.552
REMARK  Name = 
REMARK  9 active torsions:
REMARK  status: ('A' for Active; 'I' for Inactive)
REMARK    1  A    between atoms: S_1  and  N_4
REMARK    2  A    between atoms: S_1  and  C_5
REMARK    3  A    between atoms: N_10  and  C_13
REMARK    4  A    between atoms: C_16  and  C_19
REMARK    5  A    between atoms: C_19  and  O_23
REMARK    6  A    between atoms: O_23  and  C_26
REMARK    7  A    between atoms: C_24  and  C_27
REMARK    8  A    between atoms: C_24  and  C_28
REMARK    9  A    between atoms: C_26  and  C_29
REMARK                            x       y       z     vdW  Elec       q    Type
REMARK                         _______ _______ _______ _____ _____    ______ ____
ROOT
ATOM      1  C   UNL     1     -11.573  53.192  50.826  0.00  0.00    +0.000 A 
ATOM      2  S   UNL     1     -10.786  52.526  52.176  0.00  0.00    +0.000 S 
ATOM      3  C   UNL     1     -10.849  53.079  49.654  0.00  0.00    +0.000 A 
ATOM      4  C   UNL     1      -9.579  51.835  51.187  0.00  0.00    +0.000 A 
ATOM      5  C   UNL     1      -9.718  52.200  49.857  0.00  0.00    +0.000 A 
ATOM      6  C   UNL     1      -8.501  50.929  51.730  0.00  0.00    +0.000 C 
ATOM      7  C   UNL     1      -8.736  51.757  48.812  0.00  0.00    +0.000 C 
ATOM      8  C   UNL     1      -7.300  50.829  50.740  0.00  0.00    +0.000 C 
ATOM      9  C   UNL     1      -7.835  50.620  49.300  0.00  0.00    +0.000 C 
ATOM     10  C   UNL     1      -6.408  49.624  51.088  0.00  0.00    +0.000 C 
ATOM     11  C   UNL     1      -6.436  52.103  50.825  0.00  0.00    +0.000 C 
ENDROOT
BRANCH   1  15
ATOM     12  N   UNL     1     -14.235  55.431  51.734  0.00  0.00    +0.000 N 
ATOM     13  C   UNL     1     -12.927  54.986  51.576  0.00  0.00    +0.000 C 
ATOM     14  O   UNL     1     -11.972  55.711  51.794  0.00  0.00    +0.000 OA
ATOM     15  N   UNL     1     -12.837  53.701  51.071  0.00  0.00    +0.000 N 
ATOM     16  H   UNL     1     -14.965  54.798  51.546  0.00  0.00    +0.000 HD
ATOM     17  H   UNL     1     -13.644  53.168  50.893  0.00  0.00    +0.000 HD
BRANCH  12  18
ATOM     18  S   UNL     1     -14.643  56.972  52.221  0.00  0.00    +0.000 S 
ATOM     19  O   UNL     1     -13.743  57.443  53.249  0.00  0.00    +0.000 OA
ATOM     20  O   UNL     1     -16.073  56.922  52.464  0.00  0.00    +0.000 OA
BRANCH  18  21
ATOM     21  C   UNL     1     -14.392  57.946  50.749  0.00  0.00    +0.000 A 
ATOM     22  C   UNL     1     -14.115  57.310  49.535  0.00  0.00    +0.000 A 
ATOM     23  C   UNL     1     -14.560  59.334  50.797  0.00  0.00    +0.000 A 
ATOM     24  C   UNL     1     -13.983  58.075  48.372  0.00  0.00    +0.000 A 
ATOM     25  C   UNL     1     -14.422  60.089  49.631  0.00  0.00    +0.000 A 
ATOM     26  C   UNL     1     -14.134  59.459  48.421  0.00  0.00    +0.000 A 
ENDBRANCH  18  21
ENDBRANCH  12  18
ENDBRANCH   1  15
BRANCH   3  27
ATOM     27  C   UNL     1     -11.231  53.767  48.418  0.00  0.00    +0.000 C 
ATOM     28  O   UNL     1     -11.635  53.177  47.421  0.00  0.00    +0.000 OA
BRANCH  27  29
ATOM     29  O   UNL     1     -11.091  55.115  48.512  0.00  0.00    +0.000 OA
BRANCH  29  30
ATOM     30  C   UNL     1      -9.758  55.627  48.616  0.00  0.00    +0.000 C 
ATOM     31  C   UNL     1      -9.032  55.417  47.304  0.00  0.00    +0.000 C 
ENDBRANCH  29  30
ENDBRANCH  27  29
ENDBRANCH   3  27
TORSDOF 6
ENDMDL
MODEL 8
REMARK VINA RESULT:      -6.8      2.316      2.989
REMARK  Name = 
REMARK  9 active torsions:
REMARK  status: ('A' for Active; 'I' for Inactive)
REMARK    1  A    between atoms: S_1  and  N_4
REMARK    2  A    between atoms: S_1  and  C_5
REMARK    3  A    between atoms: N_10  and  C_13
REMARK    4  A    between atoms: C_16  and  C_19
REMARK    5  A    between atoms: C_19  and  O_23
REMARK    6  A    between atoms: O_23  and  C_26
REMARK    7  A    between atoms: C_24  and  C_27
REMARK    8  A    between atoms: C_24  and  C_28
REMARK    9  A    between atoms: C_26  and  C_29
REMARK                            x       y       z     vdW  Elec       q    Type
REMARK                         _______ _______ _______ _____ _____    ______ ____
ROOT
ATOM      1  C   UNL     1      -8.428  55.776  49.973  0.00  0.00    +0.000 A 
ATOM      2  S   UNL     1      -7.961  56.080  51.578  0.00  0.00    +0.000 S 
ATOM      3  C   UNL     1      -7.694  54.775  49.365  0.00  0.00    +0.000 A 
ATOM      4  C   UNL     1      -6.947  54.707  51.589  0.00  0.00    +0.000 A 
ATOM      5  C   UNL     1      -6.886  54.090  50.350  0.00  0.00    +0.000 A 
ATOM      6  C   UNL     1      -6.220  54.242  52.828  0.00  0.00    +0.000 C 
ATOM      7  C   UNL     1      -6.010  52.895  50.108  0.00  0.00    +0.000 C 
ATOM      8  C   UNL     1      -5.039  53.292  52.461  0.00  0.00    +0.000 C 
ATOM      9  C   UNL     1      -5.515  52.258  51.409  0.00  0.00    +0.000 C 
ATOM     10  C   UNL     1      -4.563  52.514  53.701  0.00  0.00    +0.000 C 
ATOM     11  C   UNL     1      -3.847  54.111  51.926  0.00  0.00    +0.000 C 
ENDROOT
BRANCH   1  15
ATOM     12  N   UNL     1     -11.781  56.814  49.197  0.00  0.00    +0.000 N 
ATOM     13  C   UNL     1     -10.763  55.968  49.624  0.00  0.00    +0.000 C 
ATOM     14  O   UNL     1     -11.000  54.878  50.115  0.00  0.00    +0.000 OA
ATOM     15  N   UNL     1      -9.501  56.524  49.518  0.00  0.00    +0.000 N 
ATOM     16  H   UNL     1     -11.527  57.682  48.806  0.00  0.00    +0.000 HD
ATOM     17  H   UNL     1      -9.370  57.420  49.134  0.00  0.00    +0.000 HD
BRANCH  12  18
ATOM     18  S   UNL     1     -13.404  56.451  49.308  0.00  0.00    +0.000 S 
ATOM     19  O   UNL     1     -13.598  55.062  49.654  0.00  0.00    +0.000 OA
ATOM     20  O   UNL     1     -13.994  56.997  48.100  0.00  0.00    +0.000 OA
BRANCH  18  21
ATOM     21  C   UNL     1     -13.956  57.464  50.668  0.00  0.00    +0.000 A 
ATOM     22  C   UNL     1     -14.588  58.685  50.413  0.00  0.00    +0.000 A 
ATOM     23  C   UNL     1     -13.834  56.993  51.980  0.00  0.00    +0.000 A 
ATOM     24  C   UNL     1     -15.075  59.444  51.480  0.00  0.00    +0.000 A 
ATOM     25  C   UNL     1     -14.321  57.761  53.039  0.00  0.00    +0.000 A 
ATOM     26  C   UNL     1     -14.941  58.985  52.788  0.00  0.00    +0.000 A 
ENDBRANCH  18  21
ENDBRANCH  12  18
ENDBRANCH   1  15
BRANCH   3  27
ATOM     27  C   UNL     1      -7.776  54.493  47.929  0.00  0.00    +0.000 C 
ATOM     28  O   UNL     1      -6.816  54.587  47.173  0.00  0.00    +0.000 OA
BRANCH  27  29
ATOM     29  O   UNL     1      -9.025  54.117  47.547  0.00  0.00    +0.000 OA
BRANCH  29  30
ATOM     30  C   UNL     1      -9.524  54.660  46.321  0.00  0.00    +0.000 C 
ATOM     31  C   UNL     1     -10.561  53.722  45.738  0.00  0.00    +0.000 C 
ENDBRANCH  29  30
ENDBRANCH  27  29
ENDBRANCH   3  27
TORSDOF 6
ENDMDL
MODEL 9
REMARK VINA RESULT:      -6.8      2.492      3.272
REMARK  Name = 
REMARK  9 active torsions:
REMARK  status: ('A' for Active; 'I' for Inactive)
REMARK    1  A    between atoms: S_1  and  N_4
REMARK    2  A    between atoms: S_1  and  C_5
REMARK    3  A    between atoms: N_10  and  C_13
REMARK    4  A    between atoms: C_16  and  C_19
REMARK    5  A    between atoms: C_19  and  O_23
REMARK    6  A    between atoms: O_23  and  C_26
REMARK    7  A    between atoms: C_24  and  C_27
REMARK    8  A    between atoms: C_24  and  C_28
REMARK    9  A    between atoms: C_26  and  C_29
REMARK                            x       y       z     vdW  Elec       q    Type
REMARK                         _______ _______ _______ _____ _____    ______ ____
ROOT
ATOM      1  C   UNL     1      -8.527  55.695  50.031  0.00  0.00    +0.000 A 
ATOM      2  S   UNL     1      -7.819  56.212  51.486  0.00  0.00    +0.000 S 
ATOM      3  C   UNL     1      -7.990  54.517  49.544  0.00  0.00    +0.000 A 
ATOM      4  C   UNL     1      -6.963  54.744  51.642  0.00  0.00    +0.000 A 
ATOM      5  C   UNL     1      -7.133  53.917  50.543  0.00  0.00    +0.000 A 
ATOM      6  C   UNL     1      -6.128  54.413  52.856  0.00  0.00    +0.000 C 
ATOM      7  C   UNL     1      -6.428  52.596  50.434  0.00  0.00    +0.000 C 
ATOM      8  C   UNL     1      -5.113  53.271  52.544  0.00  0.00    +0.000 C 
ATOM      9  C   UNL     1      -5.832  52.139  51.767  0.00  0.00    +0.000 C 
ATOM     10  C   UNL     1      -4.559  52.667  53.847  0.00  0.00    +0.000 C 
ATOM     11  C   UNL     1      -3.925  53.825  51.733  0.00  0.00    +0.000 C 
ENDROOT
BRANCH   1  15
ATOM     12  N   UNL     1     -11.826  56.829  49.164  0.00  0.00    +0.000 N 
ATOM     13  C   UNL     1     -10.842  55.946  49.593  0.00  0.00    +0.000 C 
ATOM     14  O   UNL     1     -11.117  54.838  50.022  0.00  0.00    +0.000 OA
ATOM     15  N   UNL     1      -9.567  56.482  49.567  0.00  0.00    +0.000 N 
ATOM     16  H   UNL     1     -11.541  57.709  48.825  0.00  0.00    +0.000 HD
ATOM     17  H   UNL     1      -9.405  57.392  49.230  0.00  0.00    +0.000 HD
BRANCH  12  18
ATOM     18  S   UNL     1     -13.458  56.492  49.190  0.00  0.00    +0.000 S 
ATOM     19  O   UNL     1     -13.689  55.086  49.435  0.00  0.00    +0.000 OA
ATOM     20  O   UNL     1     -13.991  57.128  48.001  0.00  0.00    +0.000 OA
BRANCH  18  21
ATOM     21  C   UNL     1     -14.045  57.422  50.594  0.00  0.00    +0.000 A 
ATOM     22  C   UNL     1     -13.868  56.917  51.885  0.00  0.00    +0.000 A 
ATOM     23  C   UNL     1     -14.601  58.692  50.402  0.00  0.00    +0.000 A 
ATOM     24  C   UNL     1     -14.274  57.680  52.984  0.00  0.00    +0.000 A 
ATOM     25  C   UNL     1     -15.004  59.444  51.506  0.00  0.00    +0.000 A 
ATOM     26  C   UNL     1     -14.841  58.938  52.795  0.00  0.00    +0.000 A 
ENDBRANCH  18  21
ENDBRANCH  12  18
ENDBRANCH   1  15
BRANCH   3  27
ATOM     27  C   UNL     1      -8.293  54.002  48.205  0.00  0.00    +0.000 C 
ATOM     28  O   UNL     1      -8.950  52.985  48.013  0.00  0.00    +0.000 OA
BRANCH  27  29
ATOM     29  O   UNL     1      -7.771  54.781  47.222  0.00  0.00    +0.000 OA
BRANCH  29  30
ATOM     30  C   UNL     1      -6.913  54.144  46.270  0.00  0.00    +0.000 C 
ATOM     31  C   UNL     1      -5.689  53.602  46.978  0.00  0.00    +0.000 C 
ENDBRANCH  29  30
ENDBRANCH  27  29
ENDBRANCH   3  27
TORSDOF 6
ENDMDL
