MODEL 1
REMARK VINA RESULT:      -8.0      0.000      0.000
REMARK  Name = 
REMARK  9 active torsions:
REMARK  status: ('A' for Active; 'I' for Inactive)
REMARK    1  A    between atoms: S_1  and  N_4
REMARK    2  A    between atoms: S_1  and  C_5
REMARK    3  A    between atoms: N_10  and  C_13
REMARK    4  A    between atoms: C_16  and  C_20
REMARK    5  A    between atoms: C_20  and  O_24
REMARK    6  A    between atoms: O_24  and  C_27
REMARK    7  A    between atoms: C_25  and  C_28
REMARK    8  A    between atoms: C_25  and  C_29
REMARK    9  A    between atoms: C_27  and  C_30
REMARK                            x       y       z     vdW  Elec       q    Type
REMARK                         _______ _______ _______ _____ _____    ______ ____
ROOT
ATOM      1  N   UNL     1     -14.433  55.132  51.132  0.00  0.00    +0.000 N 
ATOM      2  C   UNL     1     -13.131  55.241  51.590  0.00  0.00    +0.000 C 
ATOM      3  O   UNL     1     -12.722  56.276  52.095  0.00  0.00    +0.000 OA
ATOM      4  N   UNL     1     -12.318  54.145  51.318  0.00  0.00    +0.000 N 
ATOM      5  H   UNL     1     -14.709  54.300  50.686  0.00  0.00    +0.000 HD
ATOM      6  H   UNL     1     -12.681  53.325  50.911  0.00  0.00    +0.000 HD
ENDROOT
BRANCH   4   7
ATOM      7  C   UNL     1     -10.969  54.256  51.647  0.00  0.00    +0.000 A 
ATOM      8  S   UNL     1     -10.480  53.586  53.136  0.00  0.00    +0.000 S 
ATOM      9  C   UNL     1      -9.916  54.796  50.931  0.00  0.00    +0.000 A 
ATOM     10  C   UNL     1      -8.822  53.812  52.762  0.00  0.00    +0.000 A 
ATOM     11  C   UNL     1      -8.654  54.448  51.543  0.00  0.00    +0.000 A 
ATOM     12  C   UNL     1      -7.685  53.380  53.672  0.00  0.00    +0.000 C 
ATOM     13  C   UNL     1      -7.295  54.804  51.015  0.00  0.00    +0.000 C 
ATOM     14  C   UNL     1      -6.353  54.119  53.300  0.00  0.00    +0.000 C 
ATOM     15  C   UNL     1      -6.170  54.096  51.763  0.00  0.00    +0.000 C 
ATOM     16  C   UNL     1      -5.120  53.423  53.907  0.00  0.00    +0.000 C 
ATOM     17  C   UNL     1      -6.379  55.567  53.832  0.00  0.00    +0.000 C 
BRANCH   9  18
ATOM     18  C   UNL     1     -10.106  55.609  49.731  0.00  0.00    +0.000 C 
ATOM     19  O   UNL     1      -9.731  56.771  49.636  0.00  0.00    +0.000 OA
BRANCH  18  20
ATOM     20  O   UNL     1     -10.744  54.919  48.750  0.00  0.00    +0.000 OA
BRANCH  20  21
ATOM     21  C   UNL     1     -11.748  55.615  48.014  0.00  0.00    +0.000 C 
ATOM     22  C   UNL     1     -11.615  55.302  46.538  0.00  0.00    +0.000 C 
ENDBRANCH  20  21
ENDBRANCH  18  20
ENDBRANCH   9  18
ENDBRANCH   4   7
BRANCH   1  23
ATOM     23  S   UNL     1     -15.561  56.360  51.308  0.00  0.00    +0.000 S 
ATOM     24  O   UNL     1     -15.803  56.546  52.720  0.00  0.00    +0.000 OA
ATOM     25  O   UNL     1     -16.642  56.034  50.414  0.00  0.00    +0.000 OA
BRANCH  23  26
ATOM     26  C   UNL     1     -14.789  57.841  50.654  0.00  0.00    +0.000 A 
ATOM     27  C   UNL     1     -14.296  57.880  49.343  0.00  0.00    +0.000 A 
ATOM     28  C   UNL     1     -14.731  58.983  51.465  0.00  0.00    +0.000 A 
ATOM     29  C   UNL     1     -13.709  59.060  48.869  0.00  0.00    +0.000 A 
ATOM     30  C   UNL     1     -14.148  60.154  50.985  0.00  0.00    +0.000 A 
ATOM     31  C   UNL     1     -13.636  60.181  49.690  0.00  0.00    +0.000 A 
ATOM     32  F   UNL     1     -13.072  61.304  49.230  0.00  0.00    +0.000 F 
ENDBRANCH  23  26
ENDBRANCH   1  23
TORSDOF 6
ENDMDL
MODEL 2
REMARK VINA RESULT:      -7.4      4.233      7.659
REMARK  Name = 
REMARK  9 active torsions:
REMARK  status: ('A' for Active; 'I' for Inactive)
REMARK    1  A    between atoms: S_1  and  N_4
REMARK    2  A    between atoms: S_1  and  C_5
REMARK    3  A    between atoms: N_10  and  C_13
REMARK    4  A    between atoms: C_16  and  C_20
REMARK    5  A    between atoms: C_20  and  O_24
REMARK    6  A    between atoms: O_24  and  C_27
REMARK    7  A    between atoms: C_25  and  C_28
REMARK    8  A    between atoms: C_25  and  C_29
REMARK    9  A    between atoms: C_27  and  C_30
REMARK                            x       y       z     vdW  Elec       q    Type
REMARK                         _______ _______ _______ _____ _____    ______ ____
ROOT
ATOM      1  N   UNL     1      -9.415  51.891  48.664  0.00  0.00    +0.000 N 
ATOM      2  C   UNL     1     -10.484  52.703  49.003  0.00  0.00    +0.000 C 
ATOM      3  O   UNL     1     -11.598  52.510  48.538  0.00  0.00    +0.000 OA
ATOM      4  N   UNL     1     -10.162  53.801  49.796  0.00  0.00    +0.000 N 
ATOM      5  H   UNL     1      -8.524  52.110  49.020  0.00  0.00    +0.000 HD
ATOM      6  H   UNL     1      -9.253  53.925  50.155  0.00  0.00    +0.000 HD
ENDROOT
BRANCH   4   7
ATOM      7  C   UNL     1     -11.178  54.716  50.060  0.00  0.00    +0.000 A 
ATOM      8  S   UNL     1     -11.825  54.715  51.637  0.00  0.00    +0.000 S 
ATOM      9  C   UNL     1     -11.742  55.684  49.250  0.00  0.00    +0.000 A 
ATOM     10  C   UNL     1     -12.719  56.146  51.335  0.00  0.00    +0.000 A 
ATOM     11  C   UNL     1     -12.570  56.577  50.027  0.00  0.00    +0.000 A 
ATOM     12  C   UNL     1     -13.581  56.839  52.377  0.00  0.00    +0.000 C 
ATOM     13  C   UNL     1     -13.293  57.783  49.502  0.00  0.00    +0.000 C 
ATOM     14  C   UNL     1     -14.611  57.810  51.702  0.00  0.00    +0.000 C 
ATOM     15  C   UNL     1     -13.890  58.641  50.614  0.00  0.00    +0.000 C 
ATOM     16  C   UNL     1     -15.202  58.813  52.711  0.00  0.00    +0.000 C 
ATOM     17  C   UNL     1     -15.784  57.009  51.100  0.00  0.00    +0.000 C 
BRANCH   9  18
ATOM     18  C   UNL     1     -11.508  55.747  47.809  0.00  0.00    +0.000 C 
ATOM     19  O   UNL     1     -12.409  55.784  46.979  0.00  0.00    +0.000 OA
BRANCH  18  20
ATOM     20  O   UNL     1     -10.183  55.760  47.512  0.00  0.00    +0.000 OA
BRANCH  20  21
ATOM     21  C   UNL     1      -9.765  55.011  46.372  0.00  0.00    +0.000 C 
ATOM     22  C   UNL     1      -8.253  54.927  46.337  0.00  0.00    +0.000 C 
ENDBRANCH  20  21
ENDBRANCH  18  20
ENDBRANCH   9  18
ENDBRANCH   4   7
BRANCH   1  23
ATOM     23  S   UNL     1      -9.575  50.548  47.675  0.00  0.00    +0.000 S 
ATOM     24  O   UNL     1     -10.831  49.907  47.989  0.00  0.00    +0.000 OA
ATOM     25  O   UNL     1      -8.334  49.825  47.784  0.00  0.00    +0.000 OA
BRANCH  23  26
ATOM     26  C   UNL     1      -9.651  51.174  45.996  0.00  0.00    +0.000 A 
ATOM     27  C   UNL     1     -10.880  51.446  45.380  0.00  0.00    +0.000 A 
ATOM     28  C   UNL     1      -8.449  51.436  45.322  0.00  0.00    +0.000 A 
ATOM     29  C   UNL     1     -10.892  51.944  44.071  0.00  0.00    +0.000 A 
ATOM     30  C   UNL     1      -8.471  51.935  44.020  0.00  0.00    +0.000 A 
ATOM     31  C   UNL     1      -9.695  52.178  43.402  0.00  0.00    +0.000 A 
ATOM     32  F   UNL     1      -9.715  52.652  42.150  0.00  0.00    +0.000 F 
ENDBRANCH  23  26
ENDBRANCH   1  23
TORSDOF 6
ENDMDL
MODEL 3
REMARK VINA RESULT:      -7.3      3.354      7.756
REMARK  Name = 
REMARK  9 active torsions:
REMARK  status: ('A' for Active; 'I' for Inactive)
REMARK    1  A    between atoms: S_1  and  N_4
REMARK    2  A    between atoms: S_1  and  C_5
REMARK    3  A    between atoms: N_10  and  C_13
REMARK    4  A    between atoms: C_16  and  C_20
REMARK    5  A    between atoms: C_20  and  O_24
REMARK    6  A    between atoms: O_24  and  C_27
REMARK    7  A    between atoms: C_25  and  C_28
REMARK    8  A    between atoms: C_25  and  C_29
REMARK    9  A    between atoms: C_27  and  C_30
REMARK                            x       y       z     vdW  Elec       q    Type
REMARK                         _______ _______ _______ _____ _____    ______ ____
ROOT
ATOM      1  N   UNL     1      -8.199  52.847  49.585  0.00  0.00    +0.000 N 
ATOM      2  C   UNL     1      -9.087  53.893  49.773  0.00  0.00    +0.000 C 
ATOM      3  O   UNL     1      -8.711  54.969  50.215  0.00  0.00    +0.000 OA
ATOM      4  N   UNL     1     -10.423  53.581  49.542  0.00  0.00    +0.000 N 
ATOM      5  H   UNL     1      -8.550  51.981  49.275  0.00  0.00    +0.000 HD
ATOM      6  H   UNL     1     -10.691  52.704  49.185  0.00  0.00    +0.000 HD
ENDROOT
BRANCH   4   7
ATOM      7  C   UNL     1     -11.366  54.563  49.839  0.00  0.00    +0.000 A 
ATOM      8  S   UNL     1     -11.989  54.580  51.425  0.00  0.00    +0.000 S 
ATOM      9  C   UNL     1     -11.870  55.584  49.055  0.00  0.00    +0.000 A 
ATOM     10  C   UNL     1     -12.781  56.077  51.163  0.00  0.00    +0.000 A 
ATOM     11  C   UNL     1     -12.619  56.521  49.861  0.00  0.00    +0.000 A 
ATOM     12  C   UNL     1     -13.575  56.811  52.230  0.00  0.00    +0.000 C 
ATOM     13  C   UNL     1     -13.260  57.786  49.369  0.00  0.00    +0.000 C 
ATOM     14  C   UNL     1     -14.541  57.867  51.589  0.00  0.00    +0.000 C 
ATOM     15  C   UNL     1     -13.777  58.663  50.505  0.00  0.00    +0.000 C 
ATOM     16  C   UNL     1     -15.043  58.891  52.625  0.00  0.00    +0.000 C 
ATOM     17  C   UNL     1     -15.778  57.164  50.992  0.00  0.00    +0.000 C 
BRANCH   9  18
ATOM     18  C   UNL     1     -11.652  55.658  47.612  0.00  0.00    +0.000 C 
ATOM     19  O   UNL     1     -12.563  55.689  46.792  0.00  0.00    +0.000 OA
BRANCH  18  20
ATOM     20  O   UNL     1     -10.331  55.686  47.301  0.00  0.00    +0.000 OA
BRANCH  20  21
ATOM     21  C   UNL     1      -9.885  54.801  46.275  0.00  0.00    +0.000 C 
ATOM     22  C   UNL     1      -8.380  54.893  46.132  0.00  0.00    +0.000 C 
ENDBRANCH  20  21
ENDBRANCH  18  20
ENDBRANCH   9  18
ENDBRANCH   4   7
BRANCH   1  23
ATOM     23  S   UNL     1      -6.553  52.995  49.860  0.00  0.00    +0.000 S 
ATOM     24  O   UNL     1      -6.072  54.125  49.100  0.00  0.00    +0.000 OA
ATOM     25  O   UNL     1      -5.998  51.681  49.654  0.00  0.00    +0.000 OA
BRANCH  23  26
ATOM     26  C   UNL     1      -6.372  53.354  51.608  0.00  0.00    +0.000 A 
ATOM     27  C   UNL     1      -5.656  54.477  52.045  0.00  0.00    +0.000 A 
ATOM     28  C   UNL     1      -7.004  52.514  52.535  0.00  0.00    +0.000 A 
ATOM     29  C   UNL     1      -5.547  54.724  53.419  0.00  0.00    +0.000 A 
ATOM     30  C   UNL     1      -6.894  52.770  53.901  0.00  0.00    +0.000 A 
ATOM     31  C   UNL     1      -6.160  53.872  54.332  0.00  0.00    +0.000 A 
ATOM     32  F   UNL     1      -6.050  54.115  55.644  0.00  0.00    +0.000 F 
ENDBRANCH  23  26
ENDBRANCH   1  23
TORSDOF 6
ENDMDL
MODEL 4
REMARK VINA RESULT:      -7.1      4.435      7.653
REMARK  Name = 
REMARK  9 active torsions:
REMARK  status: ('A' for Active; 'I' for Inactive)
REMARK    1  A    between atoms: S_1  and  N_4
REMARK    2  A    between atoms: S_1  and  C_5
REMARK    3  A    between atoms: N_10  and  C_13
REMARK    4  A    between atoms: C_16  and  C_20
REMARK    5  A    between atoms: C_20  and  O_24
REMARK    6  A    between atoms: O_24  and  C_27
REMARK    7  A    between atoms: C_25  and  C_28
REMARK    8  A    between atoms: C_25  and  C_29
REMARK    9  A    between atoms: C_27  and  C_30
REMARK                            x       y       z     vdW  Elec       q    Type
REMARK                         _______ _______ _______ _____ _____    ______ ____
ROOT
ATOM      1  N   UNL     1      -7.473  55.993  50.390  0.00  0.00    +0.000 N 
ATOM      2  C   UNL     1      -7.995  55.150  49.423  0.00  0.00    +0.000 C 
ATOM      3  O   UNL     1      -8.116  53.951  49.628  0.00  0.00    +0.000 OA
ATOM      4  N   UNL     1      -8.243  55.748  48.191  0.00  0.00    +0.000 N 
ATOM      5  H   UNL     1      -7.345  56.943  50.168  0.00  0.00    +0.000 HD
ATOM      6  H   UNL     1      -8.135  56.718  48.061  0.00  0.00    +0.000 HD
ENDROOT
BRANCH   4   7
ATOM      7  C   UNL     1      -8.649  54.917  47.150  0.00  0.00    +0.000 A 
ATOM      8  S   UNL     1      -7.424  54.091  46.300  0.00  0.00    +0.000 S 
ATOM      9  C   UNL     1      -9.918  54.602  46.701  0.00  0.00    +0.000 A 
ATOM     10  C   UNL     1      -8.570  53.136  45.456  0.00  0.00    +0.000 A 
ATOM     11  C   UNL     1      -9.870  53.491  45.778  0.00  0.00    +0.000 A 
ATOM     12  C   UNL     1      -8.196  52.047  44.465  0.00  0.00    +0.000 C 
ATOM     13  C   UNL     1     -11.055  52.833  45.133  0.00  0.00    +0.000 C 
ATOM     14  C   UNL     1      -9.407  51.689  43.535  0.00  0.00    +0.000 C 
ATOM     15  C   UNL     1     -10.686  51.550  44.395  0.00  0.00    +0.000 C 
ATOM     16  C   UNL     1      -9.203  50.342  42.817  0.00  0.00    +0.000 C 
ATOM     17  C   UNL     1      -9.585  52.773  42.451  0.00  0.00    +0.000 C 
BRANCH   9  18
ATOM     18  C   UNL     1     -11.113  55.330  47.124  0.00  0.00    +0.000 C 
ATOM     19  O   UNL     1     -11.837  55.946  46.352  0.00  0.00    +0.000 OA
BRANCH  18  20
ATOM     20  O   UNL     1     -11.313  55.236  48.464  0.00  0.00    +0.000 OA
BRANCH  20  21
ATOM     21  C   UNL     1     -12.358  54.373  48.906  0.00  0.00    +0.000 C 
ATOM     22  C   UNL     1     -11.772  53.073  49.418  0.00  0.00    +0.000 C 
ENDBRANCH  20  21
ENDBRANCH  18  20
ENDBRANCH   9  18
ENDBRANCH   4   7
BRANCH   1  23
ATOM     23  S   UNL     1      -7.054  55.464  51.924  0.00  0.00    +0.000 S 
ATOM     24  O   UNL     1      -6.946  56.620  52.782  0.00  0.00    +0.000 OA
ATOM     25  O   UNL     1      -5.935  54.575  51.743  0.00  0.00    +0.000 OA
BRANCH  23  26
ATOM     26  C   UNL     1      -8.421  54.449  52.489  0.00  0.00    +0.000 A 
ATOM     27  C   UNL     1      -8.202  53.168  53.014  0.00  0.00    +0.000 A 
ATOM     28  C   UNL     1      -9.718  54.982  52.442  0.00  0.00    +0.000 A 
ATOM     29  C   UNL     1      -9.298  52.415  53.453  0.00  0.00    +0.000 A 
ATOM     30  C   UNL     1     -10.802  54.226  52.884  0.00  0.00    +0.000 A 
ATOM     31  C   UNL     1     -10.582  52.943  53.381  0.00  0.00    +0.000 A 
ATOM     32  F   UNL     1     -11.624  52.215  53.801  0.00  0.00    +0.000 F 
ENDBRANCH  23  26
ENDBRANCH   1  23
TORSDOF 6
ENDMDL
MODEL 5
REMARK VINA RESULT:      -7.0      2.246      2.725
REMARK  Name = 
REMARK  9 active torsions:
REMARK  status: ('A' for Active; 'I' for Inactive)
REMARK    1  A    between atoms: S_1  and  N_4
REMARK    2  A    between atoms: S_1  and  C_5
REMARK    3  A    between atoms: N_10  and  C_13
REMARK    4  A    between atoms: C_16  and  C_20
REMARK    5  A    between atoms: C_20  and  O_24
REMARK    6  A    between atoms: O_24  and  C_27
REMARK    7  A    between atoms: C_25  and  C_28
REMARK    8  A    between atoms: C_25  and  C_29
REMARK    9  A    between atoms: C_27  and  C_30
REMARK                            x       y       z     vdW  Elec       q    Type
REMARK                         _______ _______ _______ _____ _____    ______ ____
ROOT
ATOM      1  N   UNL     1     -14.094  55.369  51.506  0.00  0.00    +0.000 N 
ATOM      2  C   UNL     1     -12.793  54.972  51.246  0.00  0.00    +0.000 C 
ATOM      3  O   UNL     1     -11.847  55.705  51.494  0.00  0.00    +0.000 OA
ATOM      4  N   UNL     1     -12.669  53.755  50.582  0.00  0.00    +0.000 N 
ATOM      5  H   UNL     1     -14.831  54.770  51.245  0.00  0.00    +0.000 HD
ATOM      6  H   UNL     1     -13.454  53.188  50.400  0.00  0.00    +0.000 HD
ENDROOT
BRANCH   4   7
ATOM      7  C   UNL     1     -11.390  53.373  50.188  0.00  0.00    +0.000 A 
ATOM      8  S   UNL     1     -10.505  52.403  51.275  0.00  0.00    +0.000 S 
ATOM      9  C   UNL     1     -10.707  53.616  49.010  0.00  0.00    +0.000 A 
ATOM     10  C   UNL     1      -9.280  52.110  50.112  0.00  0.00    +0.000 A 
ATOM     11  C   UNL     1      -9.518  52.797  48.933  0.00  0.00    +0.000 A 
ATOM     12  C   UNL     1      -8.075  51.219  50.361  0.00  0.00    +0.000 C 
ATOM     13  C   UNL     1      -8.563  52.744  47.777  0.00  0.00    +0.000 C 
ATOM     14  C   UNL     1      -6.932  51.514  49.328  0.00  0.00    +0.000 C 
ATOM     15  C   UNL     1      -7.542  51.619  47.910  0.00  0.00    +0.000 C 
ATOM     16  C   UNL     1      -5.890  50.380  49.284  0.00  0.00    +0.000 C 
ATOM     17  C   UNL     1      -6.192  52.813  49.709  0.00  0.00    +0.000 C 
BRANCH   9  18
ATOM     18  C   UNL     1     -11.162  54.585  48.015  0.00  0.00    +0.000 C 
ATOM     19  O   UNL     1     -10.921  55.784  48.081  0.00  0.00    +0.000 OA
BRANCH  18  20
ATOM     20  O   UNL     1     -11.877  53.993  47.024  0.00  0.00    +0.000 OA
BRANCH  20  21
ATOM     21  C   UNL     1     -11.632  54.438  45.691  0.00  0.00    +0.000 C 
ATOM     22  C   UNL     1     -10.893  53.366  44.917  0.00  0.00    +0.000 C 
ENDBRANCH  20  21
ENDBRANCH  18  20
ENDBRANCH   9  18
ENDBRANCH   4   7
BRANCH   1  23
ATOM     23  S   UNL     1     -14.467  56.825  52.247  0.00  0.00    +0.000 S 
ATOM     24  O   UNL     1     -13.392  57.152  53.155  0.00  0.00    +0.000 OA
ATOM     25  O   UNL     1     -15.818  56.690  52.727  0.00  0.00    +0.000 OA
BRANCH  23  26
ATOM     26  C   UNL     1     -14.512  58.051  50.939  0.00  0.00    +0.000 A 
ATOM     27  C   UNL     1     -14.116  57.730  49.633  0.00  0.00    +0.000 A 
ATOM     28  C   UNL     1     -15.001  59.331  51.235  0.00  0.00    +0.000 A 
ATOM     29  C   UNL     1     -14.177  58.716  48.641  0.00  0.00    +0.000 A 
ATOM     30  C   UNL     1     -15.062  60.305  50.240  0.00  0.00    +0.000 A 
ATOM     31  C   UNL     1     -14.642  59.990  48.950  0.00  0.00    +0.000 A 
ATOM     32  F   UNL     1     -14.695  60.927  47.995  0.00  0.00    +0.000 F 
ENDBRANCH  23  26
ENDBRANCH   1  23
TORSDOF 6
ENDMDL
MODEL 6
REMARK VINA RESULT:      -6.7      4.437      8.345
REMARK  Name = 
REMARK  9 active torsions:
REMARK  status: ('A' for Active; 'I' for Inactive)
REMARK    1  A    between atoms: S_1  and  N_4
REMARK    2  A    between atoms: S_1  and  C_5
REMARK    3  A    between atoms: N_10  and  C_13
REMARK    4  A    between atoms: C_16  and  C_20
REMARK    5  A    between atoms: C_20  and  O_24
REMARK    6  A    between atoms: O_24  and  C_27
REMARK    7  A    between atoms: C_25  and  C_28
REMARK    8  A    between atoms: C_25  and  C_29
REMARK    9  A    between atoms: C_27  and  C_30
REMARK                            x       y       z     vdW  Elec       q    Type
REMARK                         _______ _______ _______ _____ _____    ______ ____
ROOT
ATOM      1  N   UNL     1      -7.786  55.966  50.698  0.00  0.00    +0.000 N 
ATOM      2  C   UNL     1      -8.302  55.187  49.676  0.00  0.00    +0.000 C 
ATOM      3  O   UNL     1      -8.633  54.026  49.871  0.00  0.00    +0.000 OA
ATOM      4  N   UNL     1      -8.294  55.783  48.419  0.00  0.00    +0.000 N 
ATOM      5  H   UNL     1      -7.484  56.879  50.489  0.00  0.00    +0.000 HD
ATOM      6  H   UNL     1      -8.022  56.722  48.298  0.00  0.00    +0.000 HD
ENDROOT
BRANCH   4   7
ATOM      7  C   UNL     1      -8.686  54.997  47.339  0.00  0.00    +0.000 A 
ATOM      8  S   UNL     1      -7.474  54.069  46.580  0.00  0.00    +0.000 S 
ATOM      9  C   UNL     1      -9.937  54.799  46.784  0.00  0.00    +0.000 A 
ATOM     10  C   UNL     1      -8.628  53.224  45.634  0.00  0.00    +0.000 A 
ATOM     11  C   UNL     1      -9.912  53.692  45.855  0.00  0.00    +0.000 A 
ATOM     12  C   UNL     1      -8.272  52.111  44.664  0.00  0.00    +0.000 C 
ATOM     13  C   UNL     1     -11.095  53.146  45.109  0.00  0.00    +0.000 C 
ATOM     14  C   UNL     1      -9.430  51.868  43.635  0.00  0.00    +0.000 C 
ATOM     15  C   UNL     1     -10.782  51.839  44.387  0.00  0.00    +0.000 C 
ATOM     16  C   UNL     1      -9.289  50.511  42.919  0.00  0.00    +0.000 C 
ATOM     17  C   UNL     1      -9.423  52.968  42.553  0.00  0.00    +0.000 C 
BRANCH   9  18
ATOM     18  C   UNL     1     -11.093  55.629  47.119  0.00  0.00    +0.000 C 
ATOM     19  O   UNL     1     -11.940  55.968  46.301  0.00  0.00    +0.000 OA
BRANCH  18  20
ATOM     20  O   UNL     1     -11.107  55.969  48.433  0.00  0.00    +0.000 OA
BRANCH  20  21
ATOM     21  C   UNL     1     -12.337  55.802  49.135  0.00  0.00    +0.000 C 
ATOM     22  C   UNL     1     -12.410  54.407  49.723  0.00  0.00    +0.000 C 
ENDBRANCH  20  21
ENDBRANCH  18  20
ENDBRANCH   9  18
ENDBRANCH   4   7
BRANCH   1  23
ATOM     23  S   UNL     1      -7.655  55.419  52.277  0.00  0.00    +0.000 S 
ATOM     24  O   UNL     1      -8.944  54.909  52.683  0.00  0.00    +0.000 OA
ATOM     25  O   UNL     1      -7.020  56.482  53.013  0.00  0.00    +0.000 OA
BRANCH  23  26
ATOM     26  C   UNL     1      -6.483  54.061  52.236  0.00  0.00    +0.000 A 
ATOM     27  C   UNL     1      -5.216  54.217  51.657  0.00  0.00    +0.000 A 
ATOM     28  C   UNL     1      -6.839  52.847  52.841  0.00  0.00    +0.000 A 
ATOM     29  C   UNL     1      -4.329  53.133  51.655  0.00  0.00    +0.000 A 
ATOM     30  C   UNL     1      -5.949  51.775  52.838  0.00  0.00    +0.000 A 
ATOM     31  C   UNL     1      -4.701  51.926  52.238  0.00  0.00    +0.000 A 
ATOM     32  F   UNL     1      -3.847  50.894  52.231  0.00  0.00    +0.000 F 
ENDBRANCH  23  26
ENDBRANCH   1  23
TORSDOF 6
ENDMDL
MODEL 7
REMARK VINA RESULT:      -6.7      3.593      5.518
REMARK  Name = 
REMARK  9 active torsions:
REMARK  status: ('A' for Active; 'I' for Inactive)
REMARK    1  A    between atoms: S_1  and  N_4
REMARK    2  A    between atoms: S_1  and  C_5
REMARK    3  A    between atoms: N_10  and  C_13
REMARK    4  A    between atoms: C_16  and  C_20
REMARK    5  A    between atoms: C_20  and  O_24
REMARK    6  A    between atoms: O_24  and  C_27
REMARK    7  A    between atoms: C_25  and  C_28
REMARK    8  A    between atoms: C_25  and  C_29
REMARK    9  A    between atoms: C_27  and  C_30
REMARK                            x       y       z     vdW  Elec       q    Type
REMARK                         _______ _______ _______ _____ _____    ______ ____
ROOT
ATOM      1  N   UNL     1     -11.540  55.850  50.596  0.00  0.00    +0.000 N 
ATOM      2  C   UNL     1     -11.384  55.131  49.423  0.00  0.00    +0.000 C 
ATOM      3  O   UNL     1     -12.347  54.645  48.846  0.00  0.00    +0.000 OA
ATOM      4  N   UNL     1     -10.066  54.909  49.039  0.00  0.00    +0.000 N 
ATOM      5  H   UNL     1     -10.736  56.181  51.057  0.00  0.00    +0.000 HD
ATOM      6  H   UNL     1      -9.313  55.316  49.526  0.00  0.00    +0.000 HD
ENDROOT
BRANCH   4   7
ATOM      7  C   UNL     1      -9.854  54.085  47.935  0.00  0.00    +0.000 A 
ATOM      8  S   UNL     1      -9.727  54.848  46.417  0.00  0.00    +0.000 S 
ATOM      9  C   UNL     1      -9.682  52.715  47.862  0.00  0.00    +0.000 A 
ATOM     10  C   UNL     1      -9.228  53.393  45.660  0.00  0.00    +0.000 A 
ATOM     11  C   UNL     1      -9.221  52.331  46.547  0.00  0.00    +0.000 A 
ATOM     12  C   UNL     1      -8.858  53.290  44.190  0.00  0.00    +0.000 C 
ATOM     13  C   UNL     1      -8.868  50.937  46.114  0.00  0.00    +0.000 C 
ATOM     14  C   UNL     1      -8.903  51.801  43.700  0.00  0.00    +0.000 C 
ATOM     15  C   UNL     1      -8.201  50.900  44.743  0.00  0.00    +0.000 C 
ATOM     16  C   UNL     1      -8.153  51.611  42.368  0.00  0.00    +0.000 C 
ATOM     17  C   UNL     1     -10.365  51.357  43.479  0.00  0.00    +0.000 C 
BRANCH   9  18
ATOM     18  C   UNL     1      -9.951  51.821  48.986  0.00  0.00    +0.000 C 
ATOM     19  O   UNL     1      -9.440  51.953  50.092  0.00  0.00    +0.000 OA
BRANCH  18  20
ATOM     20  O   UNL     1     -10.826  50.838  48.652  0.00  0.00    +0.000 OA
BRANCH  20  21
ATOM     21  C   UNL     1     -12.179  51.224  48.419  0.00  0.00    +0.000 C 
ATOM     22  C   UNL     1     -12.624  50.748  47.051  0.00  0.00    +0.000 C 
ENDBRANCH  20  21
ENDBRANCH  18  20
ENDBRANCH   9  18
ENDBRANCH   4   7
BRANCH   1  23
ATOM     23  S   UNL     1     -13.041  56.182  51.263  0.00  0.00    +0.000 S 
ATOM     24  O   UNL     1     -12.857  56.444  52.672  0.00  0.00    +0.000 OA
ATOM     25  O   UNL     1     -13.913  55.124  50.821  0.00  0.00    +0.000 OA
BRANCH  23  26
ATOM     26  C   UNL     1     -13.618  57.682  50.466  0.00  0.00    +0.000 A 
ATOM     27  C   UNL     1     -13.488  57.861  49.082  0.00  0.00    +0.000 A 
ATOM     28  C   UNL     1     -14.249  58.659  51.249  0.00  0.00    +0.000 A 
ATOM     29  C   UNL     1     -13.961  59.044  48.500  0.00  0.00    +0.000 A 
ATOM     30  C   UNL     1     -14.719  59.832  50.661  0.00  0.00    +0.000 A 
ATOM     31  C   UNL     1     -14.565  60.017  49.290  0.00  0.00    +0.000 A 
ATOM     32  F   UNL     1     -15.013  61.146  48.725  0.00  0.00    +0.000 F 
ENDBRANCH  23  26
ENDBRANCH   1  23
TORSDOF 6
ENDMDL
MODEL 8
REMARK VINA RESULT:      -6.5      2.517      3.761
REMARK  Name = 
REMARK  9 active torsions:
REMARK  status: ('A' for Active; 'I' for Inactive)
REMARK    1  A    between atoms: S_1  and  N_4
REMARK    2  A    between atoms: S_1  and  C_5
REMARK    3  A    between atoms: N_10  and  C_13
REMARK    4  A    between atoms: C_16  and  C_20
REMARK    5  A    between atoms: C_20  and  O_24
REMARK    6  A    between atoms: O_24  and  C_27
REMARK    7  A    between atoms: C_25  and  C_28
REMARK    8  A    between atoms: C_25  and  C_29
REMARK    9  A    between atoms: C_27  and  C_30
REMARK                            x       y       z     vdW  Elec       q    Type
REMARK                         _______ _______ _______ _____ _____    ______ ____
ROOT
ATOM      1  N   UNL     1     -14.032  55.410  51.693  0.00  0.00    +0.000 N 
ATOM      2  C   UNL     1     -12.710  55.141  51.384  0.00  0.00    +0.000 C 
ATOM      3  O   UNL     1     -11.849  56.004  51.479  0.00  0.00    +0.000 OA
ATOM      4  N   UNL     1     -12.475  53.877  50.850  0.00  0.00    +0.000 N 
ATOM      5  H   UNL     1     -14.703  54.703  51.555  0.00  0.00    +0.000 HD
ATOM      6  H   UNL     1     -13.192  53.205  50.789  0.00  0.00    +0.000 HD
ENDROOT
BRANCH   4   7
ATOM      7  C   UNL     1     -11.183  53.603  50.407  0.00  0.00    +0.000 A 
ATOM      8  S   UNL     1     -10.902  53.723  48.730  0.00  0.00    +0.000 S 
ATOM      9  C   UNL     1     -10.043  53.282  51.119  0.00  0.00    +0.000 A 
ATOM     10  C   UNL     1      -9.209  53.558  48.941  0.00  0.00    +0.000 A 
ATOM     11  C   UNL     1      -8.876  53.353  50.269  0.00  0.00    +0.000 A 
ATOM     12  C   UNL     1      -8.207  53.615  47.801  0.00  0.00    +0.000 C 
ATOM     13  C   UNL     1      -7.457  53.130  50.706  0.00  0.00    +0.000 C 
ATOM     14  C   UNL     1      -6.836  52.981  48.222  0.00  0.00    +0.000 C 
ATOM     15  C   UNL     1      -6.445  53.500  49.627  0.00  0.00    +0.000 C 
ATOM     16  C   UNL     1      -5.698  53.382  47.265  0.00  0.00    +0.000 C 
ATOM     17  C   UNL     1      -6.934  51.441  48.209  0.00  0.00    +0.000 C 
BRANCH   9  18
ATOM     18  C   UNL     1     -10.067  52.920  52.535  0.00  0.00    +0.000 C 
ATOM     19  O   UNL     1      -9.913  53.729  53.442  0.00  0.00    +0.000 OA
BRANCH  18  20
ATOM     20  O   UNL     1     -10.279  51.590  52.712  0.00  0.00    +0.000 OA
BRANCH  20  21
ATOM     21  C   UNL     1      -9.159  50.801  53.109  0.00  0.00    +0.000 C 
ATOM     22  C   UNL     1      -8.998  49.625  52.168  0.00  0.00    +0.000 C 
ENDBRANCH  20  21
ENDBRANCH  18  20
ENDBRANCH   9  18
ENDBRANCH   4   7
BRANCH   1  23
ATOM     23  S   UNL     1     -14.539  56.890  52.296  0.00  0.00    +0.000 S 
ATOM     24  O   UNL     1     -13.554  57.346  53.249  0.00  0.00    +0.000 OA
ATOM     25  O   UNL     1     -15.913  56.707  52.689  0.00  0.00    +0.000 OA
BRANCH  23  26
ATOM     26  C   UNL     1     -14.557  58.015  50.899  0.00  0.00    +0.000 A 
ATOM     27  C   UNL     1     -14.281  57.561  49.602  0.00  0.00    +0.000 A 
ATOM     28  C   UNL     1     -14.901  59.356  51.121  0.00  0.00    +0.000 A 
ATOM     29  C   UNL     1     -14.315  58.473  48.539  0.00  0.00    +0.000 A 
ATOM     30  C   UNL     1     -14.936  60.255  50.057  0.00  0.00    +0.000 A 
ATOM     31  C   UNL     1     -14.636  59.806  48.773  0.00  0.00    +0.000 A 
ATOM     32  F   UNL     1     -14.664  60.671  47.751  0.00  0.00    +0.000 F 
ENDBRANCH  23  26
ENDBRANCH   1  23
TORSDOF 6
ENDMDL
MODEL 9
REMARK VINA RESULT:      -6.4      3.489      8.101
REMARK  Name = 
REMARK  9 active torsions:
REMARK  status: ('A' for Active; 'I' for Inactive)
REMARK    1  A    between atoms: S_1  and  N_4
REMARK    2  A    between atoms: S_1  and  C_5
REMARK    3  A    between atoms: N_10  and  C_13
REMARK    4  A    between atoms: C_16  and  C_20
REMARK    5  A    between atoms: C_20  and  O_24
REMARK    6  A    between atoms: O_24  and  C_27
REMARK    7  A    between atoms: C_25  and  C_28
REMARK    8  A    between atoms: C_25  and  C_29
REMARK    9  A    between atoms: C_27  and  C_30
REMARK                            x       y       z     vdW  Elec       q    Type
REMARK                         _______ _______ _______ _____ _____    ______ ____
ROOT
ATOM      1  N   UNL     1      -9.158  53.253  47.501  0.00  0.00    +0.000 N 
ATOM      2  C   UNL     1      -9.854  54.336  48.010  0.00  0.00    +0.000 C 
ATOM      3  O   UNL     1      -9.342  55.444  48.075  0.00  0.00    +0.000 OA
ATOM      4  N   UNL     1     -11.105  54.036  48.541  0.00  0.00    +0.000 N 
ATOM      5  H   UNL     1      -9.588  52.368  47.513  0.00  0.00    +0.000 HD
ATOM      6  H   UNL     1     -11.489  53.132  48.470  0.00  0.00    +0.000 HD
ENDROOT
BRANCH   4   7
ATOM      7  C   UNL     1     -11.792  55.067  49.177  0.00  0.00    +0.000 A 
ATOM      8  S   UNL     1     -12.841  56.004  48.214  0.00  0.00    +0.000 S 
ATOM      9  C   UNL     1     -11.801  55.449  50.505  0.00  0.00    +0.000 A 
ATOM     10  C   UNL     1     -13.490  56.799  49.587  0.00  0.00    +0.000 A 
ATOM     11  C   UNL     1     -12.865  56.394  50.755  0.00  0.00    +0.000 A 
ATOM     12  C   UNL     1     -14.602  57.831  49.517  0.00  0.00    +0.000 C 
ATOM     13  C   UNL     1     -13.222  56.983  52.090  0.00  0.00    +0.000 C 
ATOM     14  C   UNL     1     -14.652  58.696  50.825  0.00  0.00    +0.000 C 
ATOM     15  C   UNL     1     -14.531  57.766  52.056  0.00  0.00    +0.000 C 
ATOM     16  C   UNL     1     -15.987  59.451  50.965  0.00  0.00    +0.000 C 
ATOM     17  C   UNL     1     -13.521  59.746  50.812  0.00  0.00    +0.000 C 
BRANCH   9  18
ATOM     18  C   UNL     1     -10.840  54.943  51.483  0.00  0.00    +0.000 C 
ATOM     19  O   UNL     1     -11.087  54.031  52.264  0.00  0.00    +0.000 OA
BRANCH  18  20
ATOM     20  O   UNL     1      -9.656  55.604  51.417  0.00  0.00    +0.000 OA
BRANCH  20  21
ATOM     21  C   UNL     1      -8.468  54.817  51.480  0.00  0.00    +0.000 C 
ATOM     22  C   UNL     1      -7.535  55.376  52.534  0.00  0.00    +0.000 C 
ENDBRANCH  20  21
ENDBRANCH  18  20
ENDBRANCH   9  18
ENDBRANCH   4   7
BRANCH   1  23
ATOM     23  S   UNL     1      -7.613  53.387  46.864  0.00  0.00    +0.000 S 
ATOM     24  O   UNL     1      -7.565  54.582  46.054  0.00  0.00    +0.000 OA
ATOM     25  O   UNL     1      -7.308  52.100  46.295  0.00  0.00    +0.000 OA
BRANCH  23  26
ATOM     26  C   UNL     1      -6.514  53.595  48.267  0.00  0.00    +0.000 A 
ATOM     27  C   UNL     1      -5.908  54.830  48.533  0.00  0.00    +0.000 A 
ATOM     28  C   UNL     1      -6.309  52.506  49.127  0.00  0.00    +0.000 A 
ATOM     29  C   UNL     1      -5.064  54.950  49.645  0.00  0.00    +0.000 A 
ATOM     30  C   UNL     1      -5.470  52.636  50.233  0.00  0.00    +0.000 A 
ATOM     31  C   UNL     1      -4.849  53.858  50.479  0.00  0.00    +0.000 A 
ATOM     32  F   UNL     1      -4.040  53.981  51.538  0.00  0.00    +0.000 F 
ENDBRANCH  23  26
ENDBRANCH   1  23
TORSDOF 6
ENDMDL
