MODEL 1
REMARK VINA RESULT:      -7.7      0.000      0.000
REMARK  Name = 
REMARK  9 active torsions:
REMARK  status: ('A' for Active; 'I' for Inactive)
REMARK    1  A    between atoms: S_1  and  N_4
REMARK    2  A    between atoms: S_1  and  C_5
REMARK    3  A    between atoms: N_10  and  C_13
REMARK    4  A    between atoms: C_16  and  C_19
REMARK    5  A    between atoms: C_19  and  O_23
REMARK    6  A    between atoms: O_23  and  C_26
REMARK    7  A    between atoms: C_24  and  C_27
REMARK    8  A    between atoms: C_24  and  C_28
REMARK    9  A    between atoms: C_26  and  C_29
REMARK                            x       y       z     vdW  Elec       q    Type
REMARK                         _______ _______ _______ _____ _____    ______ ____
ROOT
ATOM      1  C   UNL     1     -10.989  54.389  51.546  0.00  0.00    +0.000 A 
ATOM      2  S   UNL     1     -10.572  53.828  53.094  0.00  0.00    +0.000 S 
ATOM      3  C   UNL     1      -9.902  54.828  50.806  0.00  0.00    +0.000 A 
ATOM      4  C   UNL     1      -8.912  53.881  52.716  0.00  0.00    +0.000 A 
ATOM      5  C   UNL     1      -8.682  54.421  51.462  0.00  0.00    +0.000 A 
ATOM      6  C   UNL     1      -7.851  53.382  53.664  0.00  0.00    +0.000 C 
ATOM      7  C   UNL     1      -7.286  54.605  50.929  0.00  0.00    +0.000 C 
ATOM      8  C   UNL     1      -6.444  53.937  53.274  0.00  0.00    +0.000 C 
ATOM      9  C   UNL     1      -6.247  53.818  51.739  0.00  0.00    +0.000 C 
ATOM     10  C   UNL     1      -5.338  53.119  53.968  0.00  0.00    +0.000 C 
ATOM     11  C   UNL     1      -6.305  55.403  53.736  0.00  0.00    +0.000 C 
ENDROOT
BRANCH   1  15
ATOM     12  N   UNL     1     -14.471  55.245  51.290  0.00  0.00    +0.000 N 
ATOM     13  C   UNL     1     -13.124  55.396  51.581  0.00  0.00    +0.000 C 
ATOM     14  O   UNL     1     -12.693  56.441  52.048  0.00  0.00    +0.000 OA
ATOM     15  N   UNL     1     -12.337  54.316  51.244  0.00  0.00    +0.000 N 
ATOM     16  H   UNL     1     -14.802  54.371  50.979  0.00  0.00    +0.000 HD
ATOM     17  H   UNL     1     -12.720  53.522  50.804  0.00  0.00    +0.000 HD
BRANCH  12  18
ATOM     18  S   UNL     1     -15.553  56.522  51.455  0.00  0.00    +0.000 S 
ATOM     19  O   UNL     1     -15.693  56.811  52.869  0.00  0.00    +0.000 OA
ATOM     20  O   UNL     1     -16.720  56.122  50.685  0.00  0.00    +0.000 OA
BRANCH  18  21
ATOM     21  C   UNL     1     -14.757  57.898  50.593  0.00  0.00    +0.000 A 
ATOM     22  N   UNL     1     -14.365  57.636  49.323  0.00  0.00    +0.000 NA
ATOM     23  N   UNL     1     -14.605  59.050  51.279  0.00  0.00    +0.000 NA
ATOM     24  C   UNL     1     -13.779  58.674  48.699  0.00  0.00    +0.000 A 
ATOM     25  C   UNL     1     -13.974  60.026  50.604  0.00  0.00    +0.000 A 
ATOM     26  C   UNL     1     -13.549  59.896  49.299  0.00  0.00    +0.000 A 
ENDBRANCH  18  21
ENDBRANCH  12  18
ENDBRANCH   1  15
BRANCH   3  27
ATOM     27  C   UNL     1      -9.981  55.628  49.571  0.00  0.00    +0.000 C 
ATOM     28  O   UNL     1      -9.659  56.809  49.512  0.00  0.00    +0.000 OA
BRANCH  27  29
ATOM     29  O   UNL     1     -10.604  54.957  48.558  0.00  0.00    +0.000 OA
BRANCH  29  30
ATOM     30  C   UNL     1     -11.760  55.558  47.964  0.00  0.00    +0.000 C 
ATOM     31  C   UNL     1     -11.718  55.438  46.454  0.00  0.00    +0.000 C 
ENDBRANCH  29  30
ENDBRANCH  27  29
ENDBRANCH   3  27
TORSDOF 6
ENDMDL
MODEL 2
REMARK VINA RESULT:      -7.6      3.087      7.616
REMARK  Name = 
REMARK  9 active torsions:
REMARK  status: ('A' for Active; 'I' for Inactive)
REMARK    1  A    between atoms: S_1  and  N_4
REMARK    2  A    between atoms: S_1  and  C_5
REMARK    3  A    between atoms: N_10  and  C_13
REMARK    4  A    between atoms: C_16  and  C_19
REMARK    5  A    between atoms: C_19  and  O_23
REMARK    6  A    between atoms: O_23  and  C_26
REMARK    7  A    between atoms: C_24  and  C_27
REMARK    8  A    between atoms: C_24  and  C_28
REMARK    9  A    between atoms: C_26  and  C_29
REMARK                            x       y       z     vdW  Elec       q    Type
REMARK                         _______ _______ _______ _____ _____    ______ ____
ROOT
ATOM      1  C   UNL     1     -11.043  54.807  50.100  0.00  0.00    +0.000 A 
ATOM      2  S   UNL     1     -11.733  54.794  51.652  0.00  0.00    +0.000 S 
ATOM      3  C   UNL     1     -11.658  55.693  49.229  0.00  0.00    +0.000 A 
ATOM      4  C   UNL     1     -12.673  56.168  51.295  0.00  0.00    +0.000 A 
ATOM      5  C   UNL     1     -12.538  56.562  49.975  0.00  0.00    +0.000 A 
ATOM      6  C   UNL     1     -13.535  56.848  52.329  0.00  0.00    +0.000 C 
ATOM      7  C   UNL     1     -13.307  57.732  49.420  0.00  0.00    +0.000 C 
ATOM      8  C   UNL     1     -14.596  57.775  51.654  0.00  0.00    +0.000 C 
ATOM      9  C   UNL     1     -13.920  58.600  50.527  0.00  0.00    +0.000 C 
ATOM     10  C   UNL     1     -15.180  58.757  52.688  0.00  0.00    +0.000 C 
ATOM     11  C   UNL     1     -15.761  56.930  51.097  0.00  0.00    +0.000 C 
ENDROOT
BRANCH   1  15
ATOM     12  N   UNL     1      -7.678  53.547  49.996  0.00  0.00    +0.000 N 
ATOM     13  C   UNL     1      -8.714  54.440  50.223  0.00  0.00    +0.000 C 
ATOM     14  O   UNL     1      -8.501  55.547  50.696  0.00  0.00    +0.000 OA
ATOM     15  N   UNL     1      -9.969  53.950  49.933  0.00  0.00    +0.000 N 
ATOM     16  H   UNL     1      -7.869  52.689  49.551  0.00  0.00    +0.000 HD
ATOM     17  H   UNL     1     -10.098  53.026  49.619  0.00  0.00    +0.000 HD
BRANCH  12  18
ATOM     18  S   UNL     1      -6.101  53.895  50.466  0.00  0.00    +0.000 S 
ATOM     19  O   UNL     1      -5.770  55.220  49.978  0.00  0.00    +0.000 OA
ATOM     20  O   UNL     1      -5.320  52.751  50.024  0.00  0.00    +0.000 OA
BRANCH  18  21
ATOM     21  C   UNL     1      -6.156  53.871  52.274  0.00  0.00    +0.000 A 
ATOM     22  N   UNL     1      -5.487  54.879  52.885  0.00  0.00    +0.000 NA
ATOM     23  N   UNL     1      -6.833  52.860  52.857  0.00  0.00    +0.000 NA
ATOM     24  C   UNL     1      -5.544  54.845  54.229  0.00  0.00    +0.000 A 
ATOM     25  C   UNL     1      -6.809  52.872  54.201  0.00  0.00    +0.000 A 
ATOM     26  C   UNL     1      -6.187  53.854  54.943  0.00  0.00    +0.000 A 
ENDBRANCH  18  21
ENDBRANCH  12  18
ENDBRANCH   1  15
BRANCH   3  27
ATOM     27  C   UNL     1     -11.479  55.711  47.766  0.00  0.00    +0.000 C 
ATOM     28  O   UNL     1     -12.406  55.595  46.974  0.00  0.00    +0.000 OA
BRANCH  27  29
ATOM     29  O   UNL     1     -10.162  55.702  47.406  0.00  0.00    +0.000 OA
BRANCH  29  30
ATOM     30  C   UNL     1      -9.739  54.747  46.427  0.00  0.00    +0.000 C 
ATOM     31  C   UNL     1      -8.261  54.895  46.128  0.00  0.00    +0.000 C 
ENDBRANCH  29  30
ENDBRANCH  27  29
ENDBRANCH   3  27
TORSDOF 6
ENDMDL
MODEL 3
REMARK VINA RESULT:      -6.9      3.992      7.459
REMARK  Name = 
REMARK  9 active torsions:
REMARK  status: ('A' for Active; 'I' for Inactive)
REMARK    1  A    between atoms: S_1  and  N_4
REMARK    2  A    between atoms: S_1  and  C_5
REMARK    3  A    between atoms: N_10  and  C_13
REMARK    4  A    between atoms: C_16  and  C_19
REMARK    5  A    between atoms: C_19  and  O_23
REMARK    6  A    between atoms: O_23  and  C_26
REMARK    7  A    between atoms: C_24  and  C_27
REMARK    8  A    between atoms: C_24  and  C_28
REMARK    9  A    between atoms: C_26  and  C_29
REMARK                            x       y       z     vdW  Elec       q    Type
REMARK                         _______ _______ _______ _____ _____    ______ ____
ROOT
ATOM      1  C   UNL     1      -8.734  54.990  47.208  0.00  0.00    +0.000 A 
ATOM      2  S   UNL     1      -7.511  54.268  46.275  0.00  0.00    +0.000 S 
ATOM      3  C   UNL     1     -10.014  54.673  46.782  0.00  0.00    +0.000 A 
ATOM      4  C   UNL     1      -8.644  53.287  45.467  0.00  0.00    +0.000 A 
ATOM      5  C   UNL     1      -9.946  53.587  45.833  0.00  0.00    +0.000 A 
ATOM      6  C   UNL     1      -8.234  52.224  44.480  0.00  0.00    +0.000 C 
ATOM      7  C   UNL     1     -11.121  52.875  45.216  0.00  0.00    +0.000 C 
ATOM      8  C   UNL     1      -9.440  51.793  43.585  0.00  0.00    +0.000 C 
ATOM      9  C   UNL     1     -10.700  51.601  44.471  0.00  0.00    +0.000 C 
ATOM     10  C   UNL     1      -9.133  50.455  42.886  0.00  0.00    +0.000 C 
ATOM     11  C   UNL     1      -9.691  52.850  42.490  0.00  0.00    +0.000 C 
ENDROOT
BRANCH   1  15
ATOM     12  N   UNL     1      -7.661  55.999  50.488  0.00  0.00    +0.000 N 
ATOM     13  C   UNL     1      -8.075  55.154  49.469  0.00  0.00    +0.000 C 
ATOM     14  O   UNL     1      -8.184  53.950  49.654  0.00  0.00    +0.000 OA
ATOM     15  N   UNL     1      -8.281  55.773  48.255  0.00  0.00    +0.000 N 
ATOM     16  H   UNL     1      -7.648  56.972  50.331  0.00  0.00    +0.000 HD
ATOM     17  H   UNL     1      -8.111  56.736  48.137  0.00  0.00    +0.000 HD
BRANCH  12  18
ATOM     18  S   UNL     1      -7.180  55.401  51.984  0.00  0.00    +0.000 S 
ATOM     19  O   UNL     1      -6.993  56.528  52.877  0.00  0.00    +0.000 OA
ATOM     20  O   UNL     1      -6.059  54.523  51.691  0.00  0.00    +0.000 OA
BRANCH  18  21
ATOM     21  C   UNL     1      -8.569  54.377  52.525  0.00  0.00    +0.000 A 
ATOM     22  N   UNL     1      -9.783  54.976  52.473  0.00  0.00    +0.000 NA
ATOM     23  N   UNL     1      -8.286  53.127  52.947  0.00  0.00    +0.000 NA
ATOM     24  C   UNL     1     -10.803  54.196  52.876  0.00  0.00    +0.000 A 
ATOM     25  C   UNL     1      -9.350  52.425  53.373  0.00  0.00    +0.000 A 
ATOM     26  C   UNL     1     -10.641  52.908  53.347  0.00  0.00    +0.000 A 
ENDBRANCH  18  21
ENDBRANCH  12  18
ENDBRANCH   1  15
BRANCH   3  27
ATOM     27  C   UNL     1     -11.245  55.369  47.196  0.00  0.00    +0.000 C 
ATOM     28  O   UNL     1     -11.909  56.069  46.442  0.00  0.00    +0.000 OA
BRANCH  27  29
ATOM     29  O   UNL     1     -11.463  55.279  48.541  0.00  0.00    +0.000 OA
BRANCH  29  30
ATOM     30  C   UNL     1     -12.413  54.313  49.006  0.00  0.00    +0.000 C 
ATOM     31  C   UNL     1     -11.717  53.057  49.487  0.00  0.00    +0.000 C 
ENDBRANCH  29  30
ENDBRANCH  27  29
ENDBRANCH   3  27
TORSDOF 6
ENDMDL
MODEL 4
REMARK VINA RESULT:      -6.8      3.632      5.992
REMARK  Name = 
REMARK  9 active torsions:
REMARK  status: ('A' for Active; 'I' for Inactive)
REMARK    1  A    between atoms: S_1  and  N_4
REMARK    2  A    between atoms: S_1  and  C_5
REMARK    3  A    between atoms: N_10  and  C_13
REMARK    4  A    between atoms: C_16  and  C_19
REMARK    5  A    between atoms: C_19  and  O_23
REMARK    6  A    between atoms: O_23  and  C_26
REMARK    7  A    between atoms: C_24  and  C_27
REMARK    8  A    between atoms: C_24  and  C_28
REMARK    9  A    between atoms: C_26  and  C_29
REMARK                            x       y       z     vdW  Elec       q    Type
REMARK                         _______ _______ _______ _____ _____    ______ ____
ROOT
ATOM      1  C   UNL     1     -10.823  53.558  47.565  0.00  0.00    +0.000 A 
ATOM      2  S   UNL     1     -11.702  52.366  46.732  0.00  0.00    +0.000 S 
ATOM      3  C   UNL     1      -9.539  53.742  47.076  0.00  0.00    +0.000 A 
ATOM      4  C   UNL     1     -10.509  52.270  45.520  0.00  0.00    +0.000 A 
ATOM      5  C   UNL     1      -9.409  53.061  45.809  0.00  0.00    +0.000 A 
ATOM      6  C   UNL     1     -10.674  51.415  44.289  0.00  0.00    +0.000 C 
ATOM      7  C   UNL     1      -8.210  53.104  44.900  0.00  0.00    +0.000 C 
ATOM      8  C   UNL     1      -9.300  51.168  43.588  0.00  0.00    +0.000 C 
ATOM      9  C   UNL     1      -8.507  52.501  43.520  0.00  0.00    +0.000 C 
ATOM     10  C   UNL     1      -9.519  50.663  42.149  0.00  0.00    +0.000 C 
ATOM     11  C   UNL     1      -8.502  50.089  44.349  0.00  0.00    +0.000 C 
ENDROOT
BRANCH   1  15
ATOM     12  N   UNL     1     -12.739  55.980  49.406  0.00  0.00    +0.000 N 
ATOM     13  C   UNL     1     -12.100  55.393  48.324  0.00  0.00    +0.000 C 
ATOM     14  O   UNL     1     -12.123  55.915  47.219  0.00  0.00    +0.000 OA
ATOM     15  N   UNL     1     -11.512  54.176  48.594  0.00  0.00    +0.000 N 
ATOM     16  H   UNL     1     -12.647  55.573  50.299  0.00  0.00    +0.000 HD
ATOM     17  H   UNL     1     -11.581  53.761  49.485  0.00  0.00    +0.000 HD
BRANCH  12  18
ATOM     18  S   UNL     1     -13.671  57.369  49.228  0.00  0.00    +0.000 S 
ATOM     19  O   UNL     1     -14.736  57.076  48.288  0.00  0.00    +0.000 OA
ATOM     20  O   UNL     1     -12.715  58.421  48.924  0.00  0.00    +0.000 OA
BRANCH  18  21
ATOM     21  C   UNL     1     -14.338  57.676  50.880  0.00  0.00    +0.000 A 
ATOM     22  N   UNL     1     -15.016  56.640  51.431  0.00  0.00    +0.000 NA
ATOM     23  N   UNL     1     -14.126  58.897  51.414  0.00  0.00    +0.000 NA
ATOM     24  C   UNL     1     -15.501  56.888  52.661  0.00  0.00    +0.000 A 
ATOM     25  C   UNL     1     -14.677  59.082  52.626  0.00  0.00    +0.000 A 
ATOM     26  C   UNL     1     -15.368  58.102  53.306  0.00  0.00    +0.000 A 
ENDBRANCH  18  21
ENDBRANCH  12  18
ENDBRANCH   1  15
BRANCH   3  27
ATOM     27  C   UNL     1      -8.464  54.476  47.766  0.00  0.00    +0.000 C 
ATOM     28  O   UNL     1      -8.391  55.698  47.789  0.00  0.00    +0.000 OA
BRANCH  27  29
ATOM     29  O   UNL     1      -7.482  53.645  48.225  0.00  0.00    +0.000 OA
BRANCH  29  30
ATOM     30  C   UNL     1      -6.130  54.116  48.187  0.00  0.00    +0.000 C 
ATOM     31  C   UNL     1      -5.713  54.676  49.532  0.00  0.00    +0.000 C 
ENDBRANCH  29  30
ENDBRANCH  27  29
ENDBRANCH   3  27
TORSDOF 6
ENDMDL
MODEL 5
REMARK VINA RESULT:      -6.6      2.405      3.055
REMARK  Name = 
REMARK  9 active torsions:
REMARK  status: ('A' for Active; 'I' for Inactive)
REMARK    1  A    between atoms: S_1  and  N_4
REMARK    2  A    between atoms: S_1  and  C_5
REMARK    3  A    between atoms: N_10  and  C_13
REMARK    4  A    between atoms: C_16  and  C_19
REMARK    5  A    between atoms: C_19  and  O_23
REMARK    6  A    between atoms: O_23  and  C_26
REMARK    7  A    between atoms: C_24  and  C_27
REMARK    8  A    between atoms: C_24  and  C_28
REMARK    9  A    between atoms: C_26  and  C_29
REMARK                            x       y       z     vdW  Elec       q    Type
REMARK                         _______ _______ _______ _____ _____    ______ ____
ROOT
ATOM      1  C   UNL     1      -9.888  54.897  50.862  0.00  0.00    +0.000 A 
ATOM      2  S   UNL     1      -9.957  54.938  52.559  0.00  0.00    +0.000 S 
ATOM      3  C   UNL     1      -9.329  53.732  50.360  0.00  0.00    +0.000 A 
ATOM      4  C   UNL     1      -9.517  53.296  52.662  0.00  0.00    +0.000 A 
ATOM      5  C   UNL     1      -9.220  52.759  51.421  0.00  0.00    +0.000 A 
ATOM      6  C   UNL     1      -9.475  52.552  53.973  0.00  0.00    +0.000 C 
ATOM      7  C   UNL     1      -8.767  51.331  51.270  0.00  0.00    +0.000 C 
ATOM      8  C   UNL     1      -8.641  51.237  53.846  0.00  0.00    +0.000 C 
ATOM      9  C   UNL     1      -9.031  50.502  52.535  0.00  0.00    +0.000 C 
ATOM     10  C   UNL     1      -8.939  50.300  55.032  0.00  0.00    +0.000 C 
ATOM     11  C   UNL     1      -7.133  51.561  53.869  0.00  0.00    +0.000 C 
ENDROOT
BRANCH   1  15
ATOM     12  N   UNL     1     -12.217  57.172  49.338  0.00  0.00    +0.000 N 
ATOM     13  C   UNL     1     -11.766  56.046  50.010  0.00  0.00    +0.000 C 
ATOM     14  O   UNL     1     -12.547  55.196  50.410  0.00  0.00    +0.000 OA
ATOM     15  N   UNL     1     -10.406  56.014  50.231  0.00  0.00    +0.000 N 
ATOM     16  H   UNL     1     -11.560  57.807  48.967  0.00  0.00    +0.000 HD
ATOM     17  H   UNL     1      -9.824  56.758  49.952  0.00  0.00    +0.000 HD
BRANCH  12  18
ATOM     18  S   UNL     1     -13.858  57.480  49.143  0.00  0.00    +0.000 S 
ATOM     19  O   UNL     1     -14.473  56.291  48.584  0.00  0.00    +0.000 OA
ATOM     20  O   UNL     1     -13.917  58.733  48.408  0.00  0.00    +0.000 OA
BRANCH  18  21
ATOM     21  C   UNL     1     -14.460  57.785  50.821  0.00  0.00    +0.000 A 
ATOM     22  N   UNL     1     -15.160  56.767  51.378  0.00  0.00    +0.000 NA
ATOM     23  N   UNL     1     -14.183  58.987  51.367  0.00  0.00    +0.000 NA
ATOM     24  C   UNL     1     -15.595  57.012  52.627  0.00  0.00    +0.000 A 
ATOM     25  C   UNL     1     -14.686  59.172  52.599  0.00  0.00    +0.000 A 
ATOM     26  C   UNL     1     -15.393  58.208  53.287  0.00  0.00    +0.000 A 
ENDBRANCH  18  21
ENDBRANCH  12  18
ENDBRANCH   1  15
BRANCH   3  27
ATOM     27  C   UNL     1      -8.874  53.536  48.972  0.00  0.00    +0.000 C 
ATOM     28  O   UNL     1      -7.703  53.343  48.670  0.00  0.00    +0.000 OA
BRANCH  27  29
ATOM     29  O   UNL     1      -9.868  53.761  48.064  0.00  0.00    +0.000 OA
BRANCH  29  30
ATOM     30  C   UNL     1      -9.858  52.998  46.853  0.00  0.00    +0.000 C 
ATOM     31  C   UNL     1      -9.899  53.904  45.640  0.00  0.00    +0.000 C 
ENDBRANCH  29  30
ENDBRANCH  27  29
ENDBRANCH   3  27
TORSDOF 6
ENDMDL
MODEL 6
REMARK VINA RESULT:      -6.6      3.208      7.636
REMARK  Name = 
REMARK  9 active torsions:
REMARK  status: ('A' for Active; 'I' for Inactive)
REMARK    1  A    between atoms: S_1  and  N_4
REMARK    2  A    between atoms: S_1  and  C_5
REMARK    3  A    between atoms: N_10  and  C_13
REMARK    4  A    between atoms: C_16  and  C_19
REMARK    5  A    between atoms: C_19  and  O_23
REMARK    6  A    between atoms: O_23  and  C_26
REMARK    7  A    between atoms: C_24  and  C_27
REMARK    8  A    between atoms: C_24  and  C_28
REMARK    9  A    between atoms: C_26  and  C_29
REMARK                            x       y       z     vdW  Elec       q    Type
REMARK                         _______ _______ _______ _____ _____    ______ ____
ROOT
ATOM      1  C   UNL     1     -11.411  54.499  49.866  0.00  0.00    +0.000 A 
ATOM      2  S   UNL     1     -12.053  54.571  51.438  0.00  0.00    +0.000 S 
ATOM      3  C   UNL     1     -11.949  55.443  49.005  0.00  0.00    +0.000 A 
ATOM      4  C   UNL     1     -12.844  56.039  51.095  0.00  0.00    +0.000 A 
ATOM      5  C   UNL     1     -12.704  56.409  49.768  0.00  0.00    +0.000 A 
ATOM      6  C   UNL     1     -13.595  56.817  52.147  0.00  0.00    +0.000 C 
ATOM      7  C   UNL     1     -13.354  57.653  49.225  0.00  0.00    +0.000 C 
ATOM      8  C   UNL     1     -14.565  57.853  51.495  0.00  0.00    +0.000 C 
ATOM      9  C   UNL     1     -13.834  58.591  50.341  0.00  0.00    +0.000 C 
ATOM     10  C   UNL     1     -15.005  58.900  52.535  0.00  0.00    +0.000 C 
ATOM     11  C   UNL     1     -15.832  57.140  50.978  0.00  0.00    +0.000 C 
ENDROOT
BRANCH   1  15
ATOM     12  N   UNL     1      -8.284  52.731  50.020  0.00  0.00    +0.000 N 
ATOM     13  C   UNL     1      -9.222  53.719  50.282  0.00  0.00    +0.000 C 
ATOM     14  O   UNL     1      -8.968  54.644  51.040  0.00  0.00    +0.000 OA
ATOM     15  N   UNL     1     -10.445  53.527  49.676  0.00  0.00    +0.000 N 
ATOM     16  H   UNL     1      -8.491  52.036  49.353  0.00  0.00    +0.000 HD
ATOM     17  H   UNL     1     -10.625  52.727  49.129  0.00  0.00    +0.000 HD
BRANCH  12  18
ATOM     18  S   UNL     1      -6.804  52.693  50.817  0.00  0.00    +0.000 S 
ATOM     19  O   UNL     1      -6.267  54.041  50.830  0.00  0.00    +0.000 OA
ATOM     20  O   UNL     1      -6.058  51.629  50.164  0.00  0.00    +0.000 OA
BRANCH  18  21
ATOM     21  C   UNL     1      -7.210  52.147  52.492  0.00  0.00    +0.000 A 
ATOM     22  N   UNL     1      -8.266  51.303  52.585  0.00  0.00    +0.000 NA
ATOM     23  N   UNL     1      -6.453  52.631  53.499  0.00  0.00    +0.000 NA
ATOM     24  C   UNL     1      -8.549  50.906  53.839  0.00  0.00    +0.000 A 
ATOM     25  C   UNL     1      -6.823  52.222  54.725  0.00  0.00    +0.000 A 
ATOM     26  C   UNL     1      -7.862  51.344  54.954  0.00  0.00    +0.000 A 
ENDBRANCH  18  21
ENDBRANCH  12  18
ENDBRANCH   1  15
BRANCH   3  27
ATOM     27  C   UNL     1     -11.812  55.432  47.538  0.00  0.00    +0.000 C 
ATOM     28  O   UNL     1     -12.560  56.047  46.788  0.00  0.00    +0.000 OA
BRANCH  27  29
ATOM     29  O   UNL     1     -10.873  54.537  47.112  0.00  0.00    +0.000 OA
BRANCH  29  30
ATOM     30  C   UNL     1      -9.803  55.023  46.294  0.00  0.00    +0.000 C 
ATOM     31  C   UNL     1      -8.552  55.253  47.117  0.00  0.00    +0.000 C 
ENDBRANCH  29  30
ENDBRANCH  27  29
ENDBRANCH   3  27
TORSDOF 6
ENDMDL
MODEL 7
REMARK VINA RESULT:      -6.5      4.005      7.447
REMARK  Name = 
REMARK  9 active torsions:
REMARK  status: ('A' for Active; 'I' for Inactive)
REMARK    1  A    between atoms: S_1  and  N_4
REMARK    2  A    between atoms: S_1  and  C_5
REMARK    3  A    between atoms: N_10  and  C_13
REMARK    4  A    between atoms: C_16  and  C_19
REMARK    5  A    between atoms: C_19  and  O_23
REMARK    6  A    between atoms: O_23  and  C_26
REMARK    7  A    between atoms: C_24  and  C_27
REMARK    8  A    between atoms: C_24  and  C_28
REMARK    9  A    between atoms: C_26  and  C_29
REMARK                            x       y       z     vdW  Elec       q    Type
REMARK                         _______ _______ _______ _____ _____    ______ ____
ROOT
ATOM      1  C   UNL     1     -11.302  54.829  50.019  0.00  0.00    +0.000 A 
ATOM      2  S   UNL     1     -11.753  54.897  51.655  0.00  0.00    +0.000 S 
ATOM      3  C   UNL     1     -12.078  55.631  49.197  0.00  0.00    +0.000 A 
ATOM      4  C   UNL     1     -12.795  56.211  51.359  0.00  0.00    +0.000 A 
ATOM      5  C   UNL     1     -12.875  56.518  50.012  0.00  0.00    +0.000 A 
ATOM      6  C   UNL     1     -13.524  56.929  52.467  0.00  0.00    +0.000 C 
ATOM      7  C   UNL     1     -13.769  57.619  49.507  0.00  0.00    +0.000 C 
ATOM      8  C   UNL     1     -14.713  57.771  51.903  0.00  0.00    +0.000 C 
ATOM      9  C   UNL     1     -14.249  58.540  50.637  0.00  0.00    +0.000 C 
ATOM     10  C   UNL     1     -15.181  58.801  52.949  0.00  0.00    +0.000 C 
ATOM     11  C   UNL     1     -15.909  56.850  51.582  0.00  0.00    +0.000 C 
ENDROOT
BRANCH   1  15
ATOM     12  N   UNL     1      -9.352  51.867  49.427  0.00  0.00    +0.000 N 
ATOM     13  C   UNL     1     -10.474  52.646  49.662  0.00  0.00    +0.000 C 
ATOM     14  O   UNL     1     -11.587  52.145  49.729  0.00  0.00    +0.000 OA
ATOM     15  N   UNL     1     -10.228  54.000  49.745  0.00  0.00    +0.000 N 
ATOM     16  H   UNL     1      -8.461  52.287  49.447  0.00  0.00    +0.000 HD
ATOM     17  H   UNL     1      -9.322  54.364  49.614  0.00  0.00    +0.000 HD
BRANCH  12  18
ATOM     18  S   UNL     1      -9.478  50.220  49.108  0.00  0.00    +0.000 S 
ATOM     19  O   UNL     1     -10.305  49.626  50.141  0.00  0.00    +0.000 OA
ATOM     20  O   UNL     1      -8.106  49.768  48.938  0.00  0.00    +0.000 OA
BRANCH  18  21
ATOM     21  C   UNL     1     -10.300  50.136  47.500  0.00  0.00    +0.000 A 
ATOM     22  N   UNL     1     -11.418  49.371  47.462  0.00  0.00    +0.000 NA
ATOM     23  N   UNL     1      -9.734  50.816  46.481  0.00  0.00    +0.000 NA
ATOM     24  C   UNL     1     -12.016  49.325  46.258  0.00  0.00    +0.000 A 
ATOM     25  C   UNL     1     -10.366  50.688  45.302  0.00  0.00    +0.000 A 
ATOM     26  C   UNL     1     -11.526  49.961  45.135  0.00  0.00    +0.000 A 
ENDBRANCH  18  21
ENDBRANCH  12  18
ENDBRANCH   1  15
BRANCH   3  27
ATOM     27  C   UNL     1     -12.119  55.555  47.726  0.00  0.00    +0.000 C 
ATOM     28  O   UNL     1     -12.616  56.424  47.021  0.00  0.00    +0.000 OA
BRANCH  27  29
ATOM     29  O   UNL     1     -11.696  54.344  47.258  0.00  0.00    +0.000 OA
BRANCH  29  30
ATOM     30  C   UNL     1     -10.767  54.330  46.169  0.00  0.00    +0.000 C 
ATOM     31  C   UNL     1      -9.483  55.042  46.543  0.00  0.00    +0.000 C 
ENDBRANCH  29  30
ENDBRANCH  27  29
ENDBRANCH   3  27
TORSDOF 6
ENDMDL
MODEL 8
REMARK VINA RESULT:      -6.5      2.522      4.028
REMARK  Name = 
REMARK  9 active torsions:
REMARK  status: ('A' for Active; 'I' for Inactive)
REMARK    1  A    between atoms: S_1  and  N_4
REMARK    2  A    between atoms: S_1  and  C_5
REMARK    3  A    between atoms: N_10  and  C_13
REMARK    4  A    between atoms: C_16  and  C_19
REMARK    5  A    between atoms: C_19  and  O_23
REMARK    6  A    between atoms: O_23  and  C_26
REMARK    7  A    between atoms: C_24  and  C_27
REMARK    8  A    between atoms: C_24  and  C_28
REMARK    9  A    between atoms: C_26  and  C_29
REMARK                            x       y       z     vdW  Elec       q    Type
REMARK                         _______ _______ _______ _____ _____    ______ ____
ROOT
ATOM      1  C   UNL     1     -11.345  53.515  49.908  0.00  0.00    +0.000 A 
ATOM      2  S   UNL     1     -10.867  54.023  48.358  0.00  0.00    +0.000 S 
ATOM      3  C   UNL     1     -10.367  52.800  50.582  0.00  0.00    +0.000 A 
ATOM      4  C   UNL     1      -9.255  53.560  48.655  0.00  0.00    +0.000 A 
ATOM      5  C   UNL     1      -9.112  52.931  49.880  0.00  0.00    +0.000 A 
ATOM      6  C   UNL     1      -8.143  53.829  47.673  0.00  0.00    +0.000 C 
ATOM      7  C   UNL     1      -7.781  52.398  50.341  0.00  0.00    +0.000 C 
ATOM      8  C   UNL     1      -6.896  52.940  47.978  0.00  0.00    +0.000 C 
ATOM      9  C   UNL     1      -6.616  52.947  49.505  0.00  0.00    +0.000 C 
ATOM     10  C   UNL     1      -5.654  53.498  47.257  0.00  0.00    +0.000 C 
ATOM     11  C   UNL     1      -7.131  51.504  47.467  0.00  0.00    +0.000 C 
ENDROOT
BRANCH   1  15
ATOM     12  N   UNL     1     -14.056  55.362  51.378  0.00  0.00    +0.000 N 
ATOM     13  C   UNL     1     -12.756  55.057  51.005  0.00  0.00    +0.000 C 
ATOM     14  O   UNL     1     -11.831  55.811  51.271  0.00  0.00    +0.000 OA
ATOM     15  N   UNL     1     -12.623  53.895  50.276  0.00  0.00    +0.000 N 
ATOM     16  H   UNL     1     -14.772  54.705  51.211  0.00  0.00    +0.000 HD
ATOM     17  H   UNL     1     -13.409  53.356  50.025  0.00  0.00    +0.000 HD
BRANCH  12  18
ATOM     18  S   UNL     1     -14.441  56.828  52.106  0.00  0.00    +0.000 S 
ATOM     19  O   UNL     1     -13.426  57.112  53.103  0.00  0.00    +0.000 OA
ATOM     20  O   UNL     1     -15.829  56.688  52.514  0.00  0.00    +0.000 OA
BRANCH  18  21
ATOM     21  C   UNL     1     -14.369  58.031  50.758  0.00  0.00    +0.000 A 
ATOM     22  N   UNL     1     -14.126  57.510  49.531  0.00  0.00    +0.000 NA
ATOM     23  N   UNL     1     -14.544  59.330  51.079  0.00  0.00    +0.000 NA
ATOM     24  C   UNL     1     -14.080  58.420  48.542  0.00  0.00    +0.000 A 
ATOM     25  C   UNL     1     -14.443  60.182  50.045  0.00  0.00    +0.000 A 
ATOM     26  C   UNL     1     -14.225  59.779  48.745  0.00  0.00    +0.000 A 
ENDBRANCH  18  21
ENDBRANCH  12  18
ENDBRANCH   1  15
BRANCH   3  27
ATOM     27  C   UNL     1     -10.588  51.993  51.794  0.00  0.00    +0.000 C 
ATOM     28  O   UNL     1     -11.365  51.048  51.842  0.00  0.00    +0.000 OA
BRANCH  27  29
ATOM     29  O   UNL     1      -9.960  52.518  52.887  0.00  0.00    +0.000 OA
BRANCH  29  30
ATOM     30  C   UNL     1      -9.221  51.628  53.731  0.00  0.00    +0.000 C 
ATOM     31  C   UNL     1      -7.878  52.222  54.103  0.00  0.00    +0.000 C 
ENDBRANCH  29  30
ENDBRANCH  27  29
ENDBRANCH   3  27
TORSDOF 6
ENDMDL
MODEL 9
REMARK VINA RESULT:      -6.5      4.059      7.587
REMARK  Name = 
REMARK  9 active torsions:
REMARK  status: ('A' for Active; 'I' for Inactive)
REMARK    1  A    between atoms: S_1  and  N_4
REMARK    2  A    between atoms: S_1  and  C_5
REMARK    3  A    between atoms: N_10  and  C_13
REMARK    4  A    between atoms: C_16  and  C_19
REMARK    5  A    between atoms: C_19  and  O_23
REMARK    6  A    between atoms: O_23  and  C_26
REMARK    7  A    between atoms: C_24  and  C_27
REMARK    8  A    between atoms: C_24  and  C_28
REMARK    9  A    between atoms: C_26  and  C_29
REMARK                            x       y       z     vdW  Elec       q    Type
REMARK                         _______ _______ _______ _____ _____    ______ ____
ROOT
ATOM      1  C   UNL     1     -10.931  54.586  50.033  0.00  0.00    +0.000 A 
ATOM      2  S   UNL     1     -11.668  54.628  51.564  0.00  0.00    +0.000 S 
ATOM      3  C   UNL     1     -11.509  55.452  49.118  0.00  0.00    +0.000 A 
ATOM      4  C   UNL     1     -12.581  56.000  51.137  0.00  0.00    +0.000 A 
ATOM      5  C   UNL     1     -12.401  56.353  49.810  0.00  0.00    +0.000 A 
ATOM      6  C   UNL     1     -13.466  56.721  52.122  0.00  0.00    +0.000 C 
ATOM      7  C   UNL     1     -13.139  57.513  49.196  0.00  0.00    +0.000 C 
ATOM      8  C   UNL     1     -14.495  57.638  51.388  0.00  0.00    +0.000 C 
ATOM      9  C   UNL     1     -13.775  58.421  50.257  0.00  0.00    +0.000 C 
ATOM     10  C   UNL     1     -15.098  58.658  52.373  0.00  0.00    +0.000 C 
ATOM     11  C   UNL     1     -15.652  56.790  50.821  0.00  0.00    +0.000 C 
ENDROOT
BRANCH   1  15
ATOM     12  N   UNL     1      -9.017  51.616  49.375  0.00  0.00    +0.000 N 
ATOM     13  C   UNL     1     -10.118  52.456  49.419  0.00  0.00    +0.000 C 
ATOM     14  O   UNL     1     -11.203  52.098  48.983  0.00  0.00    +0.000 OA
ATOM     15  N   UNL     1      -9.863  53.713  49.925  0.00  0.00    +0.000 N 
ATOM     16  H   UNL     1      -8.173  51.904  49.794  0.00  0.00    +0.000 HD
ATOM     17  H   UNL     1      -8.955  53.979  50.199  0.00  0.00    +0.000 HD
BRANCH  12  18
ATOM     18  S   UNL     1      -9.087  50.115  48.618  0.00  0.00    +0.000 S 
ATOM     19  O   UNL     1     -10.303  49.453  49.050  0.00  0.00    +0.000 OA
ATOM     20  O   UNL     1      -7.799  49.500  48.892  0.00  0.00    +0.000 OA
BRANCH  18  21
ATOM     21  C   UNL     1      -9.161  50.505  46.854  0.00  0.00    +0.000 A 
ATOM     22  N   UNL     1     -10.294  50.113  46.223  0.00  0.00    +0.000 NA
ATOM     23  N   UNL     1      -8.093  51.128  46.315  0.00  0.00    +0.000 NA
ATOM     24  C   UNL     1     -10.330  50.416  44.912  0.00  0.00    +0.000 A 
ATOM     25  C   UNL     1      -8.186  51.359  44.994  0.00  0.00    +0.000 A 
ATOM     26  C   UNL     1      -9.294  51.034  44.240  0.00  0.00    +0.000 A 
ENDBRANCH  18  21
ENDBRANCH  12  18
ENDBRANCH   1  15
BRANCH   3  27
ATOM     27  C   UNL     1     -11.286  55.422  47.662  0.00  0.00    +0.000 C 
ATOM     28  O   UNL     1     -12.171  55.183  46.850  0.00  0.00    +0.000 OA
BRANCH  27  29
ATOM     29  O   UNL     1      -9.963  55.526  47.338  0.00  0.00    +0.000 OA
BRANCH  29  30
ATOM     30  C   UNL     1      -9.369  54.462  46.586  0.00  0.00    +0.000 C 
ATOM     31  C   UNL     1      -8.301  54.990  45.651  0.00  0.00    +0.000 C 
ENDBRANCH  29  30
ENDBRANCH  27  29
ENDBRANCH   3  27
TORSDOF 6
ENDMDL
