MODEL 1
REMARK VINA RESULT:      -7.4      0.000      0.000
REMARK  Name = 
REMARK  10 active torsions:
REMARK  status: ('A' for Active; 'I' for Inactive)
REMARK    1  A    between atoms: S_1  and  N_4
REMARK    2  A    between atoms: S_1  and  C_5
REMARK    3  A    between atoms: N_10  and  C_13
REMARK    4  A    between atoms: C_14  and  C_17
REMARK    5  A    between atoms: C_16  and  C_20
REMARK    6  A    between atoms: C_20  and  O_25
REMARK    7  A    between atoms: O_25  and  C_28
REMARK    8  A    between atoms: C_26  and  C_29
REMARK    9  A    between atoms: C_26  and  C_30
REMARK   10  A    between atoms: C_28  and  C_31
REMARK                            x       y       z     vdW  Elec       q    Type
REMARK                         _______ _______ _______ _____ _____    ______ ____
ROOT
ATOM      1  N   UNL     1      -7.939  54.002  49.396  0.00  0.00    +0.000 N 
ATOM      2  C   UNL     1      -8.994  54.874  49.640  0.00  0.00    +0.000 C 
ATOM      3  O   UNL     1      -8.793  56.054  49.897  0.00  0.00    +0.000 OA
ATOM      4  N   UNL     1     -10.228  54.261  49.679  0.00  0.00    +0.000 N 
ATOM      5  H   UNL     1      -8.154  53.062  49.199  0.00  0.00    +0.000 HD
ATOM      6  H   UNL     1     -10.323  53.301  49.481  0.00  0.00    +0.000 HD
ENDROOT
BRANCH   4   7
ATOM      7  C   UNL     1     -11.333  55.033  50.007  0.00  0.00    +0.000 A 
ATOM      8  S   UNL     1     -11.681  55.149  51.667  0.00  0.00    +0.000 S 
ATOM      9  C   UNL     1     -12.190  55.774  49.214  0.00  0.00    +0.000 A 
ATOM     10  C   UNL     1     -12.818  56.394  51.390  0.00  0.00    +0.000 A 
ATOM     11  C   UNL     1     -12.999  56.643  50.041  0.00  0.00    +0.000 A 
ATOM     12  C   UNL     1     -13.531  57.119  52.509  0.00  0.00    +0.000 C 
ATOM     13  C   UNL     1     -13.990  57.658  49.549  0.00  0.00    +0.000 C 
ATOM     14  C   UNL     1     -14.809  57.844  51.983  0.00  0.00    +0.000 C 
ATOM     15  C   UNL     1     -14.474  58.586  50.664  0.00  0.00    +0.000 C 
ATOM     16  C   UNL     1     -15.297  58.896  52.996  0.00  0.00    +0.000 C 
ATOM     17  C   UNL     1     -15.948  56.828  51.769  0.00  0.00    +0.000 C 
BRANCH   9  18
ATOM     18  C   UNL     1     -12.220  55.656  47.757  0.00  0.00    +0.000 C 
ATOM     19  O   UNL     1     -12.568  56.568  47.016  0.00  0.00    +0.000 OA
BRANCH  18  20
ATOM     20  O   UNL     1     -11.820  54.427  47.331  0.00  0.00    +0.000 OA
BRANCH  20  21
ATOM     21  C   UNL     1     -10.913  54.382  46.226  0.00  0.00    +0.000 C 
ATOM     22  C   UNL     1     -11.556  53.640  45.073  0.00  0.00    +0.000 C 
ENDBRANCH  20  21
ENDBRANCH  18  20
ENDBRANCH   9  18
ENDBRANCH   4   7
BRANCH   1  23
ATOM     23  S   UNL     1      -6.333  54.449  49.414  0.00  0.00    +0.000 S 
ATOM     24  O   UNL     1      -6.232  55.823  49.855  0.00  0.00    +0.000 OA
ATOM     25  O   UNL     1      -5.803  54.047  48.125  0.00  0.00    +0.000 OA
BRANCH  23  26
ATOM     26  C   UNL     1      -5.570  53.392  50.628  0.00  0.00    +0.000 A 
ATOM     27  C   UNL     1      -4.174  53.317  50.713  0.00  0.00    +0.000 A 
ATOM     28  C   UNL     1      -6.371  52.670  51.516  0.00  0.00    +0.000 A 
ATOM     29  C   UNL     1      -3.588  52.479  51.670  0.00  0.00    +0.000 A 
ATOM     30  C   UNL     1      -5.781  51.837  52.473  0.00  0.00    +0.000 A 
ATOM     31  C   UNL     1      -4.388  51.730  52.545  0.00  0.00    +0.000 A 
BRANCH  31  32
ATOM     32  C   UNL     1      -3.784  50.859  53.515  0.00  0.00    +0.000 C 
ATOM     33  N   UNL     1      -3.304  50.151  54.296  0.00  0.00    +0.000 NA
ENDBRANCH  31  32
ENDBRANCH  23  26
ENDBRANCH   1  23
TORSDOF 7
ENDMDL
MODEL 2
REMARK VINA RESULT:      -7.3      1.726      2.023
REMARK  Name = 
REMARK  10 active torsions:
REMARK  status: ('A' for Active; 'I' for Inactive)
REMARK    1  A    between atoms: S_1  and  N_4
REMARK    2  A    between atoms: S_1  and  C_5
REMARK    3  A    between atoms: N_10  and  C_13
REMARK    4  A    between atoms: C_14  and  C_17
REMARK    5  A    between atoms: C_16  and  C_20
REMARK    6  A    between atoms: C_20  and  O_25
REMARK    7  A    between atoms: O_25  and  C_28
REMARK    8  A    between atoms: C_26  and  C_29
REMARK    9  A    between atoms: C_26  and  C_30
REMARK   10  A    between atoms: C_28  and  C_31
REMARK                            x       y       z     vdW  Elec       q    Type
REMARK                         _______ _______ _______ _____ _____    ______ ____
ROOT
ATOM      1  N   UNL     1      -8.456  52.475  48.624  0.00  0.00    +0.000 N 
ATOM      2  C   UNL     1      -9.327  53.538  48.826  0.00  0.00    +0.000 C 
ATOM      3  O   UNL     1      -8.926  54.695  48.830  0.00  0.00    +0.000 OA
ATOM      4  N   UNL     1     -10.615  53.154  49.133  0.00  0.00    +0.000 N 
ATOM      5  H   UNL     1      -8.827  51.564  48.636  0.00  0.00    +0.000 HD
ATOM      6  H   UNL     1     -10.873  52.203  49.133  0.00  0.00    +0.000 HD
ENDROOT
BRANCH   4   7
ATOM      7  C   UNL     1     -11.539  54.142  49.442  0.00  0.00    +0.000 A 
ATOM      8  S   UNL     1     -12.003  54.226  51.075  0.00  0.00    +0.000 S 
ATOM      9  C   UNL     1     -12.124  55.116  48.654  0.00  0.00    +0.000 A 
ATOM     10  C   UNL     1     -12.792  55.721  50.822  0.00  0.00    +0.000 A 
ATOM     11  C   UNL     1     -12.784  56.095  49.490  0.00  0.00    +0.000 A 
ATOM     12  C   UNL     1     -13.419  56.518  51.943  0.00  0.00    +0.000 C 
ATOM     13  C   UNL     1     -13.465  57.345  49.015  0.00  0.00    +0.000 C 
ATOM     14  C   UNL     1     -14.441  57.559  51.388  0.00  0.00    +0.000 C 
ATOM     15  C   UNL     1     -13.824  58.286  50.166  0.00  0.00    +0.000 C 
ATOM     16  C   UNL     1     -14.766  58.627  52.449  0.00  0.00    +0.000 C 
ATOM     17  C   UNL     1     -15.759  56.858  51.003  0.00  0.00    +0.000 C 
BRANCH   9  18
ATOM     18  C   UNL     1     -12.046  55.104  47.194  0.00  0.00    +0.000 C 
ATOM     19  O   UNL     1     -12.019  56.125  46.515  0.00  0.00    +0.000 OA
BRANCH  18  20
ATOM     20  O   UNL     1     -12.006  53.841  46.690  0.00  0.00    +0.000 OA
BRANCH  20  21
ATOM     21  C   UNL     1     -11.591  53.694  45.329  0.00  0.00    +0.000 C 
ATOM     22  C   UNL     1     -10.087  53.532  45.272  0.00  0.00    +0.000 C 
ENDBRANCH  20  21
ENDBRANCH  18  20
ENDBRANCH   9  18
ENDBRANCH   4   7
BRANCH   1  23
ATOM     23  S   UNL     1      -6.818  52.646  48.360  0.00  0.00    +0.000 S 
ATOM     24  O   UNL     1      -6.608  53.661  47.353  0.00  0.00    +0.000 OA
ATOM     25  O   UNL     1      -6.313  51.300  48.168  0.00  0.00    +0.000 OA
BRANCH  23  26
ATOM     26  C   UNL     1      -6.154  53.220  49.910  0.00  0.00    +0.000 A 
ATOM     27  C   UNL     1      -6.866  53.012  51.098  0.00  0.00    +0.000 A 
ATOM     28  C   UNL     1      -4.903  53.843  49.937  0.00  0.00    +0.000 A 
ATOM     29  C   UNL     1      -6.333  53.472  52.309  0.00  0.00    +0.000 A 
ATOM     30  C   UNL     1      -4.373  54.297  51.150  0.00  0.00    +0.000 A 
ATOM     31  C   UNL     1      -5.091  54.123  52.337  0.00  0.00    +0.000 A 
BRANCH  31  32
ATOM     32  C   UNL     1      -4.555  54.608  53.579  0.00  0.00    +0.000 C 
ATOM     33  N   UNL     1      -4.130  54.993  54.585  0.00  0.00    +0.000 NA
ENDBRANCH  31  32
ENDBRANCH  23  26
ENDBRANCH   1  23
TORSDOF 7
ENDMDL
MODEL 3
REMARK VINA RESULT:      -7.3      2.492      8.759
REMARK  Name = 
REMARK  10 active torsions:
REMARK  status: ('A' for Active; 'I' for Inactive)
REMARK    1  A    between atoms: S_1  and  N_4
REMARK    2  A    between atoms: S_1  and  C_5
REMARK    3  A    between atoms: N_10  and  C_13
REMARK    4  A    between atoms: C_14  and  C_17
REMARK    5  A    between atoms: C_16  and  C_20
REMARK    6  A    between atoms: C_20  and  O_25
REMARK    7  A    between atoms: O_25  and  C_28
REMARK    8  A    between atoms: C_26  and  C_29
REMARK    9  A    between atoms: C_26  and  C_30
REMARK   10  A    between atoms: C_28  and  C_31
REMARK                            x       y       z     vdW  Elec       q    Type
REMARK                         _______ _______ _______ _____ _____    ______ ____
ROOT
ATOM      1  N   UNL     1     -11.617  56.767  49.236  0.00  0.00    +0.000 N 
ATOM      2  C   UNL     1     -10.611  55.879  49.599  0.00  0.00    +0.000 C 
ATOM      3  O   UNL     1     -10.872  54.733  49.943  0.00  0.00    +0.000 OA
ATOM      4  N   UNL     1      -9.356  56.446  49.646  0.00  0.00    +0.000 N 
ATOM      5  H   UNL     1     -11.355  57.678  48.973  0.00  0.00    +0.000 HD
ATOM      6  H   UNL     1      -9.213  57.382  49.375  0.00  0.00    +0.000 HD
ENDROOT
BRANCH   4   7
ATOM      7  C   UNL     1      -8.298  55.663  50.087  0.00  0.00    +0.000 A 
ATOM      8  S   UNL     1      -7.878  55.852  51.723  0.00  0.00    +0.000 S 
ATOM      9  C   UNL     1      -7.542  54.708  49.432  0.00  0.00    +0.000 A 
ATOM     10  C   UNL     1      -6.856  54.483  51.667  0.00  0.00    +0.000 A 
ATOM     11  C   UNL     1      -6.763  53.955  50.391  0.00  0.00    +0.000 A 
ATOM     12  C   UNL     1      -6.148  53.937  52.885  0.00  0.00    +0.000 C 
ATOM     13  C   UNL     1      -5.879  52.782  50.083  0.00  0.00    +0.000 C 
ATOM     14  C   UNL     1      -4.957  53.015  52.476  0.00  0.00    +0.000 C 
ATOM     15  C   UNL     1      -5.413  52.056  51.347  0.00  0.00    +0.000 C 
ATOM     16  C   UNL     1      -4.502  52.149  53.665  0.00  0.00    +0.000 C 
ATOM     17  C   UNL     1      -3.755  53.867  52.023  0.00  0.00    +0.000 C 
BRANCH   9  18
ATOM     18  C   UNL     1      -7.575  54.531  47.981  0.00  0.00    +0.000 C 
ATOM     19  O   UNL     1      -6.597  54.703  47.262  0.00  0.00    +0.000 OA
BRANCH  18  20
ATOM     20  O   UNL     1      -8.804  54.157  47.535  0.00  0.00    +0.000 OA
BRANCH  20  21
ATOM     21  C   UNL     1      -9.292  54.796  46.352  0.00  0.00    +0.000 C 
ATOM     22  C   UNL     1     -10.781  54.554  46.223  0.00  0.00    +0.000 C 
ENDBRANCH  20  21
ENDBRANCH  18  20
ENDBRANCH   9  18
ENDBRANCH   4   7
BRANCH   1  23
ATOM     23  S   UNL     1     -13.240  56.384  49.217  0.00  0.00    +0.000 S 
ATOM     24  O   UNL     1     -13.393  54.975  49.500  0.00  0.00    +0.000 OA
ATOM     25  O   UNL     1     -13.757  56.951  47.986  0.00  0.00    +0.000 OA
BRANCH  23  26
ATOM     26  C   UNL     1     -13.956  57.325  50.548  0.00  0.00    +0.000 A 
ATOM     27  C   UNL     1     -13.948  56.815  51.852  0.00  0.00    +0.000 A 
ATOM     28  C   UNL     1     -14.491  58.590  50.289  0.00  0.00    +0.000 A 
ATOM     29  C   UNL     1     -14.518  57.565  52.888  0.00  0.00    +0.000 A 
ATOM     30  C   UNL     1     -15.057  59.338  51.328  0.00  0.00    +0.000 A 
ATOM     31  C   UNL     1     -15.082  58.823  52.628  0.00  0.00    +0.000 A 
BRANCH  31  32
ATOM     32  C   UNL     1     -15.681  59.583  53.691  0.00  0.00    +0.000 C 
ATOM     33  N   UNL     1     -16.162  60.204  54.541  0.00  0.00    +0.000 NA
ENDBRANCH  31  32
ENDBRANCH  23  26
ENDBRANCH   1  23
TORSDOF 7
ENDMDL
MODEL 4
REMARK VINA RESULT:      -7.2      1.794      2.109
REMARK  Name = 
REMARK  10 active torsions:
REMARK  status: ('A' for Active; 'I' for Inactive)
REMARK    1  A    between atoms: S_1  and  N_4
REMARK    2  A    between atoms: S_1  and  C_5
REMARK    3  A    between atoms: N_10  and  C_13
REMARK    4  A    between atoms: C_14  and  C_17
REMARK    5  A    between atoms: C_16  and  C_20
REMARK    6  A    between atoms: C_20  and  O_25
REMARK    7  A    between atoms: O_25  and  C_28
REMARK    8  A    between atoms: C_26  and  C_29
REMARK    9  A    between atoms: C_26  and  C_30
REMARK   10  A    between atoms: C_28  and  C_31
REMARK                            x       y       z     vdW  Elec       q    Type
REMARK                         _______ _______ _______ _____ _____    ______ ____
ROOT
ATOM      1  N   UNL     1      -8.196  53.836  49.921  0.00  0.00    +0.000 N 
ATOM      2  C   UNL     1      -9.211  54.690  50.338  0.00  0.00    +0.000 C 
ATOM      3  O   UNL     1      -9.087  55.377  51.343  0.00  0.00    +0.000 OA
ATOM      4  N   UNL     1     -10.366  54.588  49.593  0.00  0.00    +0.000 N 
ATOM      5  H   UNL     1      -8.347  53.301  49.110  0.00  0.00    +0.000 HD
ATOM      6  H   UNL     1     -10.410  54.001  48.804  0.00  0.00    +0.000 HD
ENDROOT
BRANCH   4   7
ATOM      7  C   UNL     1     -11.468  55.333  49.987  0.00  0.00    +0.000 A 
ATOM      8  S   UNL     1     -11.839  55.275  51.646  0.00  0.00    +0.000 S 
ATOM      9  C   UNL     1     -12.305  56.166  49.267  0.00  0.00    +0.000 A 
ATOM     10  C   UNL     1     -12.958  56.556  51.488  0.00  0.00    +0.000 A 
ATOM     11  C   UNL     1     -13.117  56.951  50.171  0.00  0.00    +0.000 A 
ATOM     12  C   UNL     1     -13.679  57.166  52.669  0.00  0.00    +0.000 C 
ATOM     13  C   UNL     1     -14.090  58.024  49.778  0.00  0.00    +0.000 C 
ATOM     14  C   UNL     1     -14.941  57.959  52.207  0.00  0.00    +0.000 C 
ATOM     15  C   UNL     1     -14.581  58.834  50.980  0.00  0.00    +0.000 C 
ATOM     16  C   UNL     1     -15.433  58.902  53.321  0.00  0.00    +0.000 C 
ATOM     17  C   UNL     1     -16.088  56.985  51.871  0.00  0.00    +0.000 C 
BRANCH   9  18
ATOM     18  C   UNL     1     -12.316  56.204  47.805  0.00  0.00    +0.000 C 
ATOM     19  O   UNL     1     -13.261  56.632  47.152  0.00  0.00    +0.000 OA
BRANCH  18  20
ATOM     20  O   UNL     1     -11.166  55.714  47.268  0.00  0.00    +0.000 OA
BRANCH  20  21
ATOM     21  C   UNL     1     -11.294  54.788  46.186  0.00  0.00    +0.000 C 
ATOM     22  C   UNL     1      -9.972  54.082  45.964  0.00  0.00    +0.000 C 
ENDBRANCH  20  21
ENDBRANCH  18  20
ENDBRANCH   9  18
ENDBRANCH   4   7
BRANCH   1  23
ATOM     23  S   UNL     1      -6.738  53.662  50.712  0.00  0.00    +0.000 S 
ATOM     24  O   UNL     1      -6.241  54.970  51.075  0.00  0.00    +0.000 OA
ATOM     25  O   UNL     1      -5.947  52.778  49.877  0.00  0.00    +0.000 OA
BRANCH  23  26
ATOM     26  C   UNL     1      -7.118  52.752  52.195  0.00  0.00    +0.000 A 
ATOM     27  C   UNL     1      -6.418  53.017  53.379  0.00  0.00    +0.000 A 
ATOM     28  C   UNL     1      -8.142  51.802  52.178  0.00  0.00    +0.000 A 
ATOM     29  C   UNL     1      -6.726  52.292  54.537  0.00  0.00    +0.000 A 
ATOM     30  C   UNL     1      -8.448  51.081  53.338  0.00  0.00    +0.000 A 
ATOM     31  C   UNL     1      -7.734  51.316  54.518  0.00  0.00    +0.000 A 
BRANCH  31  32
ATOM     32  C   UNL     1      -8.036  50.562  55.703  0.00  0.00    +0.000 C 
ATOM     33  N   UNL     1      -8.270  49.951  56.658  0.00  0.00    +0.000 NA
ENDBRANCH  31  32
ENDBRANCH  23  26
ENDBRANCH   1  23
TORSDOF 7
ENDMDL
MODEL 5
REMARK VINA RESULT:      -7.2      2.941      9.524
REMARK  Name = 
REMARK  10 active torsions:
REMARK  status: ('A' for Active; 'I' for Inactive)
REMARK    1  A    between atoms: S_1  and  N_4
REMARK    2  A    between atoms: S_1  and  C_5
REMARK    3  A    between atoms: N_10  and  C_13
REMARK    4  A    between atoms: C_14  and  C_17
REMARK    5  A    between atoms: C_16  and  C_20
REMARK    6  A    between atoms: C_20  and  O_25
REMARK    7  A    between atoms: O_25  and  C_28
REMARK    8  A    between atoms: C_26  and  C_29
REMARK    9  A    between atoms: C_26  and  C_30
REMARK   10  A    between atoms: C_28  and  C_31
REMARK                            x       y       z     vdW  Elec       q    Type
REMARK                         _______ _______ _______ _____ _____    ______ ____
ROOT
ATOM      1  N   UNL     1     -11.726  56.849  49.626  0.00  0.00    +0.000 N 
ATOM      2  C   UNL     1     -10.798  55.857  49.331  0.00  0.00    +0.000 C 
ATOM      3  O   UNL     1     -11.151  54.774  48.884  0.00  0.00    +0.000 OA
ATOM      4  N   UNL     1      -9.508  56.173  49.699  0.00  0.00    +0.000 N 
ATOM      5  H   UNL     1     -11.392  57.701  49.988  0.00  0.00    +0.000 HD
ATOM      6  H   UNL     1      -9.290  57.058  50.073  0.00  0.00    +0.000 HD
ENDROOT
BRANCH   4   7
ATOM      7  C   UNL     1      -8.524  55.210  49.530  0.00  0.00    +0.000 A 
ATOM      8  S   UNL     1      -7.913  55.054  47.951  0.00  0.00    +0.000 S 
ATOM      9  C   UNL     1      -7.909  54.371  50.442  0.00  0.00    +0.000 A 
ATOM     10  C   UNL     1      -6.638  54.054  48.493  0.00  0.00    +0.000 A 
ATOM     11  C   UNL     1      -6.740  53.764  49.843  0.00  0.00    +0.000 A 
ATOM     12  C   UNL     1      -5.541  53.555  47.580  0.00  0.00    +0.000 C 
ATOM     13  C   UNL     1      -5.764  52.857  50.534  0.00  0.00    +0.000 C 
ATOM     14  C   UNL     1      -4.807  52.326  48.203  0.00  0.00    +0.000 C 
ATOM     15  C   UNL     1      -4.508  52.608  49.697  0.00  0.00    +0.000 C 
ATOM     16  C   UNL     1      -3.461  52.078  47.499  0.00  0.00    +0.000 C 
ATOM     17  C   UNL     1      -5.666  51.056  48.044  0.00  0.00    +0.000 C 
BRANCH   9  18
ATOM     18  C   UNL     1      -8.413  54.174  51.800  0.00  0.00    +0.000 C 
ATOM     19  O   UNL     1      -8.827  53.096  52.213  0.00  0.00    +0.000 OA
BRANCH  18  20
ATOM     20  O   UNL     1      -8.365  55.315  52.538  0.00  0.00    +0.000 OA
BRANCH  20  21
ATOM     21  C   UNL     1      -7.084  55.727  53.023  0.00  0.00    +0.000 C 
ATOM     22  C   UNL     1      -6.775  55.003  54.316  0.00  0.00    +0.000 C 
ENDBRANCH  20  21
ENDBRANCH  18  20
ENDBRANCH   9  18
ENDBRANCH   4   7
BRANCH   1  23
ATOM     23  S   UNL     1     -13.371  56.687  49.401  0.00  0.00    +0.000 S 
ATOM     24  O   UNL     1     -13.724  55.290  49.509  0.00  0.00    +0.000 OA
ATOM     25  O   UNL     1     -13.673  57.435  48.195  0.00  0.00    +0.000 OA
BRANCH  23  26
ATOM     26  C   UNL     1     -14.115  57.580  50.751  0.00  0.00    +0.000 A 
ATOM     27  C   UNL     1     -14.090  57.045  52.044  0.00  0.00    +0.000 A 
ATOM     28  C   UNL     1     -14.689  58.833  50.516  0.00  0.00    +0.000 A 
ATOM     29  C   UNL     1     -14.682  57.758  53.095  0.00  0.00    +0.000 A 
ATOM     30  C   UNL     1     -15.276  59.543  51.569  0.00  0.00    +0.000 A 
ATOM     31  C   UNL     1     -15.285  59.002  52.859  0.00  0.00    +0.000 A 
BRANCH  31  32
ATOM     32  C   UNL     1     -15.906  59.723  53.936  0.00  0.00    +0.000 C 
ATOM     33  N   UNL     1     -16.414  60.304  54.799  0.00  0.00    +0.000 NA
ENDBRANCH  31  32
ENDBRANCH  23  26
ENDBRANCH   1  23
TORSDOF 7
ENDMDL
MODEL 6
REMARK VINA RESULT:      -7.1      2.216      5.804
REMARK  Name = 
REMARK  10 active torsions:
REMARK  status: ('A' for Active; 'I' for Inactive)
REMARK    1  A    between atoms: S_1  and  N_4
REMARK    2  A    between atoms: S_1  and  C_5
REMARK    3  A    between atoms: N_10  and  C_13
REMARK    4  A    between atoms: C_14  and  C_17
REMARK    5  A    between atoms: C_16  and  C_20
REMARK    6  A    between atoms: C_20  and  O_25
REMARK    7  A    between atoms: O_25  and  C_28
REMARK    8  A    between atoms: C_26  and  C_29
REMARK    9  A    between atoms: C_26  and  C_30
REMARK   10  A    between atoms: C_28  and  C_31
REMARK                            x       y       z     vdW  Elec       q    Type
REMARK                         _______ _______ _______ _____ _____    ______ ____
ROOT
ATOM      1  N   UNL     1      -7.963  56.024  50.869  0.00  0.00    +0.000 N 
ATOM      2  C   UNL     1      -8.449  55.212  49.851  0.00  0.00    +0.000 C 
ATOM      3  O   UNL     1      -8.762  54.048  50.064  0.00  0.00    +0.000 OA
ATOM      4  N   UNL     1      -8.423  55.803  48.606  0.00  0.00    +0.000 N 
ATOM      5  H   UNL     1      -7.720  56.950  50.645  0.00  0.00    +0.000 HD
ATOM      6  H   UNL     1      -8.142  56.740  48.496  0.00  0.00    +0.000 HD
ENDROOT
BRANCH   4   7
ATOM      7  C   UNL     1      -8.803  55.041  47.511  0.00  0.00    +0.000 A 
ATOM      8  S   UNL     1      -7.548  54.199  46.732  0.00  0.00    +0.000 S 
ATOM      9  C   UNL     1     -10.048  54.805  46.957  0.00  0.00    +0.000 A 
ATOM     10  C   UNL     1      -8.665  53.297  45.805  0.00  0.00    +0.000 A 
ATOM     11  C   UNL     1      -9.970  53.708  46.017  0.00  0.00    +0.000 A 
ATOM     12  C   UNL     1      -8.247  52.188  44.867  0.00  0.00    +0.000 C 
ATOM     13  C   UNL     1     -11.122  53.100  45.272  0.00  0.00    +0.000 C 
ATOM     14  C   UNL     1      -9.375  51.870  43.836  0.00  0.00    +0.000 C 
ATOM     15  C   UNL     1     -10.738  51.796  44.569  0.00  0.00    +0.000 C 
ATOM     16  C   UNL     1      -9.134  50.505  43.165  0.00  0.00    +0.000 C 
ATOM     17  C   UNL     1      -9.402  52.943  42.729  0.00  0.00    +0.000 C 
BRANCH   9  18
ATOM     18  C   UNL     1     -11.234  55.581  47.317  0.00  0.00    +0.000 C 
ATOM     19  O   UNL     1     -11.890  56.221  46.503  0.00  0.00    +0.000 OA
BRANCH  18  20
ATOM     20  O   UNL     1     -11.514  55.507  48.646  0.00  0.00    +0.000 OA
BRANCH  20  21
ATOM     21  C   UNL     1     -12.434  56.468  49.174  0.00  0.00    +0.000 C 
ATOM     22  C   UNL     1     -13.301  55.813  50.229  0.00  0.00    +0.000 C 
ENDBRANCH  20  21
ENDBRANCH  18  20
ENDBRANCH   9  18
ENDBRANCH   4   7
BRANCH   1  23
ATOM     23  S   UNL     1      -7.766  55.525  52.448  0.00  0.00    +0.000 S 
ATOM     24  O   UNL     1      -9.039  55.070  52.960  0.00  0.00    +0.000 OA
ATOM     25  O   UNL     1      -7.046  56.599  53.107  0.00  0.00    +0.000 OA
BRANCH  23  26
ATOM     26  C   UNL     1      -6.646  54.143  52.364  0.00  0.00    +0.000 A 
ATOM     27  C   UNL     1      -5.391  54.292  51.760  0.00  0.00    +0.000 A 
ATOM     28  C   UNL     1      -7.012  52.921  52.936  0.00  0.00    +0.000 A 
ATOM     29  C   UNL     1      -4.522  53.195  51.699  0.00  0.00    +0.000 A 
ATOM     30  C   UNL     1      -6.140  51.829  52.875  0.00  0.00    +0.000 A 
ATOM     31  C   UNL     1      -4.897  51.959  52.246  0.00  0.00    +0.000 A 
BRANCH  31  32
ATOM     32  C   UNL     1      -4.010  50.832  52.167  0.00  0.00    +0.000 C 
ATOM     33  N   UNL     1      -3.300  49.919  52.110  0.00  0.00    +0.000 NA
ENDBRANCH  31  32
ENDBRANCH  23  26
ENDBRANCH   1  23
TORSDOF 7
ENDMDL
MODEL 7
REMARK VINA RESULT:      -7.0      2.865      9.627
REMARK  Name = 
REMARK  10 active torsions:
REMARK  status: ('A' for Active; 'I' for Inactive)
REMARK    1  A    between atoms: S_1  and  N_4
REMARK    2  A    between atoms: S_1  and  C_5
REMARK    3  A    between atoms: N_10  and  C_13
REMARK    4  A    between atoms: C_14  and  C_17
REMARK    5  A    between atoms: C_16  and  C_20
REMARK    6  A    between atoms: C_20  and  O_25
REMARK    7  A    between atoms: O_25  and  C_28
REMARK    8  A    between atoms: C_26  and  C_29
REMARK    9  A    between atoms: C_26  and  C_30
REMARK   10  A    between atoms: C_28  and  C_31
REMARK                            x       y       z     vdW  Elec       q    Type
REMARK                         _______ _______ _______ _____ _____    ______ ____
ROOT
ATOM      1  N   UNL     1     -11.628  55.518  51.127  0.00  0.00    +0.000 N 
ATOM      2  C   UNL     1     -10.390  55.013  50.748  0.00  0.00    +0.000 C 
ATOM      3  O   UNL     1      -9.978  55.143  49.602  0.00  0.00    +0.000 OA
ATOM      4  N   UNL     1      -9.763  54.276  51.729  0.00  0.00    +0.000 N 
ATOM      5  H   UNL     1     -11.917  55.382  52.058  0.00  0.00    +0.000 HD
ATOM      6  H   UNL     1     -10.156  54.192  52.628  0.00  0.00    +0.000 HD
ENDROOT
BRANCH   4   7
ATOM      7  C   UNL     1      -8.563  53.654  51.416  0.00  0.00    +0.000 A 
ATOM      8  S   UNL     1      -8.696  52.087  50.769  0.00  0.00    +0.000 S 
ATOM      9  C   UNL     1      -7.259  54.106  51.496  0.00  0.00    +0.000 A 
ATOM     10  C   UNL     1      -7.043  52.075  50.338  0.00  0.00    +0.000 A 
ATOM     11  C   UNL     1      -6.382  53.210  50.774  0.00  0.00    +0.000 A 
ATOM     12  C   UNL     1      -6.403  50.940  49.572  0.00  0.00    +0.000 C 
ATOM     13  C   UNL     1      -4.908  53.399  50.561  0.00  0.00    +0.000 C 
ATOM     14  C   UNL     1      -4.849  50.965  49.724  0.00  0.00    +0.000 C 
ATOM     15  C   UNL     1      -4.337  52.416  49.538  0.00  0.00    +0.000 C 
ATOM     16  C   UNL     1      -4.179  50.094  48.645  0.00  0.00    +0.000 C 
ATOM     17  C   UNL     1      -4.440  50.409  51.102  0.00  0.00    +0.000 C 
BRANCH   9  18
ATOM     18  C   UNL     1      -6.886  55.324  52.215  0.00  0.00    +0.000 C 
ATOM     19  O   UNL     1      -7.368  56.423  51.967  0.00  0.00    +0.000 OA
BRANCH  18  20
ATOM     20  O   UNL     1      -5.954  55.089  53.178  0.00  0.00    +0.000 OA
BRANCH  20  21
ATOM     21  C   UNL     1      -6.432  54.856  54.505  0.00  0.00    +0.000 C 
ATOM     22  C   UNL     1      -6.321  53.381  54.832  0.00  0.00    +0.000 C 
ENDBRANCH  20  21
ENDBRANCH  18  20
ENDBRANCH   9  18
ENDBRANCH   4   7
BRANCH   1  23
ATOM     23  S   UNL     1     -12.656  56.340  50.104  0.00  0.00    +0.000 S 
ATOM     24  O   UNL     1     -13.523  55.389  49.444  0.00  0.00    +0.000 OA
ATOM     25  O   UNL     1     -11.807  57.225  49.330  0.00  0.00    +0.000 OA
BRANCH  23  26
ATOM     26  C   UNL     1     -13.637  57.380  51.165  0.00  0.00    +0.000 A 
ATOM     27  C   UNL     1     -14.232  58.541  50.655  0.00  0.00    +0.000 A 
ATOM     28  C   UNL     1     -13.840  57.011  52.498  0.00  0.00    +0.000 A 
ATOM     29  C   UNL     1     -14.998  59.351  51.503  0.00  0.00    +0.000 A 
ATOM     30  C   UNL     1     -14.608  57.821  53.340  0.00  0.00    +0.000 A 
ATOM     31  C   UNL     1     -15.180  59.000  52.849  0.00  0.00    +0.000 A 
BRANCH  31  32
ATOM     32  C   UNL     1     -15.954  59.841  53.720  0.00  0.00    +0.000 C 
ATOM     33  N   UNL     1     -16.584  60.513  54.421  0.00  0.00    +0.000 NA
ENDBRANCH  31  32
ENDBRANCH  23  26
ENDBRANCH   1  23
TORSDOF 7
ENDMDL
MODEL 8
REMARK VINA RESULT:      -7.0      2.581      8.666
REMARK  Name = 
REMARK  10 active torsions:
REMARK  status: ('A' for Active; 'I' for Inactive)
REMARK    1  A    between atoms: S_1  and  N_4
REMARK    2  A    between atoms: S_1  and  C_5
REMARK    3  A    between atoms: N_10  and  C_13
REMARK    4  A    between atoms: C_14  and  C_17
REMARK    5  A    between atoms: C_16  and  C_20
REMARK    6  A    between atoms: C_20  and  O_25
REMARK    7  A    between atoms: O_25  and  C_28
REMARK    8  A    between atoms: C_26  and  C_29
REMARK    9  A    between atoms: C_26  and  C_30
REMARK   10  A    between atoms: C_28  and  C_31
REMARK                            x       y       z     vdW  Elec       q    Type
REMARK                         _______ _______ _______ _____ _____    ______ ____
ROOT
ATOM      1  N   UNL     1     -11.449  56.715  49.245  0.00  0.00    +0.000 N 
ATOM      2  C   UNL     1     -10.641  55.770  49.867  0.00  0.00    +0.000 C 
ATOM      3  O   UNL     1     -11.106  54.720  50.292  0.00  0.00    +0.000 OA
ATOM      4  N   UNL     1      -9.339  56.184  50.052  0.00  0.00    +0.000 N 
ATOM      5  H   UNL     1     -11.027  57.544  48.926  0.00  0.00    +0.000 HD
ATOM      6  H   UNL     1      -9.029  57.050  49.702  0.00  0.00    +0.000 HD
ENDROOT
BRANCH   4   7
ATOM      7  C   UNL     1      -8.477  55.346  50.746  0.00  0.00    +0.000 A 
ATOM      8  S   UNL     1      -8.620  55.388  52.440  0.00  0.00    +0.000 S 
ATOM      9  C   UNL     1      -7.539  54.436  50.296  0.00  0.00    +0.000 A 
ATOM     10  C   UNL     1      -7.622  54.010  52.604  0.00  0.00    +0.000 A 
ATOM     11  C   UNL     1      -7.110  53.590  51.389  0.00  0.00    +0.000 A 
ATOM     12  C   UNL     1      -7.347  53.350  53.935  0.00  0.00    +0.000 C 
ATOM     13  C   UNL     1      -6.162  52.431  51.288  0.00  0.00    +0.000 C 
ATOM     14  C   UNL     1      -6.079  52.443  53.861  0.00  0.00    +0.000 C 
ATOM     15  C   UNL     1      -6.129  51.592  52.567  0.00  0.00    +0.000 C 
ATOM     16  C   UNL     1      -6.030  51.471  55.054  0.00  0.00    +0.000 C 
ATOM     17  C   UNL     1      -4.803  53.307  53.903  0.00  0.00    +0.000 C 
BRANCH   9  18
ATOM     18  C   UNL     1      -7.092  54.383  48.905  0.00  0.00    +0.000 C 
ATOM     19  O   UNL     1      -5.964  54.706  48.550  0.00  0.00    +0.000 OA
BRANCH  18  20
ATOM     20  O   UNL     1      -8.066  53.938  48.067  0.00  0.00    +0.000 OA
BRANCH  20  21
ATOM     21  C   UNL     1      -8.047  54.429  46.724  0.00  0.00    +0.000 C 
ATOM     22  C   UNL     1      -9.244  55.328  46.496  0.00  0.00    +0.000 C 
ENDBRANCH  20  21
ENDBRANCH  18  20
ENDBRANCH   9  18
ENDBRANCH   4   7
BRANCH   1  23
ATOM     23  S   UNL     1     -13.089  56.530  49.006  0.00  0.00    +0.000 S 
ATOM     24  O   UNL     1     -13.424  55.127  49.109  0.00  0.00    +0.000 OA
ATOM     25  O   UNL     1     -13.391  57.275  47.798  0.00  0.00    +0.000 OA
BRANCH  23  26
ATOM     26  C   UNL     1     -13.858  57.410  50.350  0.00  0.00    +0.000 A 
ATOM     27  C   UNL     1     -14.370  58.697  50.143  0.00  0.00    +0.000 A 
ATOM     28  C   UNL     1     -13.979  56.795  51.599  0.00  0.00    +0.000 A 
ATOM     29  C   UNL     1     -14.969  59.379  51.210  0.00  0.00    +0.000 A 
ATOM     30  C   UNL     1     -14.581  57.478  52.660  0.00  0.00    +0.000 A 
ATOM     31  C   UNL     1     -15.068  58.776  52.473  0.00  0.00    +0.000 A 
BRANCH  31  32
ATOM     32  C   UNL     1     -15.669  59.485  53.569  0.00  0.00    +0.000 C 
ATOM     33  N   UNL     1     -16.158  60.060  54.446  0.00  0.00    +0.000 NA
ENDBRANCH  31  32
ENDBRANCH  23  26
ENDBRANCH   1  23
TORSDOF 7
ENDMDL
MODEL 9
REMARK VINA RESULT:      -7.0      2.256      3.528
REMARK  Name = 
REMARK  10 active torsions:
REMARK  status: ('A' for Active; 'I' for Inactive)
REMARK    1  A    between atoms: S_1  and  N_4
REMARK    2  A    between atoms: S_1  and  C_5
REMARK    3  A    between atoms: N_10  and  C_13
REMARK    4  A    between atoms: C_14  and  C_17
REMARK    5  A    between atoms: C_16  and  C_20
REMARK    6  A    between atoms: C_20  and  O_25
REMARK    7  A    between atoms: O_25  and  C_28
REMARK    8  A    between atoms: C_26  and  C_29
REMARK    9  A    between atoms: C_26  and  C_30
REMARK   10  A    between atoms: C_28  and  C_31
REMARK                            x       y       z     vdW  Elec       q    Type
REMARK                         _______ _______ _______ _____ _____    ______ ____
ROOT
ATOM      1  N   UNL     1      -9.169  53.263  47.397  0.00  0.00    +0.000 N 
ATOM      2  C   UNL     1      -9.788  54.344  48.013  0.00  0.00    +0.000 C 
ATOM      3  O   UNL     1      -9.184  55.391  48.212  0.00  0.00    +0.000 OA
ATOM      4  N   UNL     1     -11.062  54.075  48.464  0.00  0.00    +0.000 N 
ATOM      5  H   UNL     1      -9.696  52.443  47.265  0.00  0.00    +0.000 HD
ATOM      6  H   UNL     1     -11.488  53.205  48.288  0.00  0.00    +0.000 HD
ENDROOT
BRANCH   4   7
ATOM      7  C   UNL     1     -11.729  55.064  49.173  0.00  0.00    +0.000 A 
ATOM      8  S   UNL     1     -12.669  56.130  48.240  0.00  0.00    +0.000 S 
ATOM      9  C   UNL     1     -11.803  55.313  50.532  0.00  0.00    +0.000 A 
ATOM     10  C   UNL     1     -13.401  56.784  49.638  0.00  0.00    +0.000 A 
ATOM     11  C   UNL     1     -12.859  56.264  50.801  0.00  0.00    +0.000 A 
ATOM     12  C   UNL     1     -14.507  57.812  49.581  0.00  0.00    +0.000 C 
ATOM     13  C   UNL     1     -13.304  56.729  52.158  0.00  0.00    +0.000 C 
ATOM     14  C   UNL     1     -14.654  58.555  50.946  0.00  0.00    +0.000 C 
ATOM     15  C   UNL     1     -14.609  57.524  52.102  0.00  0.00    +0.000 C 
ATOM     16  C   UNL     1     -16.006  59.287  51.029  0.00  0.00    +0.000 C 
ATOM     17  C   UNL     1     -13.537  59.606  51.102  0.00  0.00    +0.000 C 
BRANCH   9  18
ATOM     18  C   UNL     1     -10.917  54.672  51.502  0.00  0.00    +0.000 C 
ATOM     19  O   UNL     1     -11.000  53.487  51.806  0.00  0.00    +0.000 OA
BRANCH  18  20
ATOM     20  O   UNL     1     -10.004  55.538  52.018  0.00  0.00    +0.000 OA
BRANCH  20  21
ATOM     21  C   UNL     1      -8.631  55.311  51.690  0.00  0.00    +0.000 C 
ATOM     22  C   UNL     1      -7.872  54.910  52.938  0.00  0.00    +0.000 C 
ENDBRANCH  20  21
ENDBRANCH  18  20
ENDBRANCH   9  18
ENDBRANCH   4   7
BRANCH   1  23
ATOM     23  S   UNL     1      -7.587  53.269  46.868  0.00  0.00    +0.000 S 
ATOM     24  O   UNL     1      -7.396  54.385  45.970  0.00  0.00    +0.000 OA
ATOM     25  O   UNL     1      -7.321  51.912  46.427  0.00  0.00    +0.000 OA
BRANCH  23  26
ATOM     26  C   UNL     1      -6.607  53.527  48.332  0.00  0.00    +0.000 A 
ATOM     27  C   UNL     1      -5.851  54.697  48.473  0.00  0.00    +0.000 A 
ATOM     28  C   UNL     1      -6.628  52.573  49.354  0.00  0.00    +0.000 A 
ATOM     29  C   UNL     1      -5.082  54.885  49.629  0.00  0.00    +0.000 A 
ATOM     30  C   UNL     1      -5.861  52.767  50.508  0.00  0.00    +0.000 A 
ATOM     31  C   UNL     1      -5.077  53.917  50.644  0.00  0.00    +0.000 A 
BRANCH  31  32
ATOM     32  C   UNL     1      -4.275  54.105  51.821  0.00  0.00    +0.000 C 
ATOM     33  N   UNL     1      -3.634  54.250  52.775  0.00  0.00    +0.000 NA
ENDBRANCH  31  32
ENDBRANCH  23  26
ENDBRANCH   1  23
TORSDOF 7
ENDMDL
