MODEL 1
REMARK VINA RESULT:      -8.1      0.000      0.000
REMARK  Name = 
REMARK  10 active torsions:
REMARK  status: ('A' for Active; 'I' for Inactive)
REMARK    1  A    between atoms: S_1  and  N_4
REMARK    2  A    between atoms: S_1  and  C_5
REMARK    3  A    between atoms: N_7  and  C_12
REMARK    4  A    between atoms: N_10  and  C_14
REMARK    5  A    between atoms: C_16  and  C_19
REMARK    6  A    between atoms: C_19  and  O_23
REMARK    7  A    between atoms: O_23  and  C_26
REMARK    8  A    between atoms: C_24  and  C_27
REMARK    9  A    between atoms: C_24  and  C_28
REMARK   10  A    between atoms: C_26  and  C_29
REMARK                            x       y       z     vdW  Elec       q    Type
REMARK                         _______ _______ _______ _____ _____    ______ ____
ROOT
ATOM      1  C   UNL     1     -10.938  54.334  51.621  0.00  0.00    +0.000 A 
ATOM      2  S   UNL     1     -10.496  53.604  53.096  0.00  0.00    +0.000 S 
ATOM      3  C   UNL     1      -9.864  54.868  50.933  0.00  0.00    +0.000 A 
ATOM      4  C   UNL     1      -8.832  53.761  52.737  0.00  0.00    +0.000 A 
ATOM      5  C   UNL     1      -8.623  54.438  51.548  0.00  0.00    +0.000 A 
ATOM      6  C   UNL     1      -7.734  53.220  53.628  0.00  0.00    +0.000 C 
ATOM      7  C   UNL     1      -7.239  54.722  51.036  0.00  0.00    +0.000 C 
ATOM      8  C   UNL     1      -6.359  53.889  53.293  0.00  0.00    +0.000 C 
ATOM      9  C   UNL     1      -6.165  53.916  51.758  0.00  0.00    +0.000 C 
ATOM     10  C   UNL     1      -5.186  53.089  53.885  0.00  0.00    +0.000 C 
ATOM     11  C   UNL     1      -6.304  55.314  53.884  0.00  0.00    +0.000 C 
ENDROOT
BRANCH   1  15
ATOM     12  N   UNL     1     -14.382  55.291  51.196  0.00  0.00    +0.000 N 
ATOM     13  C   UNL     1     -13.032  55.412  51.555  0.00  0.00    +0.000 C 
ATOM     14  O   UNL     1     -12.584  56.468  51.975  0.00  0.00    +0.000 OA
ATOM     15  N   UNL     1     -12.285  54.287  51.292  0.00  0.00    +0.000 N 
ATOM     16  H   UNL     1     -14.692  54.431  50.832  0.00  0.00    +0.000 HD
ATOM     17  H   UNL     1     -12.687  53.485  50.888  0.00  0.00    +0.000 HD
BRANCH  12  18
ATOM     18  S   UNL     1     -15.488  56.526  51.353  0.00  0.00    +0.000 S 
ATOM     19  O   UNL     1     -15.692  56.828  52.747  0.00  0.00    +0.000 OA
ATOM     20  O   UNL     1     -16.610  56.124  50.527  0.00  0.00    +0.000 OA
BRANCH  18  21
ATOM     21  C   UNL     1     -14.903  58.000  50.570  0.00  0.00    +0.000 A 
ATOM     22  N   UNL     1     -14.308  58.077  49.330  0.00  0.00    +0.000 N 
ATOM     23  C   UNL     1     -14.880  59.307  51.045  0.00  0.00    +0.000 A 
ATOM     24  N   UNL     1     -13.951  59.343  48.986  0.00  0.00    +0.000 NA
ATOM     25  C   UNL     1     -13.986  57.049  48.368  0.00  0.00    +0.000 C 
ATOM     26  C   UNL     1     -14.288  60.078  50.040  0.00  0.00    +0.000 A 
ENDBRANCH  18  21
ENDBRANCH  12  18
ENDBRANCH   1  15
BRANCH   3  27
ATOM     27  C   UNL     1      -9.999  55.733  49.755  0.00  0.00    +0.000 C 
ATOM     28  O   UNL     1      -9.495  56.847  49.652  0.00  0.00    +0.000 OA
BRANCH  27  29
ATOM     29  O   UNL     1     -10.728  55.136  48.776  0.00  0.00    +0.000 OA
BRANCH  29  30
ATOM     30  C   UNL     1     -10.331  55.332  47.421  0.00  0.00    +0.000 C 
ATOM     31  C   UNL     1     -11.483  55.003  46.496  0.00  0.00    +0.000 C 
ENDBRANCH  29  30
ENDBRANCH  27  29
ENDBRANCH   3  27
TORSDOF 6
ENDMDL
MODEL 2
REMARK VINA RESULT:      -7.5      3.066      7.670
REMARK  Name = 
REMARK  10 active torsions:
REMARK  status: ('A' for Active; 'I' for Inactive)
REMARK    1  A    between atoms: S_1  and  N_4
REMARK    2  A    between atoms: S_1  and  C_5
REMARK    3  A    between atoms: N_7  and  C_12
REMARK    4  A    between atoms: N_10  and  C_14
REMARK    5  A    between atoms: C_16  and  C_19
REMARK    6  A    between atoms: C_19  and  O_23
REMARK    7  A    between atoms: O_23  and  C_26
REMARK    8  A    between atoms: C_24  and  C_27
REMARK    9  A    between atoms: C_24  and  C_28
REMARK   10  A    between atoms: C_26  and  C_29
REMARK                            x       y       z     vdW  Elec       q    Type
REMARK                         _______ _______ _______ _____ _____    ______ ____
ROOT
ATOM      1  C   UNL     1     -11.014  54.793  50.282  0.00  0.00    +0.000 A 
ATOM      2  S   UNL     1     -11.702  54.843  51.840  0.00  0.00    +0.000 S 
ATOM      3  C   UNL     1     -11.623  55.656  49.389  0.00  0.00    +0.000 A 
ATOM      4  C   UNL     1     -12.664  56.196  51.431  0.00  0.00    +0.000 A 
ATOM      5  C   UNL     1     -12.522  56.546  50.099  0.00  0.00    +0.000 A 
ATOM      6  C   UNL     1     -13.560  56.911  52.421  0.00  0.00    +0.000 C 
ATOM      7  C   UNL     1     -13.289  57.688  49.498  0.00  0.00    +0.000 C 
ATOM      8  C   UNL     1     -14.626  57.786  51.682  0.00  0.00    +0.000 C 
ATOM      9  C   UNL     1     -13.935  58.584  50.550  0.00  0.00    +0.000 C 
ATOM     10  C   UNL     1     -15.268  58.811  52.633  0.00  0.00    +0.000 C 
ATOM     11  C   UNL     1     -15.752  56.892  51.121  0.00  0.00    +0.000 C 
ENDROOT
BRANCH   1  15
ATOM     12  N   UNL     1      -7.688  53.421  50.365  0.00  0.00    +0.000 N 
ATOM     13  C   UNL     1      -8.719  54.347  50.573  0.00  0.00    +0.000 C 
ATOM     14  O   UNL     1      -8.522  55.381  51.193  0.00  0.00    +0.000 OA
ATOM     15  N   UNL     1      -9.945  53.927  50.111  0.00  0.00    +0.000 N 
ATOM     16  H   UNL     1      -7.900  52.586  49.888  0.00  0.00    +0.000 HD
ATOM     17  H   UNL     1     -10.058  53.050  49.677  0.00  0.00    +0.000 HD
BRANCH  12  18
ATOM     18  S   UNL     1      -6.123  53.657  50.883  0.00  0.00    +0.000 S 
ATOM     19  O   UNL     1      -5.598  54.876  50.320  0.00  0.00    +0.000 OA
ATOM     20  O   UNL     1      -5.455  52.396  50.629  0.00  0.00    +0.000 OA
BRANCH  18  21
ATOM     21  C   UNL     1      -6.058  53.813  52.644  0.00  0.00    +0.000 A 
ATOM     22  N   UNL     1      -6.585  52.927  53.556  0.00  0.00    +0.000 N 
ATOM     23  C   UNL     1      -5.534  54.839  53.423  0.00  0.00    +0.000 A 
ATOM     24  N   UNL     1      -6.392  53.308  54.846  0.00  0.00    +0.000 NA
ATOM     25  C   UNL     1      -7.314  51.695  53.367  0.00  0.00    +0.000 C 
ATOM     26  C   UNL     1      -5.767  54.477  54.754  0.00  0.00    +0.000 A 
ENDBRANCH  18  21
ENDBRANCH  12  18
ENDBRANCH   1  15
BRANCH   3  27
ATOM     27  C   UNL     1     -11.367  55.648  47.944  0.00  0.00    +0.000 C 
ATOM     28  O   UNL     1     -12.238  55.536  47.087  0.00  0.00    +0.000 OA
BRANCH  27  29
ATOM     29  O   UNL     1     -10.046  55.809  47.668  0.00  0.00    +0.000 OA
BRANCH  29  30
ATOM     30  C   UNL     1      -9.472  55.022  46.627  0.00  0.00    +0.000 C 
ATOM     31  C   UNL     1      -7.997  54.814  46.896  0.00  0.00    +0.000 C 
ENDBRANCH  29  30
ENDBRANCH  27  29
ENDBRANCH   3  27
TORSDOF 6
ENDMDL
MODEL 3
REMARK VINA RESULT:      -7.3      2.115      3.223
REMARK  Name = 
REMARK  10 active torsions:
REMARK  status: ('A' for Active; 'I' for Inactive)
REMARK    1  A    between atoms: S_1  and  N_4
REMARK    2  A    between atoms: S_1  and  C_5
REMARK    3  A    between atoms: N_7  and  C_12
REMARK    4  A    between atoms: N_10  and  C_14
REMARK    5  A    between atoms: C_16  and  C_19
REMARK    6  A    between atoms: C_19  and  O_23
REMARK    7  A    between atoms: O_23  and  C_26
REMARK    8  A    between atoms: C_24  and  C_27
REMARK    9  A    between atoms: C_24  and  C_28
REMARK   10  A    between atoms: C_26  and  C_29
REMARK                            x       y       z     vdW  Elec       q    Type
REMARK                         _______ _______ _______ _____ _____    ______ ____
ROOT
ATOM      1  C   UNL     1     -11.110  53.920  50.345  0.00  0.00    +0.000 A 
ATOM      2  S   UNL     1     -10.307  54.521  48.968  0.00  0.00    +0.000 S 
ATOM      3  C   UNL     1     -10.248  53.417  51.303  0.00  0.00    +0.000 A 
ATOM      4  C   UNL     1      -8.780  54.355  49.719  0.00  0.00    +0.000 A 
ATOM      5  C   UNL     1      -8.882  53.769  50.968  0.00  0.00    +0.000 A 
ATOM      6  C   UNL     1      -7.484  54.799  49.075  0.00  0.00    +0.000 C 
ATOM      7  C   UNL     1      -7.668  53.494  51.810  0.00  0.00    +0.000 C 
ATOM      8  C   UNL     1      -6.253  54.127  49.771  0.00  0.00    +0.000 C 
ATOM      9  C   UNL     1      -6.424  54.216  51.307  0.00  0.00    +0.000 C 
ATOM     10  C   UNL     1      -4.943  54.852  49.417  0.00  0.00    +0.000 C 
ATOM     11  C   UNL     1      -6.120  52.660  49.312  0.00  0.00    +0.000 C 
ENDROOT
BRANCH   1  15
ATOM     12  N   UNL     1     -14.435  55.225  50.787  0.00  0.00    +0.000 N 
ATOM     13  C   UNL     1     -13.034  55.195  50.820  0.00  0.00    +0.000 C 
ATOM     14  O   UNL     1     -12.391  56.174  51.162  0.00  0.00    +0.000 OA
ATOM     15  N   UNL     1     -12.493  54.023  50.343  0.00  0.00    +0.000 N 
ATOM     16  H   UNL     1     -14.912  54.423  50.473  0.00  0.00    +0.000 HD
ATOM     17  H   UNL     1     -13.062  53.289  50.015  0.00  0.00    +0.000 HD
BRANCH  12  18
ATOM     18  S   UNL     1     -15.336  56.547  51.250  0.00  0.00    +0.000 S 
ATOM     19  O   UNL     1     -15.256  56.720  52.679  0.00  0.00    +0.000 OA
ATOM     20  O   UNL     1     -16.625  56.357  50.615  0.00  0.00    +0.000 OA
BRANCH  18  21
ATOM     21  C   UNL     1     -14.718  58.025  50.500  0.00  0.00    +0.000 A 
ATOM     22  N   UNL     1     -14.309  58.160  49.193  0.00  0.00    +0.000 N 
ATOM     23  C   UNL     1     -14.483  59.274  51.066  0.00  0.00    +0.000 A 
ATOM     24  N   UNL     1     -13.873  59.412  48.895  0.00  0.00    +0.000 NA
ATOM     25  C   UNL     1     -14.248  57.200  48.116  0.00  0.00    +0.000 C 
ATOM     26  C   UNL     1     -13.969  60.076  50.042  0.00  0.00    +0.000 A 
ENDBRANCH  18  21
ENDBRANCH  12  18
ENDBRANCH   1  15
BRANCH   3  27
ATOM     27  C   UNL     1     -10.689  52.651  52.474  0.00  0.00    +0.000 C 
ATOM     28  O   UNL     1     -10.551  53.020  53.636  0.00  0.00    +0.000 OA
BRANCH  27  29
ATOM     29  O   UNL     1     -11.297  51.490  52.114  0.00  0.00    +0.000 OA
BRANCH  29  30
ATOM     30  C   UNL     1     -10.535  50.521  51.398  0.00  0.00    +0.000 C 
ATOM     31  C   UNL     1      -9.451  49.959  52.292  0.00  0.00    +0.000 C 
ENDBRANCH  29  30
ENDBRANCH  27  29
ENDBRANCH   3  27
TORSDOF 6
ENDMDL
MODEL 4
REMARK VINA RESULT:      -7.1      4.111      8.137
REMARK  Name = 
REMARK  10 active torsions:
REMARK  status: ('A' for Active; 'I' for Inactive)
REMARK    1  A    between atoms: S_1  and  N_4
REMARK    2  A    between atoms: S_1  and  C_5
REMARK    3  A    between atoms: N_7  and  C_12
REMARK    4  A    between atoms: N_10  and  C_14
REMARK    5  A    between atoms: C_16  and  C_19
REMARK    6  A    between atoms: C_19  and  O_23
REMARK    7  A    between atoms: O_23  and  C_26
REMARK    8  A    between atoms: C_24  and  C_27
REMARK    9  A    between atoms: C_24  and  C_28
REMARK   10  A    between atoms: C_26  and  C_29
REMARK                            x       y       z     vdW  Elec       q    Type
REMARK                         _______ _______ _______ _____ _____    ______ ____
ROOT
ATOM      1  C   UNL     1      -8.696  54.949  47.252  0.00  0.00    +0.000 A 
ATOM      2  S   UNL     1      -7.479  54.119  46.396  0.00  0.00    +0.000 S 
ATOM      3  C   UNL     1      -9.971  54.681  46.785  0.00  0.00    +0.000 A 
ATOM      4  C   UNL     1      -8.634  53.191  45.545  0.00  0.00    +0.000 A 
ATOM      5  C   UNL     1      -9.929  53.573  45.850  0.00  0.00    +0.000 A 
ATOM      6  C   UNL     1      -8.265  52.089  44.574  0.00  0.00    +0.000 C 
ATOM      7  C   UNL     1     -11.117  52.918  45.205  0.00  0.00    +0.000 C 
ATOM      8  C   UNL     1      -9.468  51.740  43.636  0.00  0.00    +0.000 C 
ATOM      9  C   UNL     1     -10.759  51.623  44.483  0.00  0.00    +0.000 C 
ATOM     10  C   UNL     1      -9.261  50.387  42.935  0.00  0.00    +0.000 C 
ATOM     11  C   UNL     1      -9.620  52.820  42.543  0.00  0.00    +0.000 C 
ENDROOT
BRANCH   1  15
ATOM     12  N   UNL     1      -7.749  56.052  50.544  0.00  0.00    +0.000 N 
ATOM     13  C   UNL     1      -8.185  55.176  49.541  0.00  0.00    +0.000 C 
ATOM     14  O   UNL     1      -8.371  53.992  49.775  0.00  0.00    +0.000 OA
ATOM     15  N   UNL     1      -8.272  55.756  48.296  0.00  0.00    +0.000 N 
ATOM     16  H   UNL     1      -7.581  56.992  50.302  0.00  0.00    +0.000 HD
ATOM     17  H   UNL     1      -8.042  56.703  48.153  0.00  0.00    +0.000 HD
BRANCH  12  18
ATOM     18  S   UNL     1      -7.502  55.589  52.125  0.00  0.00    +0.000 S 
ATOM     19  O   UNL     1      -8.611  54.791  52.582  0.00  0.00    +0.000 OA
ATOM     20  O   UNL     1      -7.155  56.812  52.819  0.00  0.00    +0.000 OA
BRANCH  18  21
ATOM     21  C   UNL     1      -6.042  54.601  52.270  0.00  0.00    +0.000 A 
ATOM     22  N   UNL     1      -5.538  54.064  53.434  0.00  0.00    +0.000 N 
ATOM     23  C   UNL     1      -5.124  54.227  51.293  0.00  0.00    +0.000 A 
ATOM     24  N   UNL     1      -4.396  53.353  53.245  0.00  0.00    +0.000 NA
ATOM     25  C   UNL     1      -6.006  54.153  54.797  0.00  0.00    +0.000 C 
ATOM     26  C   UNL     1      -4.144  53.471  51.946  0.00  0.00    +0.000 A 
ENDBRANCH  18  21
ENDBRANCH  12  18
ENDBRANCH   1  15
BRANCH   3  27
ATOM     27  C   UNL     1     -11.165  55.426  47.201  0.00  0.00    +0.000 C 
ATOM     28  O   UNL     1     -11.874  56.078  46.441  0.00  0.00    +0.000 OA
BRANCH  27  29
ATOM     29  O   UNL     1     -11.408  55.281  48.530  0.00  0.00    +0.000 OA
BRANCH  29  30
ATOM     30  C   UNL     1     -11.980  54.056  48.984  0.00  0.00    +0.000 C 
ATOM     31  C   UNL     1     -11.878  53.970  50.492  0.00  0.00    +0.000 C 
ENDBRANCH  29  30
ENDBRANCH  27  29
ENDBRANCH   3  27
TORSDOF 6
ENDMDL
MODEL 5
REMARK VINA RESULT:      -7.0      2.281      4.658
REMARK  Name = 
REMARK  10 active torsions:
REMARK  status: ('A' for Active; 'I' for Inactive)
REMARK    1  A    between atoms: S_1  and  N_4
REMARK    2  A    between atoms: S_1  and  C_5
REMARK    3  A    between atoms: N_7  and  C_12
REMARK    4  A    between atoms: N_10  and  C_14
REMARK    5  A    between atoms: C_16  and  C_19
REMARK    6  A    between atoms: C_19  and  O_23
REMARK    7  A    between atoms: O_23  and  C_26
REMARK    8  A    between atoms: C_24  and  C_27
REMARK    9  A    between atoms: C_24  and  C_28
REMARK   10  A    between atoms: C_26  and  C_29
REMARK                            x       y       z     vdW  Elec       q    Type
REMARK                         _______ _______ _______ _____ _____    ______ ____
ROOT
ATOM      1  C   UNL     1     -11.519  53.992  49.186  0.00  0.00    +0.000 A 
ATOM      2  S   UNL     1     -11.966  53.038  47.848  0.00  0.00    +0.000 S 
ATOM      3  C   UNL     1     -10.242  54.514  49.082  0.00  0.00    +0.000 A 
ATOM      4  C   UNL     1     -10.565  53.498  46.983  0.00  0.00    +0.000 A 
ATOM      5  C   UNL     1      -9.731  54.300  47.742  0.00  0.00    +0.000 A 
ATOM      6  C   UNL     1     -10.287  53.068  45.558  0.00  0.00    +0.000 C 
ATOM      7  C   UNL     1      -8.424  54.809  47.205  0.00  0.00    +0.000 C 
ATOM      8  C   UNL     1      -8.775  53.252  45.201  0.00  0.00    +0.000 C 
ATOM      9  C   UNL     1      -8.299  54.640  45.695  0.00  0.00    +0.000 C 
ATOM     10  C   UNL     1      -8.548  53.209  43.680  0.00  0.00    +0.000 C 
ATOM     11  C   UNL     1      -7.938  52.122  45.835  0.00  0.00    +0.000 C 
ENDROOT
BRANCH   1  15
ATOM     12  N   UNL     1     -14.259  55.299  51.120  0.00  0.00    +0.000 N 
ATOM     13  C   UNL     1     -13.323  55.217  50.080  0.00  0.00    +0.000 C 
ATOM     14  O   UNL     1     -13.353  55.998  49.142  0.00  0.00    +0.000 OA
ATOM     15  N   UNL     1     -12.473  54.139  50.182  0.00  0.00    +0.000 N 
ATOM     16  H   UNL     1     -14.217  54.628  51.839  0.00  0.00    +0.000 HD
ATOM     17  H   UNL     1     -12.540  53.500  50.928  0.00  0.00    +0.000 HD
BRANCH  12  18
ATOM     18  S   UNL     1     -15.438  56.472  51.204  0.00  0.00    +0.000 S 
ATOM     19  O   UNL     1     -15.858  56.650  52.571  0.00  0.00    +0.000 OA
ATOM     20  O   UNL     1     -16.405  56.097  50.192  0.00  0.00    +0.000 OA
BRANCH  18  21
ATOM     21  C   UNL     1     -14.821  58.028  50.631  0.00  0.00    +0.000 A 
ATOM     22  N   UNL     1     -14.265  59.017  51.412  0.00  0.00    +0.000 N 
ATOM     23  C   UNL     1     -14.818  58.562  49.346  0.00  0.00    +0.000 A 
ATOM     24  N   UNL     1     -13.884  60.110  50.701  0.00  0.00    +0.000 NA
ATOM     25  C   UNL     1     -14.050  59.088  52.838  0.00  0.00    +0.000 C 
ATOM     26  C   UNL     1     -14.238  59.830  49.451  0.00  0.00    +0.000 A 
ENDBRANCH  18  21
ENDBRANCH  12  18
ENDBRANCH   1  15
BRANCH   3  27
ATOM     27  C   UNL     1      -9.542  55.183  50.186  0.00  0.00    +0.000 C 
ATOM     28  O   UNL     1      -9.118  56.333  50.141  0.00  0.00    +0.000 OA
BRANCH  27  29
ATOM     29  O   UNL     1      -9.448  54.380  51.279  0.00  0.00    +0.000 OA
BRANCH  29  30
ATOM     30  C   UNL     1      -9.847  54.908  52.542  0.00  0.00    +0.000 C 
ATOM     31  C   UNL     1      -8.657  54.955  53.477  0.00  0.00    +0.000 C 
ENDBRANCH  29  30
ENDBRANCH  27  29
ENDBRANCH   3  27
TORSDOF 6
ENDMDL
MODEL 6
REMARK VINA RESULT:      -6.9      3.975      7.530
REMARK  Name = 
REMARK  10 active torsions:
REMARK  status: ('A' for Active; 'I' for Inactive)
REMARK    1  A    between atoms: S_1  and  N_4
REMARK    2  A    between atoms: S_1  and  C_5
REMARK    3  A    between atoms: N_7  and  C_12
REMARK    4  A    between atoms: N_10  and  C_14
REMARK    5  A    between atoms: C_16  and  C_19
REMARK    6  A    between atoms: C_19  and  O_23
REMARK    7  A    between atoms: O_23  and  C_26
REMARK    8  A    between atoms: C_24  and  C_27
REMARK    9  A    between atoms: C_24  and  C_28
REMARK   10  A    between atoms: C_26  and  C_29
REMARK                            x       y       z     vdW  Elec       q    Type
REMARK                         _______ _______ _______ _____ _____    ______ ____
ROOT
ATOM      1  C   UNL     1      -8.675  54.843  47.254  0.00  0.00    +0.000 A 
ATOM      2  S   UNL     1      -7.462  54.020  46.386  0.00  0.00    +0.000 S 
ATOM      3  C   UNL     1      -9.948  54.616  46.762  0.00  0.00    +0.000 A 
ATOM      4  C   UNL     1      -8.624  53.144  45.488  0.00  0.00    +0.000 A 
ATOM      5  C   UNL     1      -9.915  53.540  45.790  0.00  0.00    +0.000 A 
ATOM      6  C   UNL     1      -8.263  52.069  44.484  0.00  0.00    +0.000 C 
ATOM      7  C   UNL     1     -11.106  52.931  45.107  0.00  0.00    +0.000 C 
ATOM      8  C   UNL     1      -9.459  51.777  43.520  0.00  0.00    +0.000 C 
ATOM      9  C   UNL     1     -10.763  51.656  44.346  0.00  0.00    +0.000 C 
ATOM     10  C   UNL     1      -9.268  50.444  42.775  0.00  0.00    +0.000 C 
ATOM     11  C   UNL     1      -9.576  52.896  42.463  0.00  0.00    +0.000 C 
ENDROOT
BRANCH   1  15
ATOM     12  N   UNL     1      -7.603  55.780  50.559  0.00  0.00    +0.000 N 
ATOM     13  C   UNL     1      -8.031  54.945  49.518  0.00  0.00    +0.000 C 
ATOM     14  O   UNL     1      -8.103  53.736  49.670  0.00  0.00    +0.000 OA
ATOM     15  N   UNL     1      -8.249  55.606  48.331  0.00  0.00    +0.000 N 
ATOM     16  H   UNL     1      -7.529  56.746  50.382  0.00  0.00    +0.000 HD
ATOM     17  H   UNL     1      -8.109  56.577  48.249  0.00  0.00    +0.000 HD
BRANCH  12  18
ATOM     18  S   UNL     1      -7.212  55.225  52.080  0.00  0.00    +0.000 S 
ATOM     19  O   UNL     1      -7.219  56.320  53.019  0.00  0.00    +0.000 OA
ATOM     20  O   UNL     1      -6.008  54.442  51.890  0.00  0.00    +0.000 OA
BRANCH  18  21
ATOM     21  C   UNL     1      -8.397  54.037  52.641  0.00  0.00    +0.000 A 
ATOM     22  N   UNL     1      -9.764  54.198  52.650  0.00  0.00    +0.000 N 
ATOM     23  C   UNL     1      -8.194  52.782  53.206  0.00  0.00    +0.000 A 
ATOM     24  N   UNL     1     -10.427  53.120  53.144  0.00  0.00    +0.000 NA
ATOM     25  C   UNL     1     -10.589  55.314  52.250  0.00  0.00    +0.000 C 
ATOM     26  C   UNL     1      -9.464  52.273  53.493  0.00  0.00    +0.000 A 
ENDBRANCH  18  21
ENDBRANCH  12  18
ENDBRANCH   1  15
BRANCH   3  27
ATOM     27  C   UNL     1     -11.133  55.369  47.189  0.00  0.00    +0.000 C 
ATOM     28  O   UNL     1     -11.848  56.022  46.434  0.00  0.00    +0.000 OA
BRANCH  27  29
ATOM     29  O   UNL     1     -11.362  55.232  48.521  0.00  0.00    +0.000 OA
BRANCH  29  30
ATOM     30  C   UNL     1     -12.374  54.321  48.944  0.00  0.00    +0.000 C 
ATOM     31  C   UNL     1     -11.736  53.062  49.490  0.00  0.00    +0.000 C 
ENDBRANCH  29  30
ENDBRANCH  27  29
ENDBRANCH   3  27
TORSDOF 6
ENDMDL
MODEL 7
REMARK VINA RESULT:      -6.7      3.632      8.046
REMARK  Name = 
REMARK  10 active torsions:
REMARK  status: ('A' for Active; 'I' for Inactive)
REMARK    1  A    between atoms: S_1  and  N_4
REMARK    2  A    between atoms: S_1  and  C_5
REMARK    3  A    between atoms: N_7  and  C_12
REMARK    4  A    between atoms: N_10  and  C_14
REMARK    5  A    between atoms: C_16  and  C_19
REMARK    6  A    between atoms: C_19  and  O_23
REMARK    7  A    between atoms: O_23  and  C_26
REMARK    8  A    between atoms: C_24  and  C_27
REMARK    9  A    between atoms: C_24  and  C_28
REMARK   10  A    between atoms: C_26  and  C_29
REMARK                            x       y       z     vdW  Elec       q    Type
REMARK                         _______ _______ _______ _____ _____    ______ ____
ROOT
ATOM      1  C   UNL     1     -11.375  54.657  50.053  0.00  0.00    +0.000 A 
ATOM      2  S   UNL     1     -11.744  54.884  51.701  0.00  0.00    +0.000 S 
ATOM      3  C   UNL     1     -12.160  55.420  49.208  0.00  0.00    +0.000 A 
ATOM      4  C   UNL     1     -12.789  56.189  51.342  0.00  0.00    +0.000 A 
ATOM      5  C   UNL     1     -12.916  56.388  49.979  0.00  0.00    +0.000 A 
ATOM      6  C   UNL     1     -13.484  57.014  52.404  0.00  0.00    +0.000 C 
ATOM      7  C   UNL     1     -13.803  57.462  49.418  0.00  0.00    +0.000 C 
ATOM      8  C   UNL     1     -14.687  57.810  51.798  0.00  0.00    +0.000 C 
ATOM      9  C   UNL     1     -14.244  58.473  50.471  0.00  0.00    +0.000 C 
ATOM     10  C   UNL     1     -15.147  58.938  52.738  0.00  0.00    +0.000 C 
ATOM     11  C   UNL     1     -15.888  56.867  51.571  0.00  0.00    +0.000 C 
ENDROOT
BRANCH   1  15
ATOM     12  N   UNL     1      -8.112  53.352  49.274  0.00  0.00    +0.000 N 
ATOM     13  C   UNL     1      -9.099  54.308  49.553  0.00  0.00    +0.000 C 
ATOM     14  O   UNL     1      -8.816  55.490  49.671  0.00  0.00    +0.000 OA
ATOM     15  N   UNL     1     -10.346  53.770  49.771  0.00  0.00    +0.000 N 
ATOM     16  H   UNL     1      -8.380  52.406  49.220  0.00  0.00    +0.000 HD
ATOM     17  H   UNL     1     -10.502  52.798  49.730  0.00  0.00    +0.000 HD
BRANCH  12  18
ATOM     18  S   UNL     1      -6.509  53.731  49.031  0.00  0.00    +0.000 S 
ATOM     19  O   UNL     1      -5.939  54.257  50.246  0.00  0.00    +0.000 OA
ATOM     20  O   UNL     1      -6.497  54.529  47.821  0.00  0.00    +0.000 OA
BRANCH  18  21
ATOM     21  C   UNL     1      -5.581  52.292  48.588  0.00  0.00    +0.000 A 
ATOM     22  N   UNL     1      -5.890  51.407  47.580  0.00  0.00    +0.000 N 
ATOM     23  C   UNL     1      -4.436  51.761  49.174  0.00  0.00    +0.000 A 
ATOM     24  N   UNL     1      -5.000  50.385  47.472  0.00  0.00    +0.000 NA
ATOM     25  C   UNL     1      -6.997  51.376  46.653  0.00  0.00    +0.000 C 
ATOM     26  C   UNL     1      -4.130  50.601  48.454  0.00  0.00    +0.000 A 
ENDBRANCH  18  21
ENDBRANCH  12  18
ENDBRANCH   1  15
BRANCH   3  27
ATOM     27  C   UNL     1     -12.192  55.250  47.750  0.00  0.00    +0.000 C 
ATOM     28  O   UNL     1     -12.229  56.175  46.945  0.00  0.00    +0.000 OA
BRANCH  27  29
ATOM     29  O   UNL     1     -12.144  53.938  47.398  0.00  0.00    +0.000 OA
BRANCH  29  30
ATOM     30  C   UNL     1     -11.150  53.524  46.464  0.00  0.00    +0.000 C 
ATOM     31  C   UNL     1     -11.802  53.162  45.147  0.00  0.00    +0.000 C 
ENDBRANCH  29  30
ENDBRANCH  27  29
ENDBRANCH   3  27
TORSDOF 6
ENDMDL
MODEL 8
REMARK VINA RESULT:      -6.5      3.488      7.811
REMARK  Name = 
REMARK  10 active torsions:
REMARK  status: ('A' for Active; 'I' for Inactive)
REMARK    1  A    between atoms: S_1  and  N_4
REMARK    2  A    between atoms: S_1  and  C_5
REMARK    3  A    between atoms: N_7  and  C_12
REMARK    4  A    between atoms: N_10  and  C_14
REMARK    5  A    between atoms: C_16  and  C_19
REMARK    6  A    between atoms: C_19  and  O_23
REMARK    7  A    between atoms: O_23  and  C_26
REMARK    8  A    between atoms: C_24  and  C_27
REMARK    9  A    between atoms: C_24  and  C_28
REMARK   10  A    between atoms: C_26  and  C_29
REMARK                            x       y       z     vdW  Elec       q    Type
REMARK                         _______ _______ _______ _____ _____    ______ ____
ROOT
ATOM      1  C   UNL     1      -9.936  53.559  49.011  0.00  0.00    +0.000 A 
ATOM      2  S   UNL     1      -9.118  52.235  48.320  0.00  0.00    +0.000 S 
ATOM      3  C   UNL     1     -10.594  54.341  48.079  0.00  0.00    +0.000 A 
ATOM      4  C   UNL     1      -9.824  52.528  46.790  0.00  0.00    +0.000 A 
ATOM      5  C   UNL     1     -10.604  53.671  46.794  0.00  0.00    +0.000 A 
ATOM      6  C   UNL     1      -9.607  51.634  45.588  0.00  0.00    +0.000 C 
ATOM      7  C   UNL     1     -11.306  54.149  45.555  0.00  0.00    +0.000 C 
ATOM      8  C   UNL     1      -9.988  52.373  44.263  0.00  0.00    +0.000 C 
ATOM      9  C   UNL     1     -11.343  53.096  44.453  0.00  0.00    +0.000 C 
ATOM     10  C   UNL     1     -10.161  51.384  43.097  0.00  0.00    +0.000 C 
ATOM     11  C   UNL     1      -8.877  53.372  43.874  0.00  0.00    +0.000 C 
ENDROOT
BRANCH   1  15
ATOM     12  N   UNL     1      -8.760  54.419  52.302  0.00  0.00    +0.000 N 
ATOM     13  C   UNL     1      -8.769  54.341  50.903  0.00  0.00    +0.000 C 
ATOM     14  O   UNL     1      -7.916  54.904  50.235  0.00  0.00    +0.000 OA
ATOM     15  N   UNL     1      -9.859  53.676  50.391  0.00  0.00    +0.000 N 
ATOM     16  H   UNL     1      -9.486  53.977  52.799  0.00  0.00    +0.000 HD
ATOM     17  H   UNL     1     -10.554  53.299  50.978  0.00  0.00    +0.000 HD
BRANCH  12  18
ATOM     18  S   UNL     1      -7.586  55.222  53.170  0.00  0.00    +0.000 S 
ATOM     19  O   UNL     1      -8.040  55.445  54.520  0.00  0.00    +0.000 OA
ATOM     20  O   UNL     1      -7.214  56.346  52.336  0.00  0.00    +0.000 OA
BRANCH  18  21
ATOM     21  C   UNL     1      -6.103  54.262  53.261  0.00  0.00    +0.000 A 
ATOM     22  N   UNL     1      -5.976  53.019  53.840  0.00  0.00    +0.000 N 
ATOM     23  C   UNL     1      -4.817  54.575  52.831  0.00  0.00    +0.000 A 
ATOM     24  N   UNL     1      -4.713  52.522  53.768  0.00  0.00    +0.000 NA
ATOM     25  C   UNL     1      -6.942  52.188  54.519  0.00  0.00    +0.000 C 
ATOM     26  C   UNL     1      -4.015  53.480  53.168  0.00  0.00    +0.000 A 
ENDBRANCH  18  21
ENDBRANCH  12  18
ENDBRANCH   1  15
BRANCH   3  27
ATOM     27  C   UNL     1     -11.185  55.650  48.385  0.00  0.00    +0.000 C 
ATOM     28  O   UNL     1     -10.578  56.580  48.904  0.00  0.00    +0.000 OA
BRANCH  27  29
ATOM     29  O   UNL     1     -12.486  55.715  47.996  0.00  0.00    +0.000 OA
BRANCH  29  30
ATOM     30  C   UNL     1     -13.299  56.759  48.525  0.00  0.00    +0.000 C 
ATOM     31  C   UNL     1     -13.972  57.508  47.395  0.00  0.00    +0.000 C 
ENDBRANCH  29  30
ENDBRANCH  27  29
ENDBRANCH   3  27
TORSDOF 6
ENDMDL
MODEL 9
REMARK VINA RESULT:      -6.4      2.128      2.911
REMARK  Name = 
REMARK  10 active torsions:
REMARK  status: ('A' for Active; 'I' for Inactive)
REMARK    1  A    between atoms: S_1  and  N_4
REMARK    2  A    between atoms: S_1  and  C_5
REMARK    3  A    between atoms: N_7  and  C_12
REMARK    4  A    between atoms: N_10  and  C_14
REMARK    5  A    between atoms: C_16  and  C_19
REMARK    6  A    between atoms: C_19  and  O_23
REMARK    7  A    between atoms: O_23  and  C_26
REMARK    8  A    between atoms: C_24  and  C_27
REMARK    9  A    between atoms: C_24  and  C_28
REMARK   10  A    between atoms: C_26  and  C_29
REMARK                            x       y       z     vdW  Elec       q    Type
REMARK                         _______ _______ _______ _____ _____    ______ ____
ROOT
ATOM      1  C   UNL     1     -10.358  53.429  51.253  0.00  0.00    +0.000 A 
ATOM      2  S   UNL     1     -10.586  53.155  52.919  0.00  0.00    +0.000 S 
ATOM      3  C   UNL     1      -9.044  53.276  50.850  0.00  0.00    +0.000 A 
ATOM      4  C   UNL     1      -8.985  52.583  53.099  0.00  0.00    +0.000 A 
ATOM      5  C   UNL     1      -8.266  52.683  51.920  0.00  0.00    +0.000 A 
ATOM      6  C   UNL     1      -8.437  52.039  54.401  0.00  0.00    +0.000 C 
ATOM      7  C   UNL     1      -6.826  52.266  51.838  0.00  0.00    +0.000 C 
ATOM      8  C   UNL     1      -6.872  52.022  54.388  0.00  0.00    +0.000 C 
ATOM      9  C   UNL     1      -6.379  51.441  53.040  0.00  0.00    +0.000 C 
ATOM     10  C   UNL     1      -6.310  51.122  55.503  0.00  0.00    +0.000 C 
ATOM     11  C   UNL     1      -6.323  53.447  54.611  0.00  0.00    +0.000 C 
ENDROOT
BRANCH   1  15
ATOM     12  N   UNL     1     -13.009  55.315  49.714  0.00  0.00    +0.000 N 
ATOM     13  C   UNL     1     -11.854  55.072  50.470  0.00  0.00    +0.000 C 
ATOM     14  O   UNL     1     -11.208  55.993  50.947  0.00  0.00    +0.000 OA
ATOM     15  N   UNL     1     -11.493  53.746  50.522  0.00  0.00    +0.000 N 
ATOM     16  H   UNL     1     -13.481  54.544  49.322  0.00  0.00    +0.000 HD
ATOM     17  H   UNL     1     -12.017  53.051  50.060  0.00  0.00    +0.000 HD
BRANCH  12  18
ATOM     18  S   UNL     1     -13.627  56.838  49.443  0.00  0.00    +0.000 S 
ATOM     19  O   UNL     1     -14.710  56.767  48.495  0.00  0.00    +0.000 OA
ATOM     20  O   UNL     1     -12.469  57.661  49.159  0.00  0.00    +0.000 OA
BRANCH  18  21
ATOM     21  C   UNL     1     -14.273  57.531  50.937  0.00  0.00    +0.000 A 
ATOM     22  N   UNL     1     -14.684  58.833  51.115  0.00  0.00    +0.000 N 
ATOM     23  C   UNL     1     -14.441  56.942  52.186  0.00  0.00    +0.000 A 
ATOM     24  N   UNL     1     -15.129  59.086  52.374  0.00  0.00    +0.000 NA
ATOM     25  C   UNL     1     -14.694  59.955  50.207  0.00  0.00    +0.000 C 
ATOM     26  C   UNL     1     -14.964  57.937  53.020  0.00  0.00    +0.000 A 
ENDBRANCH  18  21
ENDBRANCH  12  18
ENDBRANCH   1  15
BRANCH   3  27
ATOM     27  C   UNL     1      -8.548  53.664  49.524  0.00  0.00    +0.000 C 
ATOM     28  O   UNL     1      -8.683  52.988  48.509  0.00  0.00    +0.000 OA
BRANCH  27  29
ATOM     29  O   UNL     1      -7.943  54.881  49.551  0.00  0.00    +0.000 OA
BRANCH  29  30
ATOM     30  C   UNL     1      -6.744  55.057  48.801  0.00  0.00    +0.000 C 
ATOM     31  C   UNL     1      -5.555  55.095  49.737  0.00  0.00    +0.000 C 
ENDBRANCH  29  30
ENDBRANCH  27  29
ENDBRANCH   3  27
TORSDOF 6
ENDMDL
