MODEL 1
REMARK VINA RESULT:      -7.4      0.000      0.000
REMARK  Name = 
REMARK  10 active torsions:
REMARK  status: ('A' for Active; 'I' for Inactive)
REMARK    1  A    between atoms: S_1  and  N_4
REMARK    2  A    between atoms: S_1  and  C_5
REMARK    3  A    between atoms: N_10  and  C_13
REMARK    4  A    between atoms: C_14  and  C_17
REMARK    5  A    between atoms: C_16  and  C_20
REMARK    6  A    between atoms: C_20  and  O_25
REMARK    7  A    between atoms: O_25  and  C_28
REMARK    8  A    between atoms: C_26  and  C_29
REMARK    9  A    between atoms: C_26  and  C_30
REMARK   10  A    between atoms: C_28  and  C_31
REMARK                            x       y       z     vdW  Elec       q    Type
REMARK                         _______ _______ _______ _____ _____    ______ ____
ROOT
ATOM      1  N   UNL     1      -8.050  53.329  49.823  0.00  0.00    +0.000 N 
ATOM      2  C   UNL     1      -9.192  54.120  49.820  0.00  0.00    +0.000 C 
ATOM      3  O   UNL     1      -9.278  55.105  49.095  0.00  0.00    +0.000 OA
ATOM      4  N   UNL     1     -10.123  53.767  50.775  0.00  0.00    +0.000 N 
ATOM      5  H   UNL     1      -8.028  52.552  50.426  0.00  0.00    +0.000 HD
ATOM      6  H   UNL     1      -9.988  52.976  51.346  0.00  0.00    +0.000 HD
ENDROOT
BRANCH   4   7
ATOM      7  C   UNL     1     -11.252  54.558  50.910  0.00  0.00    +0.000 A 
ATOM      8  S   UNL     1     -11.449  55.297  52.428  0.00  0.00    +0.000 S 
ATOM      9  C   UNL     1     -12.240  54.897  50.003  0.00  0.00    +0.000 A 
ATOM     10  C   UNL     1     -12.707  56.288  51.836  0.00  0.00    +0.000 A 
ATOM     11  C   UNL     1     -13.037  55.984  50.524  0.00  0.00    +0.000 A 
ATOM     12  C   UNL     1     -13.365  57.362  52.669  0.00  0.00    +0.000 C 
ATOM     13  C   UNL     1     -14.156  56.686  49.809  0.00  0.00    +0.000 C 
ATOM     14  C   UNL     1     -14.746  57.773  52.066  0.00  0.00    +0.000 C 
ATOM     15  C   UNL     1     -14.607  57.955  50.535  0.00  0.00    +0.000 C 
ATOM     16  C   UNL     1     -15.220  59.115  52.654  0.00  0.00    +0.000 C 
ATOM     17  C   UNL     1     -15.809  56.708  52.401  0.00  0.00    +0.000 C 
BRANCH   9  18
ATOM     18  C   UNL     1     -12.398  54.219  48.714  0.00  0.00    +0.000 C 
ATOM     19  O   UNL     1     -12.479  53.001  48.604  0.00  0.00    +0.000 OA
BRANCH  18  20
ATOM     20  O   UNL     1     -12.444  55.093  47.674  0.00  0.00    +0.000 OA
BRANCH  20  21
ATOM     21  C   UNL     1     -11.344  55.077  46.760  0.00  0.00    +0.000 C 
ATOM     22  C   UNL     1     -11.688  54.206  45.569  0.00  0.00    +0.000 C 
ENDBRANCH  20  21
ENDBRANCH  18  20
ENDBRANCH   9  18
ENDBRANCH   4   7
BRANCH   1  23
ATOM     23  S   UNL     1      -6.715  53.614  48.866  0.00  0.00    +0.000 S 
ATOM     24  O   UNL     1      -5.717  52.602  49.132  0.00  0.00    +0.000 OA
ATOM     25  O   UNL     1      -6.406  55.019  49.040  0.00  0.00    +0.000 OA
BRANCH  23  26
ATOM     26  C   UNL     1      -7.299  53.431  47.190  0.00  0.00    +0.000 A 
ATOM     27  C   UNL     1      -7.430  54.553  46.365  0.00  0.00    +0.000 A 
ATOM     28  C   UNL     1      -7.599  52.153  46.703  0.00  0.00    +0.000 A 
ATOM     29  C   UNL     1      -7.899  54.391  45.055  0.00  0.00    +0.000 A 
ATOM     30  C   UNL     1      -8.063  51.997  45.394  0.00  0.00    +0.000 A 
ATOM     31  C   UNL     1      -8.221  53.118  44.565  0.00  0.00    +0.000 A 
BRANCH  31  32
ATOM     32  C   UNL     1      -8.720  52.959  43.226  0.00  0.00    +0.000 C 
ATOM     33  N   UNL     1      -9.120  52.823  42.145  0.00  0.00    +0.000 NA
ENDBRANCH  31  32
ENDBRANCH  23  26
ENDBRANCH   1  23
TORSDOF 7
ENDMDL
MODEL 2
REMARK VINA RESULT:      -7.3      1.700      2.313
REMARK  Name = 
REMARK  10 active torsions:
REMARK  status: ('A' for Active; 'I' for Inactive)
REMARK    1  A    between atoms: S_1  and  N_4
REMARK    2  A    between atoms: S_1  and  C_5
REMARK    3  A    between atoms: N_10  and  C_13
REMARK    4  A    between atoms: C_14  and  C_17
REMARK    5  A    between atoms: C_16  and  C_20
REMARK    6  A    between atoms: C_20  and  O_25
REMARK    7  A    between atoms: O_25  and  C_28
REMARK    8  A    between atoms: C_26  and  C_29
REMARK    9  A    between atoms: C_26  and  C_30
REMARK   10  A    between atoms: C_28  and  C_31
REMARK                            x       y       z     vdW  Elec       q    Type
REMARK                         _______ _______ _______ _____ _____    ______ ____
ROOT
ATOM      1  N   UNL     1      -8.766  52.505  49.728  0.00  0.00    +0.000 N 
ATOM      2  C   UNL     1      -9.974  53.139  49.989  0.00  0.00    +0.000 C 
ATOM      3  O   UNL     1     -11.041  52.552  49.846  0.00  0.00    +0.000 OA
ATOM      4  N   UNL     1      -9.852  54.481  50.286  0.00  0.00    +0.000 N 
ATOM      5  H   UNL     1      -7.938  53.021  49.853  0.00  0.00    +0.000 HD
ATOM      6  H   UNL     1      -8.967  54.904  50.365  0.00  0.00    +0.000 HD
ENDROOT
BRANCH   4   7
ATOM      7  C   UNL     1     -11.012  55.217  50.468  0.00  0.00    +0.000 A 
ATOM      8  S   UNL     1     -11.570  55.316  52.071  0.00  0.00    +0.000 S 
ATOM      9  C   UNL     1     -11.784  55.936  49.574  0.00  0.00    +0.000 A 
ATOM     10  C   UNL     1     -12.700  56.526  51.653  0.00  0.00    +0.000 A 
ATOM     11  C   UNL     1     -12.717  56.775  50.290  0.00  0.00    +0.000 A 
ATOM     12  C   UNL     1     -13.567  57.225  52.674  0.00  0.00    +0.000 C 
ATOM     13  C   UNL     1     -13.673  57.760  49.680  0.00  0.00    +0.000 C 
ATOM     14  C   UNL     1     -14.792  57.912  51.993  0.00  0.00    +0.000 C 
ATOM     15  C   UNL     1     -14.322  58.668  50.726  0.00  0.00    +0.000 C 
ATOM     16  C   UNL     1     -15.435  58.943  52.939  0.00  0.00    +0.000 C 
ATOM     17  C   UNL     1     -15.863  56.860  51.641  0.00  0.00    +0.000 C 
BRANCH   9  18
ATOM     18  C   UNL     1     -11.625  55.823  48.122  0.00  0.00    +0.000 C 
ATOM     19  O   UNL     1     -12.570  55.836  47.342  0.00  0.00    +0.000 OA
BRANCH  18  20
ATOM     20  O   UNL     1     -10.322  55.706  47.754  0.00  0.00    +0.000 OA
BRANCH  20  21
ATOM     21  C   UNL     1     -10.032  54.846  46.649  0.00  0.00    +0.000 C 
ATOM     22  C   UNL     1      -8.531  54.755  46.458  0.00  0.00    +0.000 C 
ENDBRANCH  20  21
ENDBRANCH  18  20
ENDBRANCH   9  18
ENDBRANCH   4   7
BRANCH   1  23
ATOM     23  S   UNL     1      -8.633  50.923  49.217  0.00  0.00    +0.000 S 
ATOM     24  O   UNL     1      -9.673  50.137  49.842  0.00  0.00    +0.000 OA
ATOM     25  O   UNL     1      -7.237  50.575  49.393  0.00  0.00    +0.000 OA
BRANCH  23  26
ATOM     26  C   UNL     1      -8.920  50.980  47.458  0.00  0.00    +0.000 A 
ATOM     27  C   UNL     1      -7.842  50.951  46.568  0.00  0.00    +0.000 A 
ATOM     28  C   UNL     1     -10.235  51.027  46.977  0.00  0.00    +0.000 A 
ATOM     29  C   UNL     1      -8.086  51.006  45.190  0.00  0.00    +0.000 A 
ATOM     30  C   UNL     1     -10.473  51.078  45.601  0.00  0.00    +0.000 A 
ATOM     31  C   UNL     1      -9.398  51.074  44.701  0.00  0.00    +0.000 A 
BRANCH  31  32
ATOM     32  C   UNL     1      -9.643  51.148  43.285  0.00  0.00    +0.000 C 
ATOM     33  N   UNL     1      -9.848  51.212  42.145  0.00  0.00    +0.000 NA
ENDBRANCH  31  32
ENDBRANCH  23  26
ENDBRANCH   1  23
TORSDOF 7
ENDMDL
MODEL 3
REMARK VINA RESULT:      -7.2      2.560      4.454
REMARK  Name = 
REMARK  10 active torsions:
REMARK  status: ('A' for Active; 'I' for Inactive)
REMARK    1  A    between atoms: S_1  and  N_4
REMARK    2  A    between atoms: S_1  and  C_5
REMARK    3  A    between atoms: N_10  and  C_13
REMARK    4  A    between atoms: C_14  and  C_17
REMARK    5  A    between atoms: C_16  and  C_20
REMARK    6  A    between atoms: C_20  and  O_25
REMARK    7  A    between atoms: O_25  and  C_28
REMARK    8  A    between atoms: C_26  and  C_29
REMARK    9  A    between atoms: C_26  and  C_30
REMARK   10  A    between atoms: C_28  and  C_31
REMARK                            x       y       z     vdW  Elec       q    Type
REMARK                         _______ _______ _______ _____ _____    ______ ____
ROOT
ATOM      1  N   UNL     1      -8.570  52.160  48.532  0.00  0.00    +0.000 N 
ATOM      2  C   UNL     1      -9.383  53.263  48.757  0.00  0.00    +0.000 C 
ATOM      3  O   UNL     1      -8.912  54.392  48.842  0.00  0.00    +0.000 OA
ATOM      4  N   UNL     1     -10.706  52.948  48.993  0.00  0.00    +0.000 N 
ATOM      5  H   UNL     1      -8.996  51.276  48.477  0.00  0.00    +0.000 HD
ATOM      6  H   UNL     1     -11.024  52.018  48.933  0.00  0.00    +0.000 HD
ENDROOT
BRANCH   4   7
ATOM      7  C   UNL     1     -11.574  53.976  49.321  0.00  0.00    +0.000 A 
ATOM      8  S   UNL     1     -12.054  54.036  50.950  0.00  0.00    +0.000 S 
ATOM      9  C   UNL     1     -12.093  55.008  48.559  0.00  0.00    +0.000 A 
ATOM     10  C   UNL     1     -12.753  55.579  50.738  0.00  0.00    +0.000 A 
ATOM     11  C   UNL     1     -12.708  55.995  49.416  0.00  0.00    +0.000 A 
ATOM     12  C   UNL     1     -13.345  56.374  51.878  0.00  0.00    +0.000 C 
ATOM     13  C   UNL     1     -13.314  57.297  48.977  0.00  0.00    +0.000 C 
ATOM     14  C   UNL     1     -14.301  57.489  51.347  0.00  0.00    +0.000 C 
ATOM     15  C   UNL     1     -13.633  58.219  50.156  0.00  0.00    +0.000 C 
ATOM     16  C   UNL     1     -14.577  58.538  52.440  0.00  0.00    +0.000 C 
ATOM     17  C   UNL     1     -15.652  56.874  50.929  0.00  0.00    +0.000 C 
BRANCH   9  18
ATOM     18  C   UNL     1     -11.995  55.039  47.098  0.00  0.00    +0.000 C 
ATOM     19  O   UNL     1     -11.928  56.079  46.452  0.00  0.00    +0.000 OA
BRANCH  18  20
ATOM     20  O   UNL     1     -11.987  53.793  46.555  0.00  0.00    +0.000 OA
BRANCH  20  21
ATOM     21  C   UNL     1     -11.528  53.671  45.207  0.00  0.00    +0.000 C 
ATOM     22  C   UNL     1     -10.038  53.395  45.200  0.00  0.00    +0.000 C 
ENDBRANCH  20  21
ENDBRANCH  18  20
ENDBRANCH   9  18
ENDBRANCH   4   7
BRANCH   1  23
ATOM     23  S   UNL     1      -6.914  52.244  48.350  0.00  0.00    +0.000 S 
ATOM     24  O   UNL     1      -6.603  53.160  47.275  0.00  0.00    +0.000 OA
ATOM     25  O   UNL     1      -6.460  50.868  48.303  0.00  0.00    +0.000 OA
BRANCH  23  26
ATOM     26  C   UNL     1      -6.314  52.921  49.887  0.00  0.00    +0.000 A 
ATOM     27  C   UNL     1      -6.754  52.395  51.106  0.00  0.00    +0.000 A 
ATOM     28  C   UNL     1      -5.378  53.963  49.860  0.00  0.00    +0.000 A 
ATOM     29  C   UNL     1      -6.279  52.946  52.303  0.00  0.00    +0.000 A 
ATOM     30  C   UNL     1      -4.904  54.505  51.057  0.00  0.00    +0.000 A 
ATOM     31  C   UNL     1      -5.358  54.003  52.285  0.00  0.00    +0.000 A 
BRANCH  31  32
ATOM     32  C   UNL     1      -4.886  54.577  53.517  0.00  0.00    +0.000 C 
ATOM     33  N   UNL     1      -4.504  55.047  54.507  0.00  0.00    +0.000 NA
ENDBRANCH  31  32
ENDBRANCH  23  26
ENDBRANCH   1  23
TORSDOF 7
ENDMDL
MODEL 4
REMARK VINA RESULT:      -7.1      3.346      8.491
REMARK  Name = 
REMARK  10 active torsions:
REMARK  status: ('A' for Active; 'I' for Inactive)
REMARK    1  A    between atoms: S_1  and  N_4
REMARK    2  A    between atoms: S_1  and  C_5
REMARK    3  A    between atoms: N_10  and  C_13
REMARK    4  A    between atoms: C_14  and  C_17
REMARK    5  A    between atoms: C_16  and  C_20
REMARK    6  A    between atoms: C_20  and  O_25
REMARK    7  A    between atoms: O_25  and  C_28
REMARK    8  A    between atoms: C_26  and  C_29
REMARK    9  A    between atoms: C_26  and  C_30
REMARK   10  A    between atoms: C_28  and  C_31
REMARK                            x       y       z     vdW  Elec       q    Type
REMARK                         _______ _______ _______ _____ _____    ______ ____
ROOT
ATOM      1  N   UNL     1     -11.798  56.842  49.178  0.00  0.00    +0.000 N 
ATOM      2  C   UNL     1     -10.785  55.967  49.550  0.00  0.00    +0.000 C 
ATOM      3  O   UNL     1     -11.039  54.832  49.937  0.00  0.00    +0.000 OA
ATOM      4  N   UNL     1      -9.527  56.535  49.560  0.00  0.00    +0.000 N 
ATOM      5  H   UNL     1     -11.542  57.744  48.879  0.00  0.00    +0.000 HD
ATOM      6  H   UNL     1      -9.387  57.461  49.258  0.00  0.00    +0.000 HD
ENDROOT
BRANCH   4   7
ATOM      7  C   UNL     1      -8.467  55.765  50.008  0.00  0.00    +0.000 A 
ATOM      8  S   UNL     1      -8.029  56.001  51.634  0.00  0.00    +0.000 S 
ATOM      9  C   UNL     1      -7.718  54.788  49.376  0.00  0.00    +0.000 A 
ATOM     10  C   UNL     1      -7.009  54.632  51.608  0.00  0.00    +0.000 A 
ATOM     11  C   UNL     1      -6.928  54.065  50.346  0.00  0.00    +0.000 A 
ATOM     12  C   UNL     1      -6.289  54.123  52.835  0.00  0.00    +0.000 C 
ATOM     13  C   UNL     1      -6.044  52.884  50.066  0.00  0.00    +0.000 C 
ATOM     14  C   UNL     1      -5.102  53.189  52.442  0.00  0.00    +0.000 C 
ATOM     15  C   UNL     1      -5.565  52.197  51.347  0.00  0.00    +0.000 C 
ATOM     16  C   UNL     1      -4.635  52.360  53.654  0.00  0.00    +0.000 C 
ATOM     17  C   UNL     1      -3.905  54.029  51.954  0.00  0.00    +0.000 C 
BRANCH   9  18
ATOM     18  C   UNL     1      -7.768  54.566  47.929  0.00  0.00    +0.000 C 
ATOM     19  O   UNL     1      -6.802  54.727  47.192  0.00  0.00    +0.000 OA
BRANCH  18  20
ATOM     20  O   UNL     1      -8.998  54.166  47.512  0.00  0.00    +0.000 OA
BRANCH  20  21
ATOM     21  C   UNL     1      -9.448  54.654  46.245  0.00  0.00    +0.000 C 
ATOM     22  C   UNL     1     -10.963  54.639  46.205  0.00  0.00    +0.000 C 
ENDBRANCH  20  21
ENDBRANCH  18  20
ENDBRANCH   9  18
ENDBRANCH   4   7
BRANCH   1  23
ATOM     23  S   UNL     1     -13.420  56.457  49.206  0.00  0.00    +0.000 S 
ATOM     24  O   UNL     1     -13.566  55.045  49.480  0.00  0.00    +0.000 OA
ATOM     25  O   UNL     1     -13.977  57.037  48.001  0.00  0.00    +0.000 OA
BRANCH  23  26
ATOM     26  C   UNL     1     -14.092  57.389  50.571  0.00  0.00    +0.000 A 
ATOM     27  C   UNL     1     -14.164  56.817  51.845  0.00  0.00    +0.000 A 
ATOM     28  C   UNL     1     -14.521  58.705  50.359  0.00  0.00    +0.000 A 
ATOM     29  C   UNL     1     -14.705  57.560  52.903  0.00  0.00    +0.000 A 
ATOM     30  C   UNL     1     -15.055  59.444  51.418  0.00  0.00    +0.000 A 
ATOM     31  C   UNL     1     -15.155  58.871  52.695  0.00  0.00    +0.000 A 
BRANCH  31  32
ATOM     32  C   UNL     1     -15.725  59.624  53.780  0.00  0.00    +0.000 C 
ATOM     33  N   UNL     1     -16.191  60.226  54.655  0.00  0.00    +0.000 NA
ENDBRANCH  31  32
ENDBRANCH  23  26
ENDBRANCH   1  23
TORSDOF 7
ENDMDL
MODEL 5
REMARK VINA RESULT:      -7.0      2.945      5.138
REMARK  Name = 
REMARK  10 active torsions:
REMARK  status: ('A' for Active; 'I' for Inactive)
REMARK    1  A    between atoms: S_1  and  N_4
REMARK    2  A    between atoms: S_1  and  C_5
REMARK    3  A    between atoms: N_10  and  C_13
REMARK    4  A    between atoms: C_14  and  C_17
REMARK    5  A    between atoms: C_16  and  C_20
REMARK    6  A    between atoms: C_20  and  O_25
REMARK    7  A    between atoms: O_25  and  C_28
REMARK    8  A    between atoms: C_26  and  C_29
REMARK    9  A    between atoms: C_26  and  C_30
REMARK   10  A    between atoms: C_28  and  C_31
REMARK                            x       y       z     vdW  Elec       q    Type
REMARK                         _______ _______ _______ _____ _____    ______ ____
ROOT
ATOM      1  N   UNL     1      -8.199  53.755  49.944  0.00  0.00    +0.000 N 
ATOM      2  C   UNL     1      -9.222  54.613  50.329  0.00  0.00    +0.000 C 
ATOM      3  O   UNL     1      -9.100  55.348  51.302  0.00  0.00    +0.000 OA
ATOM      4  N   UNL     1     -10.387  54.459  49.605  0.00  0.00    +0.000 N 
ATOM      5  H   UNL     1      -8.349  53.181  49.159  0.00  0.00    +0.000 HD
ATOM      6  H   UNL     1     -10.433  53.835  48.845  0.00  0.00    +0.000 HD
ENDROOT
BRANCH   4   7
ATOM      7  C   UNL     1     -11.491  55.207  49.979  0.00  0.00    +0.000 A 
ATOM      8  S   UNL     1     -11.797  55.272  51.650  0.00  0.00    +0.000 S 
ATOM      9  C   UNL     1     -12.377  55.961  49.230  0.00  0.00    +0.000 A 
ATOM     10  C   UNL     1     -12.955  56.509  51.438  0.00  0.00    +0.000 A 
ATOM     11  C   UNL     1     -13.175  56.794  50.100  0.00  0.00    +0.000 A 
ATOM     12  C   UNL     1     -13.644  57.193  52.596  0.00  0.00    +0.000 C 
ATOM     13  C   UNL     1     -14.194  57.809  49.666  0.00  0.00    +0.000 C 
ATOM     14  C   UNL     1     -14.945  57.916  52.126  0.00  0.00    +0.000 C 
ATOM     15  C   UNL     1     -14.659  58.698  50.821  0.00  0.00    +0.000 C 
ATOM     16  C   UNL     1     -15.418  58.931  53.184  0.00  0.00    +0.000 C 
ATOM     17  C   UNL     1     -16.076  56.890  51.917  0.00  0.00    +0.000 C 
BRANCH   9  18
ATOM     18  C   UNL     1     -12.443  55.884  47.769  0.00  0.00    +0.000 C 
ATOM     19  O   UNL     1     -12.851  56.802  47.067  0.00  0.00    +0.000 OA
BRANCH  18  20
ATOM     20  O   UNL     1     -12.003  54.688  47.296  0.00  0.00    +0.000 OA
BRANCH  20  21
ATOM     21  C   UNL     1     -11.591  54.639  45.928  0.00  0.00    +0.000 C 
ATOM     22  C   UNL     1     -11.810  53.244  45.380  0.00  0.00    +0.000 C 
ENDBRANCH  20  21
ENDBRANCH  18  20
ENDBRANCH   9  18
ENDBRANCH   4   7
BRANCH   1  23
ATOM     23  S   UNL     1      -6.735  53.637  50.732  0.00  0.00    +0.000 S 
ATOM     24  O   UNL     1      -6.275  54.965  51.075  0.00  0.00    +0.000 OA
ATOM     25  O   UNL     1      -5.921  52.763  49.911  0.00  0.00    +0.000 OA
BRANCH  23  26
ATOM     26  C   UNL     1      -7.087  52.736  52.231  0.00  0.00    +0.000 A 
ATOM     27  C   UNL     1      -6.332  52.969  53.385  0.00  0.00    +0.000 A 
ATOM     28  C   UNL     1      -8.141  51.815  52.247  0.00  0.00    +0.000 A 
ATOM     29  C   UNL     1      -6.616  52.245  54.550  0.00  0.00    +0.000 A 
ATOM     30  C   UNL     1      -8.424  51.098  53.413  0.00  0.00    +0.000 A 
ATOM     31  C   UNL     1      -7.658  51.306  54.569  0.00  0.00    +0.000 A 
BRANCH  31  32
ATOM     32  C   UNL     1      -7.934  50.552  55.763  0.00  0.00    +0.000 C 
ATOM     33  N   UNL     1      -8.164  49.950  56.727  0.00  0.00    +0.000 NA
ENDBRANCH  31  32
ENDBRANCH  23  26
ENDBRANCH   1  23
TORSDOF 7
ENDMDL
MODEL 6
REMARK VINA RESULT:      -6.8      2.674      4.484
REMARK  Name = 
REMARK  10 active torsions:
REMARK  status: ('A' for Active; 'I' for Inactive)
REMARK    1  A    between atoms: S_1  and  N_4
REMARK    2  A    between atoms: S_1  and  C_5
REMARK    3  A    between atoms: N_10  and  C_13
REMARK    4  A    between atoms: C_14  and  C_17
REMARK    5  A    between atoms: C_16  and  C_20
REMARK    6  A    between atoms: C_20  and  O_25
REMARK    7  A    between atoms: O_25  and  C_28
REMARK    8  A    between atoms: C_26  and  C_29
REMARK    9  A    between atoms: C_26  and  C_30
REMARK   10  A    between atoms: C_28  and  C_31
REMARK                            x       y       z     vdW  Elec       q    Type
REMARK                         _______ _______ _______ _____ _____    ______ ____
ROOT
ATOM      1  N   UNL     1      -9.346  53.436  47.399  0.00  0.00    +0.000 N 
ATOM      2  C   UNL     1      -9.967  54.495  48.048  0.00  0.00    +0.000 C 
ATOM      3  O   UNL     1      -9.362  55.534  48.288  0.00  0.00    +0.000 OA
ATOM      4  N   UNL     1     -11.244  54.213  48.490  0.00  0.00    +0.000 N 
ATOM      5  H   UNL     1      -9.873  52.622  47.235  0.00  0.00    +0.000 HD
ATOM      6  H   UNL     1     -11.671  53.350  48.286  0.00  0.00    +0.000 HD
ENDROOT
BRANCH   4   7
ATOM      7  C   UNL     1     -11.907  55.177  49.231  0.00  0.00    +0.000 A 
ATOM      8  S   UNL     1     -12.714  56.367  48.325  0.00  0.00    +0.000 S 
ATOM      9  C   UNL     1     -12.072  55.323  50.597  0.00  0.00    +0.000 A 
ATOM     10  C   UNL     1     -13.513  56.952  49.715  0.00  0.00    +0.000 A 
ATOM     11  C   UNL     1     -13.090  56.312  50.869  0.00  0.00    +0.000 A 
ATOM     12  C   UNL     1     -14.556  58.044  49.663  0.00  0.00    +0.000 C 
ATOM     13  C   UNL     1     -13.612  56.698  52.223  0.00  0.00    +0.000 C 
ATOM     14  C   UNL     1     -14.766  58.688  51.069  0.00  0.00    +0.000 C 
ATOM     15  C   UNL     1     -14.864  57.572  52.139  0.00  0.00    +0.000 C 
ATOM     16  C   UNL     1     -16.080  59.491  51.112  0.00  0.00    +0.000 C 
ATOM     17  C   UNL     1     -13.609  59.656  51.388  0.00  0.00    +0.000 C 
BRANCH   9  18
ATOM     18  C   UNL     1     -11.298  54.553  51.574  0.00  0.00    +0.000 C 
ATOM     19  O   UNL     1     -11.359  53.332  51.664  0.00  0.00    +0.000 OA
BRANCH  18  20
ATOM     20  O   UNL     1     -10.518  55.347  52.354  0.00  0.00    +0.000 OA
BRANCH  20  21
ATOM     21  C   UNL     1      -9.149  54.966  52.509  0.00  0.00    +0.000 C 
ATOM     22  C   UNL     1      -8.283  55.797  51.584  0.00  0.00    +0.000 C 
ENDBRANCH  20  21
ENDBRANCH  18  20
ENDBRANCH   9  18
ENDBRANCH   4   7
BRANCH   1  23
ATOM     23  S   UNL     1      -7.761  53.460  46.882  0.00  0.00    +0.000 S 
ATOM     24  O   UNL     1      -7.563  54.603  46.018  0.00  0.00    +0.000 OA
ATOM     25  O   UNL     1      -7.488  52.119  46.405  0.00  0.00    +0.000 OA
BRANCH  23  26
ATOM     26  C   UNL     1      -6.793  53.674  48.365  0.00  0.00    +0.000 A 
ATOM     27  C   UNL     1      -5.972  54.797  48.513  0.00  0.00    +0.000 A 
ATOM     28  C   UNL     1      -6.885  52.722  49.388  0.00  0.00    +0.000 A 
ATOM     29  C   UNL     1      -5.212  54.943  49.680  0.00  0.00    +0.000 A 
ATOM     30  C   UNL     1      -6.127  52.875  50.552  0.00  0.00    +0.000 A 
ATOM     31  C   UNL     1      -5.282  53.984  50.701  0.00  0.00    +0.000 A 
BRANCH  31  32
ATOM     32  C   UNL     1      -4.486  54.129  51.890  0.00  0.00    +0.000 C 
ATOM     33  N   UNL     1      -3.848  54.240  52.853  0.00  0.00    +0.000 NA
ENDBRANCH  31  32
ENDBRANCH  23  26
ENDBRANCH   1  23
TORSDOF 7
ENDMDL
MODEL 7
REMARK VINA RESULT:      -6.7      2.747      4.385
REMARK  Name = 
REMARK  10 active torsions:
REMARK  status: ('A' for Active; 'I' for Inactive)
REMARK    1  A    between atoms: S_1  and  N_4
REMARK    2  A    between atoms: S_1  and  C_5
REMARK    3  A    between atoms: N_10  and  C_13
REMARK    4  A    between atoms: C_14  and  C_17
REMARK    5  A    between atoms: C_16  and  C_20
REMARK    6  A    between atoms: C_20  and  O_25
REMARK    7  A    between atoms: O_25  and  C_28
REMARK    8  A    between atoms: C_26  and  C_29
REMARK    9  A    between atoms: C_26  and  C_30
REMARK   10  A    between atoms: C_28  and  C_31
REMARK                            x       y       z     vdW  Elec       q    Type
REMARK                         _______ _______ _______ _____ _____    ______ ____
ROOT
ATOM      1  N   UNL     1      -9.396  53.825  45.537  0.00  0.00    +0.000 N 
ATOM      2  C   UNL     1     -10.167  54.131  46.651  0.00  0.00    +0.000 C 
ATOM      3  O   UNL     1     -10.713  53.250  47.305  0.00  0.00    +0.000 OA
ATOM      4  N   UNL     1     -10.349  55.484  46.854  0.00  0.00    +0.000 N 
ATOM      5  H   UNL     1      -8.983  54.569  45.042  0.00  0.00    +0.000 HD
ATOM      6  H   UNL     1      -9.901  56.147  46.281  0.00  0.00    +0.000 HD
ENDROOT
BRANCH   4   7
ATOM      7  C   UNL     1     -11.182  55.883  47.887  0.00  0.00    +0.000 A 
ATOM      8  S   UNL     1     -12.770  56.282  47.432  0.00  0.00    +0.000 S 
ATOM      9  C   UNL     1     -10.964  55.971  49.250  0.00  0.00    +0.000 A 
ATOM     10  C   UNL     1     -13.276  56.332  49.062  0.00  0.00    +0.000 A 
ATOM     11  C   UNL     1     -12.221  56.146  49.941  0.00  0.00    +0.000 A 
ATOM     12  C   UNL     1     -14.714  56.557  49.467  0.00  0.00    +0.000 C 
ATOM     13  C   UNL     1     -12.414  56.206  51.430  0.00  0.00    +0.000 C 
ATOM     14  C   UNL     1     -14.812  57.013  50.957  0.00  0.00    +0.000 C 
ATOM     15  C   UNL     1     -13.888  56.129  51.830  0.00  0.00    +0.000 C 
ATOM     16  C   UNL     1     -16.250  56.849  51.484  0.00  0.00    +0.000 C 
ATOM     17  C   UNL     1     -14.429  58.502  51.082  0.00  0.00    +0.000 C 
BRANCH   9  18
ATOM     18  C   UNL     1      -9.628  55.887  49.845  0.00  0.00    +0.000 C 
ATOM     19  O   UNL     1      -8.808  56.796  49.784  0.00  0.00    +0.000 OA
BRANCH  18  20
ATOM     20  O   UNL     1      -9.414  54.696  50.465  0.00  0.00    +0.000 OA
BRANCH  20  21
ATOM     21  C   UNL     1      -8.392  53.854  49.925  0.00  0.00    +0.000 C 
ATOM     22  C   UNL     1      -8.778  52.401  50.115  0.00  0.00    +0.000 C 
ENDBRANCH  20  21
ENDBRANCH  18  20
ENDBRANCH   9  18
ENDBRANCH   4   7
BRANCH   1  23
ATOM     23  S   UNL     1      -9.128  52.275  44.985  0.00  0.00    +0.000 S 
ATOM     24  O   UNL     1      -8.434  52.337  43.718  0.00  0.00    +0.000 OA
ATOM     25  O   UNL     1     -10.405  51.598  45.095  0.00  0.00    +0.000 OA
BRANCH  23  26
ATOM     26  C   UNL     1      -8.056  51.530  46.202  0.00  0.00    +0.000 A 
ATOM     27  C   UNL     1      -8.299  50.227  46.649  0.00  0.00    +0.000 A 
ATOM     28  C   UNL     1      -6.957  52.252  46.683  0.00  0.00    +0.000 A 
ATOM     29  C   UNL     1      -7.453  49.663  47.612  0.00  0.00    +0.000 A 
ATOM     30  C   UNL     1      -6.113  51.682  47.640  0.00  0.00    +0.000 A 
ATOM     31  C   UNL     1      -6.361  50.386  48.114  0.00  0.00    +0.000 A 
BRANCH  31  32
ATOM     32  C   UNL     1      -5.506  49.808  49.115  0.00  0.00    +0.000 C 
ATOM     33  N   UNL     1      -4.822  49.341  49.928  0.00  0.00    +0.000 NA
ENDBRANCH  31  32
ENDBRANCH  23  26
ENDBRANCH   1  23
TORSDOF 7
ENDMDL
MODEL 8
REMARK VINA RESULT:      -6.7      3.338      9.305
REMARK  Name = 
REMARK  10 active torsions:
REMARK  status: ('A' for Active; 'I' for Inactive)
REMARK    1  A    between atoms: S_1  and  N_4
REMARK    2  A    between atoms: S_1  and  C_5
REMARK    3  A    between atoms: N_10  and  C_13
REMARK    4  A    between atoms: C_14  and  C_17
REMARK    5  A    between atoms: C_16  and  C_20
REMARK    6  A    between atoms: C_20  and  O_25
REMARK    7  A    between atoms: O_25  and  C_28
REMARK    8  A    between atoms: C_26  and  C_29
REMARK    9  A    between atoms: C_26  and  C_30
REMARK   10  A    between atoms: C_28  and  C_31
REMARK                            x       y       z     vdW  Elec       q    Type
REMARK                         _______ _______ _______ _____ _____    ______ ____
ROOT
ATOM      1  N   UNL     1     -12.182  55.611  50.574  0.00  0.00    +0.000 N 
ATOM      2  C   UNL     1     -10.855  55.346  50.259  0.00  0.00    +0.000 C 
ATOM      3  O   UNL     1     -10.296  55.923  49.334  0.00  0.00    +0.000 OA
ATOM      4  N   UNL     1     -10.301  54.312  50.987  0.00  0.00    +0.000 N 
ATOM      5  H   UNL     1     -12.587  55.117  51.322  0.00  0.00    +0.000 HD
ATOM      6  H   UNL     1     -10.808  53.870  51.705  0.00  0.00    +0.000 HD
ENDROOT
BRANCH   4   7
ATOM      7  C   UNL     1      -9.011  53.914  50.677  0.00  0.00    +0.000 A 
ATOM      8  S   UNL     1      -8.890  52.587  49.622  0.00  0.00    +0.000 S 
ATOM      9  C   UNL     1      -7.783  54.439  51.040  0.00  0.00    +0.000 A 
ATOM     10  C   UNL     1      -7.214  52.841  49.418  0.00  0.00    +0.000 A 
ATOM     11  C   UNL     1      -6.739  53.862  50.225  0.00  0.00    +0.000 A 
ATOM     12  C   UNL     1      -6.373  52.028  48.462  0.00  0.00    +0.000 C 
ATOM     13  C   UNL     1      -5.282  54.228  50.260  0.00  0.00    +0.000 C 
ATOM     14  C   UNL     1      -4.855  52.143  48.812  0.00  0.00    +0.000 C 
ATOM     15  C   UNL     1      -4.501  53.624  49.092  0.00  0.00    +0.000 C 
ATOM     16  C   UNL     1      -3.986  51.670  47.633  0.00  0.00    +0.000 C 
ATOM     17  C   UNL     1      -4.523  51.258  50.030  0.00  0.00    +0.000 C 
BRANCH   9  18
ATOM     18  C   UNL     1      -7.632  55.437  52.101  0.00  0.00    +0.000 C 
ATOM     19  O   UNL     1      -7.252  56.584  51.894  0.00  0.00    +0.000 OA
BRANCH  18  20
ATOM     20  O   UNL     1      -7.960  54.942  53.324  0.00  0.00    +0.000 OA
BRANCH  20  21
ATOM     21  C   UNL     1      -7.159  55.358  54.433  0.00  0.00    +0.000 C 
ATOM     22  C   UNL     1      -6.046  54.355  54.659  0.00  0.00    +0.000 C 
ENDBRANCH  20  21
ENDBRANCH  18  20
ENDBRANCH   9  18
ENDBRANCH   4   7
BRANCH   1  23
ATOM     23  S   UNL     1     -13.130  56.715  49.760  0.00  0.00    +0.000 S 
ATOM     24  O   UNL     1     -14.105  56.004  48.963  0.00  0.00    +0.000 OA
ATOM     25  O   UNL     1     -12.203  57.640  49.139  0.00  0.00    +0.000 OA
BRANCH  23  26
ATOM     26  C   UNL     1     -13.975  57.630  51.038  0.00  0.00    +0.000 A 
ATOM     27  C   UNL     1     -13.973  57.162  52.356  0.00  0.00    +0.000 A 
ATOM     28  C   UNL     1     -14.616  58.832  50.713  0.00  0.00    +0.000 A 
ATOM     29  C   UNL     1     -14.650  57.888  53.344  0.00  0.00    +0.000 A 
ATOM     30  C   UNL     1     -15.286  59.555  51.703  0.00  0.00    +0.000 A 
ATOM     31  C   UNL     1     -15.312  59.082  53.023  0.00  0.00    +0.000 A 
BRANCH  31  32
ATOM     32  C   UNL     1     -16.020  59.815  54.038  0.00  0.00    +0.000 C 
ATOM     33  N   UNL     1     -16.595  60.399  54.859  0.00  0.00    +0.000 NA
ENDBRANCH  31  32
ENDBRANCH  23  26
ENDBRANCH   1  23
TORSDOF 7
ENDMDL
MODEL 9
REMARK VINA RESULT:      -6.5      3.516      8.403
REMARK  Name = 
REMARK  10 active torsions:
REMARK  status: ('A' for Active; 'I' for Inactive)
REMARK    1  A    between atoms: S_1  and  N_4
REMARK    2  A    between atoms: S_1  and  C_5
REMARK    3  A    between atoms: N_10  and  C_13
REMARK    4  A    between atoms: C_14  and  C_17
REMARK    5  A    between atoms: C_16  and  C_20
REMARK    6  A    between atoms: C_20  and  O_25
REMARK    7  A    between atoms: O_25  and  C_28
REMARK    8  A    between atoms: C_26  and  C_29
REMARK    9  A    between atoms: C_26  and  C_30
REMARK   10  A    between atoms: C_28  and  C_31
REMARK                            x       y       z     vdW  Elec       q    Type
REMARK                         _______ _______ _______ _____ _____    ______ ____
ROOT
ATOM      1  N   UNL     1     -13.078  55.196  49.649  0.00  0.00    +0.000 N 
ATOM      2  C   UNL     1     -11.953  55.009  50.443  0.00  0.00    +0.000 C 
ATOM      3  O   UNL     1     -11.263  55.958  50.797  0.00  0.00    +0.000 OA
ATOM      4  N   UNL     1     -11.638  53.684  50.668  0.00  0.00    +0.000 N 
ATOM      5  H   UNL     1     -13.595  54.401  49.387  0.00  0.00    +0.000 HD
ATOM      6  H   UNL     1     -12.219  52.962  50.339  0.00  0.00    +0.000 HD
ENDROOT
BRANCH   4   7
ATOM      7  C   UNL     1     -10.478  53.400  51.371  0.00  0.00    +0.000 A 
ATOM      8  S   UNL     1     -10.684  53.113  53.034  0.00  0.00    +0.000 S 
ATOM      9  C   UNL     1      -9.168  53.259  50.949  0.00  0.00    +0.000 A 
ATOM     10  C   UNL     1      -9.081  52.543  53.182  0.00  0.00    +0.000 A 
ATOM     11  C   UNL     1      -8.371  52.667  51.999  0.00  0.00    +0.000 A 
ATOM     12  C   UNL     1      -8.530  51.976  54.470  0.00  0.00    +0.000 C 
ATOM     13  C   UNL     1      -6.923  52.283  51.903  0.00  0.00    +0.000 C 
ATOM     14  C   UNL     1      -6.968  51.975  54.458  0.00  0.00    +0.000 C 
ATOM     15  C   UNL     1      -6.462  51.442  53.095  0.00  0.00    +0.000 C 
ATOM     16  C   UNL     1      -6.415  51.047  55.556  0.00  0.00    +0.000 C 
ATOM     17  C   UNL     1      -6.435  53.396  54.727  0.00  0.00    +0.000 C 
BRANCH   9  18
ATOM     18  C   UNL     1      -8.719  53.666  49.616  0.00  0.00    +0.000 C 
ATOM     19  O   UNL     1      -9.203  53.222  48.580  0.00  0.00    +0.000 OA
BRANCH  18  20
ATOM     20  O   UNL     1      -7.717  54.582  49.667  0.00  0.00    +0.000 OA
BRANCH  20  21
ATOM     21  C   UNL     1      -8.094  55.955  49.804  0.00  0.00    +0.000 C 
ATOM     22  C   UNL     1      -7.561  56.499  51.115  0.00  0.00    +0.000 C 
ENDBRANCH  20  21
ENDBRANCH  18  20
ENDBRANCH   9  18
ENDBRANCH   4   7
BRANCH   1  23
ATOM     23  S   UNL     1     -13.605  56.684  49.113  0.00  0.00    +0.000 S 
ATOM     24  O   UNL     1     -14.671  56.491  48.157  0.00  0.00    +0.000 OA
ATOM     25  O   UNL     1     -12.405  57.411  48.746  0.00  0.00    +0.000 OA
BRANCH  23  26
ATOM     26  C   UNL     1     -14.259  57.492  50.563  0.00  0.00    +0.000 A 
ATOM     27  C   UNL     1     -14.191  58.884  50.683  0.00  0.00    +0.000 A 
ATOM     28  C   UNL     1     -14.864  56.722  51.564  0.00  0.00    +0.000 A 
ATOM     29  C   UNL     1     -14.701  59.500  51.833  0.00  0.00    +0.000 A 
ATOM     30  C   UNL     1     -15.376  57.342  52.707  0.00  0.00    +0.000 A 
ATOM     31  C   UNL     1     -15.291  58.735  52.850  0.00  0.00    +0.000 A 
BRANCH  31  32
ATOM     32  C   UNL     1     -15.797  59.371  54.036  0.00  0.00    +0.000 C 
ATOM     33  N   UNL     1     -16.206  59.891  54.989  0.00  0.00    +0.000 NA
ENDBRANCH  31  32
ENDBRANCH  23  26
ENDBRANCH   1  23
TORSDOF 7
ENDMDL
