MODEL 1
REMARK VINA RESULT:      -7.4      0.000      0.000
REMARK  Name = 
REMARK  9 active torsions:
REMARK  status: ('A' for Active; 'I' for Inactive)
REMARK    1  A    between atoms: S_1  and  N_4
REMARK    2  A    between atoms: S_1  and  N_5
REMARK    3  A    between atoms: N_12  and  C_14
REMARK    4  A    between atoms: C_16  and  C_19
REMARK    5  A    between atoms: C_19  and  O_23
REMARK    6  A    between atoms: O_23  and  C_26
REMARK    7  A    between atoms: C_24  and  C_27
REMARK    8  A    between atoms: C_24  and  C_28
REMARK    9  A    between atoms: C_26  and  C_29
REMARK                            x       y       z     vdW  Elec       q    Type
REMARK                         _______ _______ _______ _____ _____    ______ ____
ROOT
ATOM      1  C   UNL     1     -10.038  55.106  51.929  0.00  0.00    +0.000 A 
ATOM      2  S   UNL     1      -9.654  54.314  53.382  0.00  0.00    +0.000 S 
ATOM      3  C   UNL     1      -8.939  55.422  51.160  0.00  0.00    +0.000 A 
ATOM      4  C   UNL     1      -8.049  54.090  52.878  0.00  0.00    +0.000 A 
ATOM      5  C   UNL     1      -7.781  54.716  51.669  0.00  0.00    +0.000 A 
ATOM      6  C   UNL     1      -7.062  53.298  53.691  0.00  0.00    +0.000 C 
ATOM      7  C   UNL     1      -6.408  54.711  51.066  0.00  0.00    +0.000 C 
ATOM      8  C   UNL     1      -5.599  53.613  53.259  0.00  0.00    +0.000 C 
ATOM      9  C   UNL     1      -5.513  53.643  51.707  0.00  0.00    +0.000 C 
ATOM     10  C   UNL     1      -4.662  52.506  53.774  0.00  0.00    +0.000 C 
ATOM     11  C   UNL     1      -5.143  54.951  53.866  0.00  0.00    +0.000 C 
ENDROOT
BRANCH   1  15
ATOM     12  N   UNL     1     -13.592  54.632  51.289  0.00  0.00    +0.000 N 
ATOM     13  C   UNL     1     -12.227  54.315  51.340  0.00  0.00    +0.000 C 
ATOM     14  O   UNL     1     -11.897  53.166  51.086  0.00  0.00    +0.000 OA
ATOM     15  N   UNL     1     -11.382  55.309  51.770  0.00  0.00    +0.000 N 
ATOM     16  H   UNL     1     -14.248  53.918  51.453  0.00  0.00    +0.000 HD
ATOM     17  H   UNL     1     -11.755  56.198  51.970  0.00  0.00    +0.000 HD
BRANCH  12  18
ATOM     18  S   UNL     1     -14.143  56.150  50.966  0.00  0.00    +0.000 S 
ATOM     19  O   UNL     1     -15.428  56.020  50.322  0.00  0.00    +0.000 OA
ATOM     20  O   UNL     1     -13.975  56.948  52.155  0.00  0.00    +0.000 OA
BRANCH  18  21
ATOM     21  N   UNL     1     -13.047  56.711  49.820  0.00  0.00    +0.000 NA
ATOM     22  C   UNL     1     -12.896  58.211  49.860  0.00  0.00    +0.000 C 
ATOM     23  C   UNL     1     -13.178  56.279  48.397  0.00  0.00    +0.000 C 
ATOM     24  C   UNL     1     -14.029  58.906  49.083  0.00  0.00    +0.000 C 
ATOM     25  C   UNL     1     -14.298  57.023  47.670  0.00  0.00    +0.000 C 
ATOM     26  O   UNL     1     -14.095  58.443  47.726  0.00  0.00    +0.000 OA
ENDBRANCH  18  21
ENDBRANCH  12  18
ENDBRANCH   1  15
BRANCH   3  27
ATOM     27  C   UNL     1      -8.921  56.386  50.059  0.00  0.00    +0.000 C 
ATOM     28  O   UNL     1      -8.302  57.444  50.097  0.00  0.00    +0.000 OA
BRANCH  27  29
ATOM     29  O   UNL     1      -9.832  56.063  49.089  0.00  0.00    +0.000 OA
BRANCH  29  30
ATOM     30  C   UNL     1      -9.551  54.899  48.299  0.00  0.00    +0.000 C 
ATOM     31  C   UNL     1      -8.675  55.277  47.125  0.00  0.00    +0.000 C 
ENDBRANCH  29  30
ENDBRANCH  27  29
ENDBRANCH   3  27
TORSDOF 6
ENDMDL
MODEL 2
REMARK VINA RESULT:      -7.3      2.296      4.757
REMARK  Name = 
REMARK  9 active torsions:
REMARK  status: ('A' for Active; 'I' for Inactive)
REMARK    1  A    between atoms: S_1  and  N_4
REMARK    2  A    between atoms: S_1  and  N_5
REMARK    3  A    between atoms: N_12  and  C_14
REMARK    4  A    between atoms: C_16  and  C_19
REMARK    5  A    between atoms: C_19  and  O_23
REMARK    6  A    between atoms: O_23  and  C_26
REMARK    7  A    between atoms: C_24  and  C_27
REMARK    8  A    between atoms: C_24  and  C_28
REMARK    9  A    between atoms: C_26  and  C_29
REMARK                            x       y       z     vdW  Elec       q    Type
REMARK                         _______ _______ _______ _____ _____    ______ ____
ROOT
ATOM      1  C   UNL     1     -11.298  55.111  48.770  0.00  0.00    +0.000 A 
ATOM      2  S   UNL     1     -11.911  54.155  47.507  0.00  0.00    +0.000 S 
ATOM      3  C   UNL     1      -9.933  55.294  48.717  0.00  0.00    +0.000 A 
ATOM      4  C   UNL     1     -10.427  54.223  46.686  0.00  0.00    +0.000 A 
ATOM      5  C   UNL     1      -9.444  54.867  47.423  0.00  0.00    +0.000 A 
ATOM      6  C   UNL     1     -10.247  53.629  45.316  0.00  0.00    +0.000 C 
ATOM      7  C   UNL     1      -8.034  54.983  46.924  0.00  0.00    +0.000 C 
ATOM      8  C   UNL     1      -8.738  53.428  44.987  0.00  0.00    +0.000 C 
ATOM      9  C   UNL     1      -7.940  54.689  45.422  0.00  0.00    +0.000 C 
ATOM     10  C   UNL     1      -8.564  53.245  43.468  0.00  0.00    +0.000 C 
ATOM     11  C   UNL     1      -8.207  52.165  45.688  0.00  0.00    +0.000 C 
ENDROOT
BRANCH   1  15
ATOM     12  N   UNL     1     -13.717  55.291  51.486  0.00  0.00    +0.000 N 
ATOM     13  C   UNL     1     -12.782  54.715  50.615  0.00  0.00    +0.000 C 
ATOM     14  O   UNL     1     -12.428  53.565  50.835  0.00  0.00    +0.000 OA
ATOM     15  N   UNL     1     -12.267  55.533  49.639  0.00  0.00    +0.000 N 
ATOM     16  H   UNL     1     -13.761  54.965  52.413  0.00  0.00    +0.000 HD
ATOM     17  H   UNL     1     -12.607  56.454  49.561  0.00  0.00    +0.000 HD
BRANCH  12  18
ATOM     18  S   UNL     1     -14.746  56.490  51.023  0.00  0.00    +0.000 S 
ATOM     19  O   UNL     1     -15.116  56.242  49.650  0.00  0.00    +0.000 OA
ATOM     20  O   UNL     1     -15.742  56.647  52.054  0.00  0.00    +0.000 OA
BRANCH  18  21
ATOM     21  N   UNL     1     -13.766  57.857  51.053  0.00  0.00    +0.000 NA
ATOM     22  C   UNL     1     -14.406  59.003  51.796  0.00  0.00    +0.000 C 
ATOM     23  C   UNL     1     -13.182  58.377  49.781  0.00  0.00    +0.000 C 
ATOM     24  C   UNL     1     -15.400  59.763  50.900  0.00  0.00    +0.000 C 
ATOM     25  C   UNL     1     -14.207  59.146  48.948  0.00  0.00    +0.000 C 
ATOM     26  O   UNL     1     -14.770  60.232  49.699  0.00  0.00    +0.000 OA
ENDBRANCH  18  21
ENDBRANCH  12  18
ENDBRANCH   1  15
BRANCH   3  27
ATOM     27  C   UNL     1      -9.095  55.762  49.823  0.00  0.00    +0.000 C 
ATOM     28  O   UNL     1      -8.652  56.903  49.899  0.00  0.00    +0.000 OA
BRANCH  27  29
ATOM     29  O   UNL     1      -8.702  54.729  50.631  0.00  0.00    +0.000 OA
BRANCH  29  30
ATOM     30  C   UNL     1      -8.489  55.037  52.016  0.00  0.00    +0.000 C 
ATOM     31  C   UNL     1      -9.795  54.925  52.771  0.00  0.00    +0.000 C 
ENDBRANCH  29  30
ENDBRANCH  27  29
ENDBRANCH   3  27
TORSDOF 6
ENDMDL
MODEL 3
REMARK VINA RESULT:      -7.1      2.898      7.311
REMARK  Name = 
REMARK  9 active torsions:
REMARK  status: ('A' for Active; 'I' for Inactive)
REMARK    1  A    between atoms: S_1  and  N_4
REMARK    2  A    between atoms: S_1  and  N_5
REMARK    3  A    between atoms: N_12  and  C_14
REMARK    4  A    between atoms: C_16  and  C_19
REMARK    5  A    between atoms: C_19  and  O_23
REMARK    6  A    between atoms: O_23  and  C_26
REMARK    7  A    between atoms: C_24  and  C_27
REMARK    8  A    between atoms: C_24  and  C_28
REMARK    9  A    between atoms: C_26  and  C_29
REMARK                            x       y       z     vdW  Elec       q    Type
REMARK                         _______ _______ _______ _____ _____    ______ ____
ROOT
ATOM      1  C   UNL     1     -10.830  55.197  50.639  0.00  0.00    +0.000 A 
ATOM      2  S   UNL     1     -11.521  55.344  52.184  0.00  0.00    +0.000 S 
ATOM      3  C   UNL     1     -11.556  55.815  49.645  0.00  0.00    +0.000 A 
ATOM      4  C   UNL     1     -12.630  56.497  51.619  0.00  0.00    +0.000 A 
ATOM      5  C   UNL     1     -12.551  56.678  50.246  0.00  0.00    +0.000 A 
ATOM      6  C   UNL     1     -13.579  57.210  52.543  0.00  0.00    +0.000 C 
ATOM      7  C   UNL     1     -13.485  57.597  49.517  0.00  0.00    +0.000 C 
ATOM      8  C   UNL     1     -14.755  57.854  51.751  0.00  0.00    +0.000 C 
ATOM      9  C   UNL     1     -14.201  58.555  50.479  0.00  0.00    +0.000 C 
ATOM     10  C   UNL     1     -15.444  58.915  52.627  0.00  0.00    +0.000 C 
ATOM     11  C   UNL     1     -15.797  56.781  51.386  0.00  0.00    +0.000 C 
ENDROOT
BRANCH   1  15
ATOM     12  N   UNL     1      -8.380  52.519  50.344  0.00  0.00    +0.000 N 
ATOM     13  C   UNL     1      -9.643  53.125  50.384  0.00  0.00    +0.000 C 
ATOM     14  O   UNL     1     -10.616  52.440  50.105  0.00  0.00    +0.000 OA
ATOM     15  N   UNL     1      -9.668  54.475  50.641  0.00  0.00    +0.000 N 
ATOM     16  H   UNL     1      -8.244  51.750  49.745  0.00  0.00    +0.000 HD
ATOM     17  H   UNL     1      -8.821  54.939  50.834  0.00  0.00    +0.000 HD
BRANCH  12  18
ATOM     18  S   UNL     1      -7.113  53.037  51.259  0.00  0.00    +0.000 S 
ATOM     19  O   UNL     1      -6.265  51.898  51.517  0.00  0.00    +0.000 OA
ATOM     20  O   UNL     1      -6.593  54.241  50.659  0.00  0.00    +0.000 OA
BRANCH  18  21
ATOM     21  N   UNL     1      -7.849  53.470  52.709  0.00  0.00    +0.000 NA
ATOM     22  C   UNL     1      -7.292  54.754  53.271  0.00  0.00    +0.000 C 
ATOM     23  C   UNL     1      -7.957  52.470  53.812  0.00  0.00    +0.000 C 
ATOM     24  C   UNL     1      -5.981  54.505  54.038  0.00  0.00    +0.000 C 
ATOM     25  C   UNL     1      -6.633  52.286  54.554  0.00  0.00    +0.000 C 
ATOM     26  O   UNL     1      -6.160  53.535  55.080  0.00  0.00    +0.000 OA
ENDBRANCH  18  21
ENDBRANCH  12  18
ENDBRANCH   1  15
BRANCH   3  27
ATOM     27  C   UNL     1     -11.407  55.573  48.208  0.00  0.00    +0.000 C 
ATOM     28  O   UNL     1     -12.320  55.176  47.492  0.00  0.00    +0.000 OA
BRANCH  27  29
ATOM     29  O   UNL     1     -10.096  55.638  47.818  0.00  0.00    +0.000 OA
BRANCH  29  30
ATOM     30  C   UNL     1      -9.649  54.641  46.888  0.00  0.00    +0.000 C 
ATOM     31  C   UNL     1      -8.313  55.047  46.305  0.00  0.00    +0.000 C 
ENDBRANCH  29  30
ENDBRANCH  27  29
ENDBRANCH   3  27
TORSDOF 6
ENDMDL
MODEL 4
REMARK VINA RESULT:      -7.1      3.038      5.505
REMARK  Name = 
REMARK  9 active torsions:
REMARK  status: ('A' for Active; 'I' for Inactive)
REMARK    1  A    between atoms: S_1  and  N_4
REMARK    2  A    between atoms: S_1  and  N_5
REMARK    3  A    between atoms: N_12  and  C_14
REMARK    4  A    between atoms: C_16  and  C_19
REMARK    5  A    between atoms: C_19  and  O_23
REMARK    6  A    between atoms: O_23  and  C_26
REMARK    7  A    between atoms: C_24  and  C_27
REMARK    8  A    between atoms: C_24  and  C_28
REMARK    9  A    between atoms: C_26  and  C_29
REMARK                            x       y       z     vdW  Elec       q    Type
REMARK                         _______ _______ _______ _____ _____    ______ ____
ROOT
ATOM      1  C   UNL     1     -11.718  54.955  47.752  0.00  0.00    +0.000 A 
ATOM      2  S   UNL     1     -12.097  53.818  46.548  0.00  0.00    +0.000 S 
ATOM      3  C   UNL     1     -10.379  55.275  47.813  0.00  0.00    +0.000 A 
ATOM      4  C   UNL     1     -10.546  53.963  45.872  0.00  0.00    +0.000 A 
ATOM      5  C   UNL     1      -9.715  54.777  46.627  0.00  0.00    +0.000 A 
ATOM      6  C   UNL     1     -10.163  53.259  44.599  0.00  0.00    +0.000 C 
ATOM      7  C   UNL     1      -8.277  54.992  46.258  0.00  0.00    +0.000 C 
ATOM      8  C   UNL     1      -8.616  53.187  44.443  0.00  0.00    +0.000 C 
ATOM      9  C   UNL     1      -7.993  54.563  44.813  0.00  0.00    +0.000 C 
ATOM     10  C   UNL     1      -8.261  52.875  42.978  0.00  0.00    +0.000 C 
ATOM     11  C   UNL     1      -8.045  52.063  45.326  0.00  0.00    +0.000 C 
ENDROOT
BRANCH   1  15
ATOM     12  N   UNL     1     -14.684  56.724  48.908  0.00  0.00    +0.000 N 
ATOM     13  C   UNL     1     -13.546  56.464  48.132  0.00  0.00    +0.000 C 
ATOM     14  O   UNL     1     -13.337  57.183  47.166  0.00  0.00    +0.000 OA
ATOM     15  N   UNL     1     -12.811  55.355  48.472  0.00  0.00    +0.000 N 
ATOM     16  H   UNL     1     -15.457  57.157  48.481  0.00  0.00    +0.000 HD
ATOM     17  H   UNL     1     -13.079  54.829  49.260  0.00  0.00    +0.000 HD
BRANCH  12  18
ATOM     18  S   UNL     1     -14.782  56.334  50.505  0.00  0.00    +0.000 S 
ATOM     19  O   UNL     1     -16.156  56.500  50.911  0.00  0.00    +0.000 OA
ATOM     20  O   UNL     1     -14.084  55.088  50.704  0.00  0.00    +0.000 OA
BRANCH  18  21
ATOM     21  N   UNL     1     -13.877  57.545  51.243  0.00  0.00    +0.000 NA
ATOM     22  C   UNL     1     -13.912  57.448  52.747  0.00  0.00    +0.000 C 
ATOM     23  C   UNL     1     -14.087  58.970  50.849  0.00  0.00    +0.000 C 
ATOM     24  C   UNL     1     -15.191  58.087  53.318  0.00  0.00    +0.000 C 
ATOM     25  C   UNL     1     -15.355  59.558  51.468  0.00  0.00    +0.000 C 
ATOM     26  O   UNL     1     -15.326  59.453  52.899  0.00  0.00    +0.000 OA
ENDBRANCH  18  21
ENDBRANCH  12  18
ENDBRANCH   1  15
BRANCH   3  27
ATOM     27  C   UNL     1      -9.714  55.936  48.937  0.00  0.00    +0.000 C 
ATOM     28  O   UNL     1      -8.530  56.257  48.928  0.00  0.00    +0.000 OA
BRANCH  27  29
ATOM     29  O   UNL     1     -10.507  55.956  50.053  0.00  0.00    +0.000 OA
BRANCH  29  30
ATOM     30  C   UNL     1      -9.908  55.515  51.280  0.00  0.00    +0.000 C 
ATOM     31  C   UNL     1     -10.986  55.119  52.263  0.00  0.00    +0.000 C 
ENDBRANCH  29  30
ENDBRANCH  27  29
ENDBRANCH   3  27
TORSDOF 6
ENDMDL
MODEL 5
REMARK VINA RESULT:      -6.6      3.185      7.186
REMARK  Name = 
REMARK  9 active torsions:
REMARK  status: ('A' for Active; 'I' for Inactive)
REMARK    1  A    between atoms: S_1  and  N_4
REMARK    2  A    between atoms: S_1  and  N_5
REMARK    3  A    between atoms: N_12  and  C_14
REMARK    4  A    between atoms: C_16  and  C_19
REMARK    5  A    between atoms: C_19  and  O_23
REMARK    6  A    between atoms: O_23  and  C_26
REMARK    7  A    between atoms: C_24  and  C_27
REMARK    8  A    between atoms: C_24  and  C_28
REMARK    9  A    between atoms: C_26  and  C_29
REMARK                            x       y       z     vdW  Elec       q    Type
REMARK                         _______ _______ _______ _____ _____    ______ ____
ROOT
ATOM      1  C   UNL     1     -11.329  55.036  49.722  0.00  0.00    +0.000 A 
ATOM      2  S   UNL     1     -11.824  54.886  51.340  0.00  0.00    +0.000 S 
ATOM      3  C   UNL     1     -12.069  55.944  48.997  0.00  0.00    +0.000 A 
ATOM      4  C   UNL     1     -12.823  56.250  51.200  0.00  0.00    +0.000 A 
ATOM      5  C   UNL     1     -12.870  56.740  49.903  0.00  0.00    +0.000 A 
ATOM      6  C   UNL     1     -13.563  56.820  52.379  0.00  0.00    +0.000 C 
ATOM      7  C   UNL     1     -13.746  57.899  49.530  0.00  0.00    +0.000 C 
ATOM      8  C   UNL     1     -14.722  57.752  51.916  0.00  0.00    +0.000 C 
ATOM      9  C   UNL     1     -14.220  58.672  50.767  0.00  0.00    +0.000 C 
ATOM     10  C   UNL     1     -15.164  58.644  53.090  0.00  0.00    +0.000 C 
ATOM     11  C   UNL     1     -15.930  56.912  51.467  0.00  0.00    +0.000 C 
ENDROOT
BRANCH   1  15
ATOM     12  N   UNL     1      -9.308  52.189  48.685  0.00  0.00    +0.000 N 
ATOM     13  C   UNL     1     -10.458  52.900  49.055  0.00  0.00    +0.000 C 
ATOM     14  O   UNL     1     -11.537  52.333  48.959  0.00  0.00    +0.000 OA
ATOM     15  N   UNL     1     -10.280  54.216  49.406  0.00  0.00    +0.000 N 
ATOM     16  H   UNL     1      -9.392  51.471  48.018  0.00  0.00    +0.000 HD
ATOM     17  H   UNL     1      -9.366  54.583  49.432  0.00  0.00    +0.000 HD
BRANCH  12  18
ATOM     18  S   UNL     1      -7.822  52.506  49.319  0.00  0.00    +0.000 S 
ATOM     19  O   UNL     1      -8.019  53.076  50.630  0.00  0.00    +0.000 OA
ATOM     20  O   UNL     1      -6.995  51.341  49.121  0.00  0.00    +0.000 OA
BRANCH  18  21
ATOM     21  N   UNL     1      -7.236  53.720  48.313  0.00  0.00    +0.000 NA
ATOM     22  C   UNL     1      -6.013  53.285  47.545  0.00  0.00    +0.000 C 
ATOM     23  C   UNL     1      -6.995  55.086  48.864  0.00  0.00    +0.000 C 
ATOM     24  C   UNL     1      -4.741  53.413  48.403  0.00  0.00    +0.000 C 
ATOM     25  C   UNL     1      -5.706  55.159  49.682  0.00  0.00    +0.000 C 
ATOM     26  O   UNL     1      -4.576  54.751  48.897  0.00  0.00    +0.000 OA
ENDBRANCH  18  21
ENDBRANCH  12  18
ENDBRANCH   1  15
BRANCH   3  27
ATOM     27  C   UNL     1     -12.110  56.033  47.536  0.00  0.00    +0.000 C 
ATOM     28  O   UNL     1     -13.079  56.452  46.911  0.00  0.00    +0.000 OA
BRANCH  27  29
ATOM     29  O   UNL     1     -11.037  55.406  46.960  0.00  0.00    +0.000 OA
BRANCH  29  30
ATOM     30  C   UNL     1     -11.321  54.483  45.899  0.00  0.00    +0.000 C 
ATOM     31  C   UNL     1     -10.039  53.829  45.434  0.00  0.00    +0.000 C 
ENDBRANCH  29  30
ENDBRANCH  27  29
ENDBRANCH   3  27
TORSDOF 6
ENDMDL
MODEL 6
REMARK VINA RESULT:      -6.5      3.028      7.410
REMARK  Name = 
REMARK  9 active torsions:
REMARK  status: ('A' for Active; 'I' for Inactive)
REMARK    1  A    between atoms: S_1  and  N_4
REMARK    2  A    between atoms: S_1  and  N_5
REMARK    3  A    between atoms: N_12  and  C_14
REMARK    4  A    between atoms: C_16  and  C_19
REMARK    5  A    between atoms: C_19  and  O_23
REMARK    6  A    between atoms: O_23  and  C_26
REMARK    7  A    between atoms: C_24  and  C_27
REMARK    8  A    between atoms: C_24  and  C_28
REMARK    9  A    between atoms: C_26  and  C_29
REMARK                            x       y       z     vdW  Elec       q    Type
REMARK                         _______ _______ _______ _____ _____    ______ ____
ROOT
ATOM      1  C   UNL     1     -10.144  54.640  51.055  0.00  0.00    +0.000 A 
ATOM      2  S   UNL     1     -11.307  54.758  52.289  0.00  0.00    +0.000 S 
ATOM      3  C   UNL     1     -10.508  55.272  49.886  0.00  0.00    +0.000 A 
ATOM      4  C   UNL     1     -12.178  55.916  51.407  0.00  0.00    +0.000 A 
ATOM      5  C   UNL     1     -11.654  56.121  50.139  0.00  0.00    +0.000 A 
ATOM      6  C   UNL     1     -13.385  56.610  51.978  0.00  0.00    +0.000 C 
ATOM      7  C   UNL     1     -12.304  57.050  49.158  0.00  0.00    +0.000 C 
ATOM      8  C   UNL     1     -14.241  57.263  50.853  0.00  0.00    +0.000 C 
ATOM      9  C   UNL     1     -13.306  57.987  49.845  0.00  0.00    +0.000 C 
ATOM     10  C   UNL     1     -15.189  58.307  51.469  0.00  0.00    +0.000 C 
ATOM     11  C   UNL     1     -15.094  56.193  50.149  0.00  0.00    +0.000 C 
ENDROOT
BRANCH   1  15
ATOM     12  N   UNL     1      -7.677  51.996  51.486  0.00  0.00    +0.000 N 
ATOM     13  C   UNL     1      -8.886  52.596  51.107  0.00  0.00    +0.000 C 
ATOM     14  O   UNL     1      -9.673  51.930  50.449  0.00  0.00    +0.000 OA
ATOM     15  N   UNL     1      -9.040  53.922  51.428  0.00  0.00    +0.000 N 
ATOM     16  H   UNL     1      -7.312  51.274  50.927  0.00  0.00    +0.000 HD
ATOM     17  H   UNL     1      -8.334  54.373  51.945  0.00  0.00    +0.000 HD
BRANCH  12  18
ATOM     18  S   UNL     1      -6.840  52.449  52.830  0.00  0.00    +0.000 S 
ATOM     19  O   UNL     1      -7.782  52.544  53.920  0.00  0.00    +0.000 OA
ATOM     20  O   UNL     1      -5.663  51.622  52.924  0.00  0.00    +0.000 OA
BRANCH  18  21
ATOM     21  N   UNL     1      -6.336  54.008  52.450  0.00  0.00    +0.000 NA
ATOM     22  C   UNL     1      -4.986  54.024  51.778  0.00  0.00    +0.000 C 
ATOM     23  C   UNL     1      -6.362  55.072  53.498  0.00  0.00    +0.000 C 
ATOM     24  C   UNL     1      -3.847  53.932  52.810  0.00  0.00    +0.000 C 
ATOM     25  C   UNL     1      -5.194  54.946  54.475  0.00  0.00    +0.000 C 
ATOM     26  O   UNL     1      -3.937  54.984  53.783  0.00  0.00    +0.000 OA
ENDBRANCH  18  21
ENDBRANCH  12  18
ENDBRANCH   1  15
BRANCH   3  27
ATOM     27  C   UNL     1      -9.893  55.055  48.576  0.00  0.00    +0.000 C 
ATOM     28  O   UNL     1      -9.183  55.885  48.017  0.00  0.00    +0.000 OA
BRANCH  27  29
ATOM     29  O   UNL     1     -10.373  53.923  47.973  0.00  0.00    +0.000 OA
BRANCH  29  30
ATOM     30  C   UNL     1     -11.713  53.980  47.464  0.00  0.00    +0.000 C 
ATOM     31  C   UNL     1     -11.727  54.707  46.138  0.00  0.00    +0.000 C 
ENDBRANCH  29  30
ENDBRANCH  27  29
ENDBRANCH   3  27
TORSDOF 6
ENDMDL
MODEL 7
REMARK VINA RESULT:      -6.4      3.152      7.348
REMARK  Name = 
REMARK  9 active torsions:
REMARK  status: ('A' for Active; 'I' for Inactive)
REMARK    1  A    between atoms: S_1  and  N_4
REMARK    2  A    between atoms: S_1  and  N_5
REMARK    3  A    between atoms: N_12  and  C_14
REMARK    4  A    between atoms: C_16  and  C_19
REMARK    5  A    between atoms: C_19  and  O_23
REMARK    6  A    between atoms: O_23  and  C_26
REMARK    7  A    between atoms: C_24  and  C_27
REMARK    8  A    between atoms: C_24  and  C_28
REMARK    9  A    between atoms: C_26  and  C_29
REMARK                            x       y       z     vdW  Elec       q    Type
REMARK                         _______ _______ _______ _____ _____    ______ ____
ROOT
ATOM      1  C   UNL     1     -10.957  55.002  50.495  0.00  0.00    +0.000 A 
ATOM      2  S   UNL     1     -11.556  55.141  52.079  0.00  0.00    +0.000 S 
ATOM      3  C   UNL     1     -11.705  55.680  49.557  0.00  0.00    +0.000 A 
ATOM      4  C   UNL     1     -12.637  56.359  51.603  0.00  0.00    +0.000 A 
ATOM      5  C   UNL     1     -12.624  56.572  50.233  0.00  0.00    +0.000 A 
ATOM      6  C   UNL     1     -13.499  57.091  52.595  0.00  0.00    +0.000 C 
ATOM      7  C   UNL     1     -13.550  57.553  49.579  0.00  0.00    +0.000 C 
ATOM      8  C   UNL     1     -14.684  57.810  51.885  0.00  0.00    +0.000 C 
ATOM      9  C   UNL     1     -14.166  58.517  50.601  0.00  0.00    +0.000 C 
ATOM     10  C   UNL     1     -15.272  58.879  52.823  0.00  0.00    +0.000 C 
ATOM     11  C   UNL     1     -15.794  56.797  51.553  0.00  0.00    +0.000 C 
ENDROOT
BRANCH   1  15
ATOM     12  N   UNL     1      -7.504  53.869  50.262  0.00  0.00    +0.000 N 
ATOM     13  C   UNL     1      -8.579  54.768  50.258  0.00  0.00    +0.000 C 
ATOM     14  O   UNL     1      -8.326  55.962  50.202  0.00  0.00    +0.000 OA
ATOM     15  N   UNL     1      -9.832  54.227  50.415  0.00  0.00    +0.000 N 
ATOM     16  H   UNL     1      -6.637  54.172  50.616  0.00  0.00    +0.000 HD
ATOM     17  H   UNL     1      -9.925  53.248  50.472  0.00  0.00    +0.000 HD
BRANCH  12  18
ATOM     18  S   UNL     1      -7.630  52.326  49.702  0.00  0.00    +0.000 S 
ATOM     19  O   UNL     1      -8.095  51.502  50.792  0.00  0.00    +0.000 OA
ATOM     20  O   UNL     1      -8.324  52.365  48.439  0.00  0.00    +0.000 OA
BRANCH  18  21
ATOM     21  N   UNL     1      -6.030  51.909  49.389  0.00  0.00    +0.000 NA
ATOM     22  C   UNL     1      -5.062  52.656  50.271  0.00  0.00    +0.000 C 
ATOM     23  C   UNL     1      -5.519  51.935  47.986  0.00  0.00    +0.000 C 
ATOM     24  C   UNL     1      -4.778  54.065  49.721  0.00  0.00    +0.000 C 
ATOM     25  C   UNL     1      -5.229  53.357  47.505  0.00  0.00    +0.000 C 
ATOM     26  O   UNL     1      -4.291  54.012  48.371  0.00  0.00    +0.000 OA
ENDBRANCH  18  21
ENDBRANCH  12  18
ENDBRANCH   1  15
BRANCH   3  27
ATOM     27  C   UNL     1     -11.646  55.469  48.110  0.00  0.00    +0.000 C 
ATOM     28  O   UNL     1     -12.532  54.911  47.471  0.00  0.00    +0.000 OA
BRANCH  27  29
ATOM     29  O   UNL     1     -10.410  55.773  47.604  0.00  0.00    +0.000 OA
BRANCH  29  30
ATOM     30  C   UNL     1      -9.888  54.893  46.599  0.00  0.00    +0.000 C 
ATOM     31  C   UNL     1      -8.412  55.158  46.403  0.00  0.00    +0.000 C 
ENDBRANCH  29  30
ENDBRANCH  27  29
ENDBRANCH   3  27
TORSDOF 6
ENDMDL
MODEL 8
REMARK VINA RESULT:      -6.4      3.210      7.178
REMARK  Name = 
REMARK  9 active torsions:
REMARK  status: ('A' for Active; 'I' for Inactive)
REMARK    1  A    between atoms: S_1  and  N_4
REMARK    2  A    between atoms: S_1  and  N_5
REMARK    3  A    between atoms: N_12  and  C_14
REMARK    4  A    between atoms: C_16  and  C_19
REMARK    5  A    between atoms: C_19  and  O_23
REMARK    6  A    between atoms: O_23  and  C_26
REMARK    7  A    between atoms: C_24  and  C_27
REMARK    8  A    between atoms: C_24  and  C_28
REMARK    9  A    between atoms: C_26  and  C_29
REMARK                            x       y       z     vdW  Elec       q    Type
REMARK                         _______ _______ _______ _____ _____    ______ ____
ROOT
ATOM      1  C   UNL     1     -10.056  53.901  48.458  0.00  0.00    +0.000 A 
ATOM      2  S   UNL     1      -8.668  53.023  48.023  0.00  0.00    +0.000 S 
ATOM      3  C   UNL     1     -10.903  54.160  47.403  0.00  0.00    +0.000 A 
ATOM      4  C   UNL     1      -9.313  52.694  46.488  0.00  0.00    +0.000 A 
ATOM      5  C   UNL     1     -10.518  53.346  46.269  0.00  0.00    +0.000 A 
ATOM      6  C   UNL     1      -8.613  51.795  45.506  0.00  0.00    +0.000 C 
ATOM      7  C   UNL     1     -11.234  53.258  44.955  0.00  0.00    +0.000 C 
ATOM      8  C   UNL     1      -9.156  52.011  44.062  0.00  0.00    +0.000 C 
ATOM      9  C   UNL     1     -10.708  52.097  44.100  0.00  0.00    +0.000 C 
ATOM     10  C   UNL     1      -8.760  50.814  43.180  0.00  0.00    +0.000 C 
ATOM     11  C   UNL     1      -8.544  53.284  43.451  0.00  0.00    +0.000 C 
ENDROOT
BRANCH   1  15
ATOM     12  N   UNL     1      -9.779  55.636  51.648  0.00  0.00    +0.000 N 
ATOM     13  C   UNL     1      -9.615  55.408  50.275  0.00  0.00    +0.000 C 
ATOM     14  O   UNL     1      -9.143  56.309  49.597  0.00  0.00    +0.000 OA
ATOM     15  N   UNL     1     -10.094  54.215  49.789  0.00  0.00    +0.000 N 
ATOM     16  H   UNL     1      -9.904  56.560  51.961  0.00  0.00    +0.000 HD
ATOM     17  H   UNL     1     -10.476  53.563  50.420  0.00  0.00    +0.000 HD
BRANCH  12  18
ATOM     18  S   UNL     1      -9.770  54.422  52.760  0.00  0.00    +0.000 S 
ATOM     19  O   UNL     1      -9.471  55.009  54.045  0.00  0.00    +0.000 OA
ATOM     20  O   UNL     1     -10.952  53.621  52.557  0.00  0.00    +0.000 OA
BRANCH  18  21
ATOM     21  N   UNL     1      -8.444  53.497  52.296  0.00  0.00    +0.000 NA
ATOM     22  C   UNL     1      -8.659  52.025  52.545  0.00  0.00    +0.000 C 
ATOM     23  C   UNL     1      -7.079  53.869  52.771  0.00  0.00    +0.000 C 
ATOM     24  C   UNL     1      -8.371  51.660  54.013  0.00  0.00    +0.000 C 
ATOM     25  C   UNL     1      -6.841  53.457  54.223  0.00  0.00    +0.000 C 
ATOM     26  O   UNL     1      -7.044  52.047  54.398  0.00  0.00    +0.000 OA
ENDBRANCH  18  21
ENDBRANCH  12  18
ENDBRANCH   1  15
BRANCH   3  27
ATOM     27  C   UNL     1     -11.969  55.164  47.395  0.00  0.00    +0.000 C 
ATOM     28  O   UNL     1     -12.004  56.107  46.611  0.00  0.00    +0.000 OA
BRANCH  27  29
ATOM     29  O   UNL     1     -12.787  55.041  48.487  0.00  0.00    +0.000 OA
BRANCH  29  30
ATOM     30  C   UNL     1     -13.068  56.241  49.223  0.00  0.00    +0.000 C 
ATOM     31  C   UNL     1     -13.282  55.907  50.682  0.00  0.00    +0.000 C 
ENDBRANCH  29  30
ENDBRANCH  27  29
ENDBRANCH   3  27
TORSDOF 6
ENDMDL
MODEL 9
REMARK VINA RESULT:      -6.3      3.261      5.034
REMARK  Name = 
REMARK  9 active torsions:
REMARK  status: ('A' for Active; 'I' for Inactive)
REMARK    1  A    between atoms: S_1  and  N_4
REMARK    2  A    between atoms: S_1  and  N_5
REMARK    3  A    between atoms: N_12  and  C_14
REMARK    4  A    between atoms: C_16  and  C_19
REMARK    5  A    between atoms: C_19  and  O_23
REMARK    6  A    between atoms: O_23  and  C_26
REMARK    7  A    between atoms: C_24  and  C_27
REMARK    8  A    between atoms: C_24  and  C_28
REMARK    9  A    between atoms: C_26  and  C_29
REMARK                            x       y       z     vdW  Elec       q    Type
REMARK                         _______ _______ _______ _____ _____    ______ ____
ROOT
ATOM      1  C   UNL     1      -8.913  54.202  50.206  0.00  0.00    +0.000 A 
ATOM      2  S   UNL     1      -7.325  53.646  49.970  0.00  0.00    +0.000 S 
ATOM      3  C   UNL     1      -9.164  54.641  51.488  0.00  0.00    +0.000 A 
ATOM      4  C   UNL     1      -6.845  54.269  51.474  0.00  0.00    +0.000 A 
ATOM      5  C   UNL     1      -7.909  54.788  52.196  0.00  0.00    +0.000 A 
ATOM      6  C   UNL     1      -5.412  54.232  51.931  0.00  0.00    +0.000 C 
ATOM      7  C   UNL     1      -7.732  55.328  53.584  0.00  0.00    +0.000 C 
ATOM      8  C   UNL     1      -5.310  54.440  53.471  0.00  0.00    +0.000 C 
ATOM      9  C   UNL     1      -6.255  55.596  53.902  0.00  0.00    +0.000 C 
ATOM     10  C   UNL     1      -3.868  54.831  53.842  0.00  0.00    +0.000 C 
ATOM     11  C   UNL     1      -5.659  53.134  54.207  0.00  0.00    +0.000 C 
ENDROOT
BRANCH   1  15
ATOM     12  N   UNL     1     -11.425  53.208  47.764  0.00  0.00    +0.000 N 
ATOM     13  C   UNL     1     -10.658  53.150  48.935  0.00  0.00    +0.000 C 
ATOM     14  O   UNL     1     -10.960  52.316  49.777  0.00  0.00    +0.000 OA
ATOM     15  N   UNL     1      -9.684  54.108  49.079  0.00  0.00    +0.000 N 
ATOM     16  H   UNL     1     -12.362  52.909  47.799  0.00  0.00    +0.000 HD
ATOM     17  H   UNL     1      -9.535  54.749  48.347  0.00  0.00    +0.000 HD
BRANCH  12  18
ATOM     18  S   UNL     1     -10.826  53.757  46.332  0.00  0.00    +0.000 S 
ATOM     19  O   UNL     1     -11.656  53.223  45.279  0.00  0.00    +0.000 OA
ATOM     20  O   UNL     1     -10.592  55.174  46.460  0.00  0.00    +0.000 OA
BRANCH  18  21
ATOM     21  N   UNL     1      -9.326  53.001  46.239  0.00  0.00    +0.000 NA
ATOM     22  C   UNL     1      -8.359  53.758  45.364  0.00  0.00    +0.000 C 
ATOM     23  C   UNL     1      -9.248  51.550  45.896  0.00  0.00    +0.000 C 
ATOM     24  C   UNL     1      -8.586  53.441  43.875  0.00  0.00    +0.000 C 
ATOM     25  C   UNL     1      -9.453  51.300  44.402  0.00  0.00    +0.000 C 
ATOM     26  O   UNL     1      -8.496  52.031  43.622  0.00  0.00    +0.000 OA
ENDBRANCH  18  21
ENDBRANCH  12  18
ENDBRANCH   1  15
BRANCH   3  27
ATOM     27  C   UNL     1     -10.491  54.843  52.073  0.00  0.00    +0.000 C 
ATOM     28  O   UNL     1     -10.946  54.145  52.972  0.00  0.00    +0.000 OA
BRANCH  27  29
ATOM     29  O   UNL     1     -11.225  55.752  51.358  0.00  0.00    +0.000 OA
BRANCH  29  30
ATOM     30  C   UNL     1     -12.633  55.500  51.247  0.00  0.00    +0.000 C 
ATOM     31  C   UNL     1     -13.404  56.554  52.012  0.00  0.00    +0.000 C 
ENDBRANCH  29  30
ENDBRANCH  27  29
ENDBRANCH   3  27
TORSDOF 6
ENDMDL
