MODEL 1
REMARK VINA RESULT:      -7.1      0.000      0.000
REMARK  Name = 
REMARK  10 active torsions:
REMARK  status: ('A' for Active; 'I' for Inactive)
REMARK    1  A    between atoms: S_1  and  N_4
REMARK    2  A    between atoms: S_1  and  C_5
REMARK    3  A    between atoms: N_10  and  C_13
REMARK    4  A    between atoms: C_14  and  C_17
REMARK    5  A    between atoms: C_16  and  C_20
REMARK    6  A    between atoms: C_20  and  O_24
REMARK    7  A    between atoms: O_24  and  C_27
REMARK    8  A    between atoms: C_25  and  C_28
REMARK    9  A    between atoms: C_25  and  C_29
REMARK   10  A    between atoms: C_27  and  C_30
REMARK                            x       y       z     vdW  Elec       q    Type
REMARK                         _______ _______ _______ _____ _____    ______ ____
ROOT
ATOM      1  N   UNL     1      -9.141  52.112  49.336  0.00  0.00    +0.000 N 
ATOM      2  C   UNL     1     -10.281  52.888  49.460  0.00  0.00    +0.000 C 
ATOM      3  O   UNL     1     -11.374  52.483  49.083  0.00  0.00    +0.000 OA
ATOM      4  N   UNL     1     -10.052  54.142  49.987  0.00  0.00    +0.000 N 
ATOM      5  H   UNL     1      -8.300  52.436  49.733  0.00  0.00    +0.000 HD
ATOM      6  H   UNL     1      -9.142  54.439  50.214  0.00  0.00    +0.000 HD
ENDROOT
BRANCH   4   7
ATOM      7  C   UNL     1     -11.142  54.970  50.186  0.00  0.00    +0.000 A 
ATOM      8  S   UNL     1     -11.782  54.938  51.759  0.00  0.00    +0.000 S 
ATOM      9  C   UNL     1     -11.811  55.830  49.332  0.00  0.00    +0.000 A 
ATOM     10  C   UNL     1     -12.768  56.288  51.431  0.00  0.00    +0.000 A 
ATOM     11  C   UNL     1     -12.690  56.682  50.105  0.00  0.00    +0.000 A 
ATOM     12  C   UNL     1     -13.611  56.949  52.491  0.00  0.00    +0.000 C 
ATOM     13  C   UNL     1     -13.503  57.826  49.572  0.00  0.00    +0.000 C 
ATOM     14  C   UNL     1     -14.714  57.848  51.852  0.00  0.00    +0.000 C 
ATOM     15  C   UNL     1     -14.096  58.683  50.696  0.00  0.00    +0.000 C 
ATOM     16  C   UNL     1     -15.281  58.821  52.903  0.00  0.00    +0.000 C 
ATOM     17  C   UNL     1     -15.883  56.973  51.336  0.00  0.00    +0.000 C 
BRANCH   9  18
ATOM     18  C   UNL     1     -11.683  55.840  47.866  0.00  0.00    +0.000 C 
ATOM     19  O   UNL     1     -12.638  55.726  47.105  0.00  0.00    +0.000 OA
BRANCH  18  20
ATOM     20  O   UNL     1     -10.380  55.829  47.457  0.00  0.00    +0.000 OA
BRANCH  20  21
ATOM     21  C   UNL     1      -9.997  54.888  46.450  0.00  0.00    +0.000 C 
ATOM     22  C   UNL     1      -8.519  55.002  46.135  0.00  0.00    +0.000 C 
ENDBRANCH  20  21
ENDBRANCH  18  20
ENDBRANCH   9  18
ENDBRANCH   4   7
BRANCH   1  23
ATOM     23  S   UNL     1      -9.146  50.653  48.536  0.00  0.00    +0.000 S 
ATOM     24  O   UNL     1     -10.345  49.927  48.908  0.00  0.00    +0.000 OA
ATOM     25  O   UNL     1      -7.847  50.057  48.787  0.00  0.00    +0.000 OA
BRANCH  23  26
ATOM     26  C   UNL     1      -9.236  51.088  46.801  0.00  0.00    +0.000 A 
ATOM     27  N   UNL     1     -10.499  51.116  46.294  0.00  0.00    +0.000 NA
ATOM     28  C   UNL     1      -8.083  51.347  46.076  0.00  0.00    +0.000 A 
ATOM     29  C   UNL     1     -10.598  51.464  44.991  0.00  0.00    +0.000 A 
ATOM     30  C   UNL     1      -8.230  51.684  44.733  0.00  0.00    +0.000 A 
ATOM     31  C   UNL     1      -9.509  51.758  44.169  0.00  0.00    +0.000 A 
ATOM     32  C   UNL     1      -9.688  52.133  42.731  0.00  0.00    +0.000 C 
ENDBRANCH  23  26
ENDBRANCH   1  23
TORSDOF 6
ENDMDL
MODEL 2
REMARK VINA RESULT:      -7.0      2.922      4.650
REMARK  Name = 
REMARK  10 active torsions:
REMARK  status: ('A' for Active; 'I' for Inactive)
REMARK    1  A    between atoms: S_1  and  N_4
REMARK    2  A    between atoms: S_1  and  C_5
REMARK    3  A    between atoms: N_10  and  C_13
REMARK    4  A    between atoms: C_14  and  C_17
REMARK    5  A    between atoms: C_16  and  C_20
REMARK    6  A    between atoms: C_20  and  O_24
REMARK    7  A    between atoms: O_24  and  C_27
REMARK    8  A    between atoms: C_25  and  C_28
REMARK    9  A    between atoms: C_25  and  C_29
REMARK   10  A    between atoms: C_27  and  C_30
REMARK                            x       y       z     vdW  Elec       q    Type
REMARK                         _______ _______ _______ _____ _____    ______ ____
ROOT
ATOM      1  N   UNL     1      -8.424  53.374  48.787  0.00  0.00    +0.000 N 
ATOM      2  C   UNL     1      -9.336  54.308  49.248  0.00  0.00    +0.000 C 
ATOM      3  O   UNL     1      -8.972  55.359  49.760  0.00  0.00    +0.000 OA
ATOM      4  N   UNL     1     -10.653  53.916  49.121  0.00  0.00    +0.000 N 
ATOM      5  H   UNL     1      -8.757  52.585  48.300  0.00  0.00    +0.000 HD
ATOM      6  H   UNL     1     -10.888  53.032  48.760  0.00  0.00    +0.000 HD
ENDROOT
BRANCH   4   7
ATOM      7  C   UNL     1     -11.634  54.807  49.518  0.00  0.00    +0.000 A 
ATOM      8  S   UNL     1     -12.136  54.641  51.131  0.00  0.00    +0.000 S 
ATOM      9  C   UNL     1     -12.286  55.821  48.835  0.00  0.00    +0.000 A 
ATOM     10  C   UNL     1     -13.007  56.103  51.056  0.00  0.00    +0.000 A 
ATOM     11  C   UNL     1     -13.005  56.647  49.782  0.00  0.00    +0.000 A 
ATOM     12  C   UNL     1     -13.686  56.703  52.261  0.00  0.00    +0.000 C 
ATOM     13  C   UNL     1     -13.743  57.916  49.463  0.00  0.00    +0.000 C 
ATOM     14  C   UNL     1     -14.744  57.767  51.838  0.00  0.00    +0.000 C 
ATOM     15  C   UNL     1     -14.148  58.679  50.729  0.00  0.00    +0.000 C 
ATOM     16  C   UNL     1     -15.118  58.651  53.043  0.00  0.00    +0.000 C 
ATOM     17  C   UNL     1     -16.034  57.069  51.343  0.00  0.00    +0.000 C 
BRANCH   9  18
ATOM     18  C   UNL     1     -12.284  55.998  47.374  0.00  0.00    +0.000 C 
ATOM     19  O   UNL     1     -13.184  56.565  46.763  0.00  0.00    +0.000 OA
BRANCH  18  20
ATOM     20  O   UNL     1     -11.260  55.326  46.770  0.00  0.00    +0.000 OA
BRANCH  20  21
ATOM     21  C   UNL     1     -11.576  54.450  45.683  0.00  0.00    +0.000 C 
ATOM     22  C   UNL     1     -10.445  53.474  45.428  0.00  0.00    +0.000 C 
ENDBRANCH  20  21
ENDBRANCH  18  20
ENDBRANCH   9  18
ENDBRANCH   4   7
BRANCH   1  23
ATOM     23  S   UNL     1      -6.787  53.541  49.030  0.00  0.00    +0.000 S 
ATOM     24  O   UNL     1      -6.369  54.823  48.497  0.00  0.00    +0.000 OA
ATOM     25  O   UNL     1      -6.182  52.326  48.516  0.00  0.00    +0.000 OA
BRANCH  23  26
ATOM     26  C   UNL     1      -6.592  53.552  50.811  0.00  0.00    +0.000 A 
ATOM     27  N   UNL     1      -5.972  54.660  51.301  0.00  0.00    +0.000 NA
ATOM     28  C   UNL     1      -7.037  52.486  51.577  0.00  0.00    +0.000 A 
ATOM     29  C   UNL     1      -5.833  54.704  52.645  0.00  0.00    +0.000 A 
ATOM     30  C   UNL     1      -6.857  52.565  52.955  0.00  0.00    +0.000 A 
ATOM     31  C   UNL     1      -6.253  53.697  53.515  0.00  0.00    +0.000 A 
ATOM     32  C   UNL     1      -6.064  53.808  54.995  0.00  0.00    +0.000 C 
ENDBRANCH  23  26
ENDBRANCH   1  23
TORSDOF 6
ENDMDL
MODEL 3
REMARK VINA RESULT:      -6.9      3.343      5.062
REMARK  Name = 
REMARK  10 active torsions:
REMARK  status: ('A' for Active; 'I' for Inactive)
REMARK    1  A    between atoms: S_1  and  N_4
REMARK    2  A    between atoms: S_1  and  C_5
REMARK    3  A    between atoms: N_10  and  C_13
REMARK    4  A    between atoms: C_14  and  C_17
REMARK    5  A    between atoms: C_16  and  C_20
REMARK    6  A    between atoms: C_20  and  O_24
REMARK    7  A    between atoms: O_24  and  C_27
REMARK    8  A    between atoms: C_25  and  C_28
REMARK    9  A    between atoms: C_25  and  C_29
REMARK   10  A    between atoms: C_27  and  C_30
REMARK                            x       y       z     vdW  Elec       q    Type
REMARK                         _______ _______ _______ _____ _____    ______ ____
ROOT
ATOM      1  N   UNL     1      -7.958  53.293  50.436  0.00  0.00    +0.000 N 
ATOM      2  C   UNL     1      -8.978  54.194  50.686  0.00  0.00    +0.000 C 
ATOM      3  O   UNL     1      -8.868  55.066  51.540  0.00  0.00    +0.000 OA
ATOM      4  N   UNL     1     -10.114  53.980  49.931  0.00  0.00    +0.000 N 
ATOM      5  H   UNL     1      -8.050  52.668  49.681  0.00  0.00    +0.000 HD
ATOM      6  H   UNL     1     -10.171  53.224  49.304  0.00  0.00    +0.000 HD
ENDROOT
BRANCH   4   7
ATOM      7  C   UNL     1     -11.169  54.861  50.085  0.00  0.00    +0.000 A 
ATOM      8  S   UNL     1     -11.896  54.839  51.619  0.00  0.00    +0.000 S 
ATOM      9  C   UNL     1     -11.744  55.769  49.211  0.00  0.00    +0.000 A 
ATOM     10  C   UNL     1     -12.791  56.244  51.263  0.00  0.00    +0.000 A 
ATOM     11  C   UNL     1     -12.618  56.654  49.951  0.00  0.00    +0.000 A 
ATOM     12  C   UNL     1     -13.657  56.933  52.287  0.00  0.00    +0.000 C 
ATOM     13  C   UNL     1     -13.340  57.848  49.395  0.00  0.00    +0.000 C 
ATOM     14  C   UNL     1     -14.674  57.899  51.605  0.00  0.00    +0.000 C 
ATOM     15  C   UNL     1     -13.949  58.718  50.500  0.00  0.00    +0.000 C 
ATOM     16  C   UNL     1     -15.247  58.884  52.641  0.00  0.00    +0.000 C 
ATOM     17  C   UNL     1     -15.856  57.095  51.009  0.00  0.00    +0.000 C 
BRANCH   9  18
ATOM     18  C   UNL     1     -11.534  55.794  47.755  0.00  0.00    +0.000 C 
ATOM     19  O   UNL     1     -12.447  55.714  46.941  0.00  0.00    +0.000 OA
BRANCH  18  20
ATOM     20  O   UNL     1     -10.210  55.755  47.420  0.00  0.00    +0.000 OA
BRANCH  20  21
ATOM     21  C   UNL     1      -9.790  54.796  46.444  0.00  0.00    +0.000 C 
ATOM     22  C   UNL     1      -8.363  54.353  46.700  0.00  0.00    +0.000 C 
ENDBRANCH  20  21
ENDBRANCH  18  20
ENDBRANCH   9  18
ENDBRANCH   4   7
BRANCH   1  23
ATOM     23  S   UNL     1      -6.583  53.231  51.372  0.00  0.00    +0.000 S 
ATOM     24  O   UNL     1      -6.202  54.585  51.723  0.00  0.00    +0.000 OA
ATOM     25  O   UNL     1      -5.646  52.394  50.646  0.00  0.00    +0.000 OA
BRANCH  23  26
ATOM     26  C   UNL     1      -7.082  52.356  52.853  0.00  0.00    +0.000 A 
ATOM     27  N   UNL     1      -8.254  51.675  52.734  0.00  0.00    +0.000 NA
ATOM     28  C   UNL     1      -6.310  52.417  54.003  0.00  0.00    +0.000 A 
ATOM     29  C   UNL     1      -8.643  50.986  53.832  0.00  0.00    +0.000 A 
ATOM     30  C   UNL     1      -6.757  51.707  55.115  0.00  0.00    +0.000 A 
ATOM     31  C   UNL     1      -7.941  50.964  55.038  0.00  0.00    +0.000 A 
ATOM     32  C   UNL     1      -8.430  50.183  56.217  0.00  0.00    +0.000 C 
ENDBRANCH  23  26
ENDBRANCH   1  23
TORSDOF 6
ENDMDL
MODEL 4
REMARK VINA RESULT:      -6.8      3.708      7.644
REMARK  Name = 
REMARK  10 active torsions:
REMARK  status: ('A' for Active; 'I' for Inactive)
REMARK    1  A    between atoms: S_1  and  N_4
REMARK    2  A    between atoms: S_1  and  C_5
REMARK    3  A    between atoms: N_10  and  C_13
REMARK    4  A    between atoms: C_14  and  C_17
REMARK    5  A    between atoms: C_16  and  C_20
REMARK    6  A    between atoms: C_20  and  O_24
REMARK    7  A    between atoms: O_24  and  C_27
REMARK    8  A    between atoms: C_25  and  C_28
REMARK    9  A    between atoms: C_25  and  C_29
REMARK   10  A    between atoms: C_27  and  C_30
REMARK                            x       y       z     vdW  Elec       q    Type
REMARK                         _______ _______ _______ _____ _____    ______ ____
ROOT
ATOM      1  N   UNL     1     -14.556  55.090  51.165  0.00  0.00    +0.000 N 
ATOM      2  C   UNL     1     -13.225  55.198  51.528  0.00  0.00    +0.000 C 
ATOM      3  O   UNL     1     -12.802  56.184  52.122  0.00  0.00    +0.000 OA
ATOM      4  N   UNL     1     -12.443  54.138  51.117  0.00  0.00    +0.000 N 
ATOM      5  H   UNL     1     -14.875  54.245  50.772  0.00  0.00    +0.000 HD
ATOM      6  H   UNL     1     -12.824  53.402  50.587  0.00  0.00    +0.000 HD
ENDROOT
BRANCH   4   7
ATOM      7  C   UNL     1     -11.107  54.143  51.475  0.00  0.00    +0.000 A 
ATOM      8  S   UNL     1     -10.771  53.440  52.983  0.00  0.00    +0.000 S 
ATOM      9  C   UNL     1      -9.982  54.617  50.820  0.00  0.00    +0.000 A 
ATOM     10  C   UNL     1      -9.096  53.470  52.672  0.00  0.00    +0.000 A 
ATOM     11  C   UNL     1      -8.797  54.113  51.482  0.00  0.00    +0.000 A 
ATOM     12  C   UNL     1      -8.089  52.855  53.610  0.00  0.00    +0.000 C 
ATOM     13  C   UNL     1      -7.381  54.298  51.018  0.00  0.00    +0.000 C 
ATOM     14  C   UNL     1      -6.653  53.391  53.323  0.00  0.00    +0.000 C 
ATOM     15  C   UNL     1      -6.402  53.405  51.788  0.00  0.00    +0.000 C 
ATOM     16  C   UNL     1      -5.603  52.474  53.977  0.00  0.00    +0.000 C 
ATOM     17  C   UNL     1      -6.483  54.809  53.922  0.00  0.00    +0.000 C 
BRANCH   9  18
ATOM     18  C   UNL     1      -9.993  55.529  49.665  0.00  0.00    +0.000 C 
ATOM     19  O   UNL     1      -9.644  56.703  49.729  0.00  0.00    +0.000 OA
BRANCH  18  20
ATOM     20  O   UNL     1     -10.581  54.969  48.566  0.00  0.00    +0.000 OA
BRANCH  20  21
ATOM     21  C   UNL     1     -11.718  55.628  48.000  0.00  0.00    +0.000 C 
ATOM     22  C   UNL     1     -11.709  55.521  46.488  0.00  0.00    +0.000 C 
ENDBRANCH  20  21
ENDBRANCH  18  20
ENDBRANCH   9  18
ENDBRANCH   4   7
BRANCH   1  23
ATOM     23  S   UNL     1     -15.634  56.341  51.370  0.00  0.00    +0.000 S 
ATOM     24  O   UNL     1     -15.844  56.542  52.791  0.00  0.00    +0.000 OA
ATOM     25  O   UNL     1     -16.769  56.032  50.521  0.00  0.00    +0.000 OA
BRANCH  23  26
ATOM     26  C   UNL     1     -14.801  57.773  50.689  0.00  0.00    +0.000 A 
ATOM     27  N   UNL     1     -14.688  58.819  51.552  0.00  0.00    +0.000 NA
ATOM     28  C   UNL     1     -14.346  57.770  49.380  0.00  0.00    +0.000 A 
ATOM     29  C   UNL     1     -14.042  59.906  51.071  0.00  0.00    +0.000 A 
ATOM     30  C   UNL     1     -13.702  58.916  48.920  0.00  0.00    +0.000 A 
ATOM     31  C   UNL     1     -13.531  60.010  49.777  0.00  0.00    +0.000 A 
ATOM     32  C   UNL     1     -12.829  61.245  49.306  0.00  0.00    +0.000 C 
ENDBRANCH  23  26
ENDBRANCH   1  23
TORSDOF 6
ENDMDL
MODEL 5
REMARK VINA RESULT:      -6.8      2.900      3.700
REMARK  Name = 
REMARK  10 active torsions:
REMARK  status: ('A' for Active; 'I' for Inactive)
REMARK    1  A    between atoms: S_1  and  N_4
REMARK    2  A    between atoms: S_1  and  C_5
REMARK    3  A    between atoms: N_10  and  C_13
REMARK    4  A    between atoms: C_14  and  C_17
REMARK    5  A    between atoms: C_16  and  C_20
REMARK    6  A    between atoms: C_20  and  O_24
REMARK    7  A    between atoms: O_24  and  C_27
REMARK    8  A    between atoms: C_25  and  C_28
REMARK    9  A    between atoms: C_25  and  C_29
REMARK   10  A    between atoms: C_27  and  C_30
REMARK                            x       y       z     vdW  Elec       q    Type
REMARK                         _______ _______ _______ _____ _____    ______ ____
ROOT
ATOM      1  N   UNL     1      -7.943  53.904  49.764  0.00  0.00    +0.000 N 
ATOM      2  C   UNL     1      -8.984  54.750  50.104  0.00  0.00    +0.000 C 
ATOM      3  O   UNL     1      -8.778  55.850  50.603  0.00  0.00    +0.000 OA
ATOM      4  N   UNL     1     -10.237  54.218  49.877  0.00  0.00    +0.000 N 
ATOM      5  H   UNL     1      -8.146  53.070  49.283  0.00  0.00    +0.000 HD
ATOM      6  H   UNL     1     -10.345  53.302  49.533  0.00  0.00    +0.000 HD
ENDROOT
BRANCH   4   7
ATOM      7  C   UNL     1     -11.336  55.012  50.148  0.00  0.00    +0.000 A 
ATOM      8  S   UNL     1     -11.778  55.080  51.786  0.00  0.00    +0.000 S 
ATOM      9  C   UNL     1     -12.148  55.771  49.322  0.00  0.00    +0.000 A 
ATOM     10  C   UNL     1     -12.866  56.356  51.484  0.00  0.00    +0.000 A 
ATOM     11  C   UNL     1     -12.969  56.645  50.133  0.00  0.00    +0.000 A 
ATOM     12  C   UNL     1     -13.607  57.065  52.588  0.00  0.00    +0.000 C 
ATOM     13  C   UNL     1     -13.900  57.707  49.621  0.00  0.00    +0.000 C 
ATOM     14  C   UNL     1     -14.825  57.861  52.027  0.00  0.00    +0.000 C 
ATOM     15  C   UNL     1     -14.395  58.626  50.743  0.00  0.00    +0.000 C 
ATOM     16  C   UNL     1     -15.310  58.891  53.065  0.00  0.00    +0.000 C 
ATOM     17  C   UNL     1     -16.000  56.899  51.728  0.00  0.00    +0.000 C 
BRANCH   9  18
ATOM     18  C   UNL     1     -12.200  55.668  47.855  0.00  0.00    +0.000 C 
ATOM     19  O   UNL     1     -12.661  56.545  47.133  0.00  0.00    +0.000 OA
BRANCH  18  20
ATOM     20  O   UNL     1     -11.827  54.433  47.407  0.00  0.00    +0.000 OA
BRANCH  20  21
ATOM     21  C   UNL     1     -11.015  54.358  46.231  0.00  0.00    +0.000 C 
ATOM     22  C   UNL     1      -9.660  54.995  46.467  0.00  0.00    +0.000 C 
ENDBRANCH  20  21
ENDBRANCH  18  20
ENDBRANCH   9  18
ENDBRANCH   4   7
BRANCH   1  23
ATOM     23  S   UNL     1      -6.360  54.251  50.145  0.00  0.00    +0.000 S 
ATOM     24  O   UNL     1      -6.199  54.156  51.583  0.00  0.00    +0.000 OA
ATOM     25  O   UNL     1      -6.055  55.502  49.476  0.00  0.00    +0.000 OA
BRANCH  23  26
ATOM     26  C   UNL     1      -5.410  52.952  49.359  0.00  0.00    +0.000 A 
ATOM     27  N   UNL     1      -5.909  52.538  48.162  0.00  0.00    +0.000 NA
ATOM     28  C   UNL     1      -4.279  52.435  49.971  0.00  0.00    +0.000 A 
ATOM     29  C   UNL     1      -5.197  51.573  47.536  0.00  0.00    +0.000 A 
ATOM     30  C   UNL     1      -3.587  51.430  49.299  0.00  0.00    +0.000 A 
ATOM     31  C   UNL     1      -4.039  50.988  48.050  0.00  0.00    +0.000 A 
ATOM     32  C   UNL     1      -3.301  49.920  47.306  0.00  0.00    +0.000 C 
ENDBRANCH  23  26
ENDBRANCH   1  23
TORSDOF 6
ENDMDL
MODEL 6
REMARK VINA RESULT:      -6.7      3.636      8.103
REMARK  Name = 
REMARK  10 active torsions:
REMARK  status: ('A' for Active; 'I' for Inactive)
REMARK    1  A    between atoms: S_1  and  N_4
REMARK    2  A    between atoms: S_1  and  C_5
REMARK    3  A    between atoms: N_10  and  C_13
REMARK    4  A    between atoms: C_14  and  C_17
REMARK    5  A    between atoms: C_16  and  C_20
REMARK    6  A    between atoms: C_20  and  O_24
REMARK    7  A    between atoms: O_24  and  C_27
REMARK    8  A    between atoms: C_25  and  C_28
REMARK    9  A    between atoms: C_25  and  C_29
REMARK   10  A    between atoms: C_27  and  C_30
REMARK                            x       y       z     vdW  Elec       q    Type
REMARK                         _______ _______ _______ _____ _____    ______ ____
ROOT
ATOM      1  N   UNL     1     -11.629  56.682  49.090  0.00  0.00    +0.000 N 
ATOM      2  C   UNL     1     -10.639  55.838  49.562  0.00  0.00    +0.000 C 
ATOM      3  O   UNL     1     -10.895  54.702  49.944  0.00  0.00    +0.000 OA
ATOM      4  N   UNL     1      -9.385  56.412  49.605  0.00  0.00    +0.000 N 
ATOM      5  H   UNL     1     -11.370  57.552  48.707  0.00  0.00    +0.000 HD
ATOM      6  H   UNL     1      -9.248  57.351  49.345  0.00  0.00    +0.000 HD
ENDROOT
BRANCH   4   7
ATOM      7  C   UNL     1      -8.327  55.626  50.025  0.00  0.00    +0.000 A 
ATOM      8  S   UNL     1      -7.828  55.900  51.625  0.00  0.00    +0.000 S 
ATOM      9  C   UNL     1      -7.596  54.645  49.375  0.00  0.00    +0.000 A 
ATOM     10  C   UNL     1      -6.834  54.517  51.597  0.00  0.00    +0.000 A 
ATOM     11  C   UNL     1      -6.800  53.924  50.345  0.00  0.00    +0.000 A 
ATOM     12  C   UNL     1      -6.096  54.027  52.816  0.00  0.00    +0.000 C 
ATOM     13  C   UNL     1      -5.958  52.712  50.068  0.00  0.00    +0.000 C 
ATOM     14  C   UNL     1      -4.953  53.042  52.423  0.00  0.00    +0.000 C 
ATOM     15  C   UNL     1      -5.478  52.038  51.359  0.00  0.00    +0.000 C 
ATOM     16  C   UNL     1      -4.493  52.243  53.658  0.00  0.00    +0.000 C 
ATOM     17  C   UNL     1      -3.732  53.828  51.886  0.00  0.00    +0.000 C 
BRANCH   9  18
ATOM     18  C   UNL     1      -7.595  54.410  47.923  0.00  0.00    +0.000 C 
ATOM     19  O   UNL     1      -6.632  54.650  47.202  0.00  0.00    +0.000 OA
BRANCH  18  20
ATOM     20  O   UNL     1      -8.826  54.051  47.453  0.00  0.00    +0.000 OA
BRANCH  20  21
ATOM     21  C   UNL     1      -9.322  54.714  46.286  0.00  0.00    +0.000 C 
ATOM     22  C   UNL     1     -10.818  54.517  46.146  0.00  0.00    +0.000 C 
ENDBRANCH  20  21
ENDBRANCH  18  20
ENDBRANCH   9  18
ENDBRANCH   4   7
BRANCH   1  23
ATOM     23  S   UNL     1     -13.242  56.275  49.147  0.00  0.00    +0.000 S 
ATOM     24  O   UNL     1     -13.350  54.858  49.436  0.00  0.00    +0.000 OA
ATOM     25  O   UNL     1     -13.828  56.799  47.928  0.00  0.00    +0.000 OA
BRANCH  23  26
ATOM     26  C   UNL     1     -13.895  57.209  50.529  0.00  0.00    +0.000 A 
ATOM     27  N   UNL     1     -14.410  58.423  50.192  0.00  0.00    +0.000 NA
ATOM     28  C   UNL     1     -13.840  56.698  51.816  0.00  0.00    +0.000 A 
ATOM     29  C   UNL     1     -14.932  59.139  51.214  0.00  0.00    +0.000 A 
ATOM     30  C   UNL     1     -14.373  57.476  52.841  0.00  0.00    +0.000 A 
ATOM     31  C   UNL     1     -14.943  58.720  52.545  0.00  0.00    +0.000 A 
ATOM     32  C   UNL     1     -15.533  59.566  53.630  0.00  0.00    +0.000 C 
ENDBRANCH  23  26
ENDBRANCH   1  23
TORSDOF 6
ENDMDL
MODEL 7
REMARK VINA RESULT:      -6.5      3.456      8.711
REMARK  Name = 
REMARK  10 active torsions:
REMARK  status: ('A' for Active; 'I' for Inactive)
REMARK    1  A    between atoms: S_1  and  N_4
REMARK    2  A    between atoms: S_1  and  C_5
REMARK    3  A    between atoms: N_10  and  C_13
REMARK    4  A    between atoms: C_14  and  C_17
REMARK    5  A    between atoms: C_16  and  C_20
REMARK    6  A    between atoms: C_20  and  O_24
REMARK    7  A    between atoms: O_24  and  C_27
REMARK    8  A    between atoms: C_25  and  C_28
REMARK    9  A    between atoms: C_25  and  C_29
REMARK   10  A    between atoms: C_27  and  C_30
REMARK                            x       y       z     vdW  Elec       q    Type
REMARK                         _______ _______ _______ _____ _____    ______ ____
ROOT
ATOM      1  N   UNL     1     -11.964  56.860  49.029  0.00  0.00    +0.000 N 
ATOM      2  C   UNL     1     -10.944  55.924  49.057  0.00  0.00    +0.000 C 
ATOM      3  O   UNL     1     -11.180  54.722  49.052  0.00  0.00    +0.000 OA
ATOM      4  N   UNL     1      -9.681  56.473  49.142  0.00  0.00    +0.000 N 
ATOM      5  H   UNL     1     -11.732  57.813  48.941  0.00  0.00    +0.000 HD
ATOM      6  H   UNL     1      -9.553  57.446  49.207  0.00  0.00    +0.000 HD
ENDROOT
BRANCH   4   7
ATOM      7  C   UNL     1      -8.599  55.610  49.132  0.00  0.00    +0.000 A 
ATOM      8  S   UNL     1      -8.195  54.993  47.603  0.00  0.00    +0.000 S 
ATOM      9  C   UNL     1      -7.776  55.157  50.150  0.00  0.00    +0.000 A 
ATOM     10  C   UNL     1      -6.734  54.352  48.201  0.00  0.00    +0.000 A 
ATOM     11  C   UNL     1      -6.616  54.511  49.572  0.00  0.00    +0.000 A 
ATOM     12  C   UNL     1      -5.713  53.696  47.307  0.00  0.00    +0.000 C 
ATOM     13  C   UNL     1      -5.430  53.987  50.329  0.00  0.00    +0.000 C 
ATOM     14  C   UNL     1      -4.712  52.833  48.135  0.00  0.00    +0.000 C 
ATOM     15  C   UNL     1      -4.269  53.623  49.398  0.00  0.00    +0.000 C 
ATOM     16  C   UNL     1      -3.460  52.520  47.294  0.00  0.00    +0.000 C 
ATOM     17  C   UNL     1      -5.368  51.487  48.528  0.00  0.00    +0.000 C 
BRANCH   9  18
ATOM     18  C   UNL     1      -8.062  55.273  51.588  0.00  0.00    +0.000 C 
ATOM     19  O   UNL     1      -7.463  56.039  52.336  0.00  0.00    +0.000 OA
BRANCH  18  20
ATOM     20  O   UNL     1      -8.949  54.328  52.020  0.00  0.00    +0.000 OA
BRANCH  20  21
ATOM     21  C   UNL     1      -9.861  54.685  53.064  0.00  0.00    +0.000 C 
ATOM     22  C   UNL     1     -11.131  55.283  52.493  0.00  0.00    +0.000 C 
ENDBRANCH  20  21
ENDBRANCH  18  20
ENDBRANCH   9  18
ENDBRANCH   4   7
BRANCH   1  23
ATOM     23  S   UNL     1     -13.567  56.427  49.139  0.00  0.00    +0.000 S 
ATOM     24  O   UNL     1     -13.642  55.021  49.484  0.00  0.00    +0.000 OA
ATOM     25  O   UNL     1     -14.190  56.893  47.914  0.00  0.00    +0.000 OA
BRANCH  23  26
ATOM     26  C   UNL     1     -14.207  57.403  50.498  0.00  0.00    +0.000 A 
ATOM     27  N   UNL     1     -14.423  56.698  51.641  0.00  0.00    +0.000 NA
ATOM     28  C   UNL     1     -14.461  58.756  50.338  0.00  0.00    +0.000 A 
ATOM     29  C   UNL     1     -14.885  57.415  52.691  0.00  0.00    +0.000 A 
ATOM     30  C   UNL     1     -14.952  59.453  51.439  0.00  0.00    +0.000 A 
ATOM     31  C   UNL     1     -15.164  58.782  52.649  0.00  0.00    +0.000 A 
ATOM     32  C   UNL     1     -15.678  59.516  53.848  0.00  0.00    +0.000 C 
ENDBRANCH  23  26
ENDBRANCH   1  23
TORSDOF 6
ENDMDL
MODEL 8
REMARK VINA RESULT:      -6.5      3.662      7.327
REMARK  Name = 
REMARK  10 active torsions:
REMARK  status: ('A' for Active; 'I' for Inactive)
REMARK    1  A    between atoms: S_1  and  N_4
REMARK    2  A    between atoms: S_1  and  C_5
REMARK    3  A    between atoms: N_10  and  C_13
REMARK    4  A    between atoms: C_14  and  C_17
REMARK    5  A    between atoms: C_16  and  C_20
REMARK    6  A    between atoms: C_20  and  O_24
REMARK    7  A    between atoms: O_24  and  C_27
REMARK    8  A    between atoms: C_25  and  C_28
REMARK    9  A    between atoms: C_25  and  C_29
REMARK   10  A    between atoms: C_27  and  C_30
REMARK                            x       y       z     vdW  Elec       q    Type
REMARK                         _______ _______ _______ _____ _____    ______ ____
ROOT
ATOM      1  N   UNL     1      -7.906  55.953  50.824  0.00  0.00    +0.000 N 
ATOM      2  C   UNL     1      -8.329  55.115  49.807  0.00  0.00    +0.000 C 
ATOM      3  O   UNL     1      -8.610  53.942  50.020  0.00  0.00    +0.000 OA
ATOM      4  N   UNL     1      -8.346  55.708  48.561  0.00  0.00    +0.000 N 
ATOM      5  H   UNL     1      -7.778  56.910  50.629  0.00  0.00    +0.000 HD
ATOM      6  H   UNL     1      -8.048  56.637  48.437  0.00  0.00    +0.000 HD
ENDROOT
BRANCH   4   7
ATOM      7  C   UNL     1      -8.796  54.955  47.492  0.00  0.00    +0.000 A 
ATOM      8  S   UNL     1      -7.578  54.148  46.627  0.00  0.00    +0.000 S 
ATOM      9  C   UNL     1     -10.070  54.733  46.995  0.00  0.00    +0.000 A 
ATOM     10  C   UNL     1      -8.733  53.243  45.762  0.00  0.00    +0.000 A 
ATOM     11  C   UNL     1     -10.029  53.636  46.052  0.00  0.00    +0.000 A 
ATOM     12  C   UNL     1      -8.347  52.146  44.802  0.00  0.00    +0.000 C 
ATOM     13  C   UNL     1     -11.215  53.007  45.379  0.00  0.00    +0.000 C 
ATOM     14  C   UNL     1      -9.528  51.793  43.847  0.00  0.00    +0.000 C 
ATOM     15  C   UNL     1     -10.846  51.701  44.666  0.00  0.00    +0.000 C 
ATOM     16  C   UNL     1      -9.278  50.429  43.176  0.00  0.00    +0.000 C 
ATOM     17  C   UNL     1      -9.647  52.857  42.729  0.00  0.00    +0.000 C 
BRANCH   9  18
ATOM     18  C   UNL     1     -11.264  55.521  47.338  0.00  0.00    +0.000 C 
ATOM     19  O   UNL     1     -11.954  56.098  46.504  0.00  0.00    +0.000 OA
BRANCH  18  20
ATOM     20  O   UNL     1     -11.421  55.669  48.687  0.00  0.00    +0.000 OA
BRANCH  20  21
ATOM     21  C   UNL     1     -12.524  55.008  49.315  0.00  0.00    +0.000 C 
ATOM     22  C   UNL     1     -12.091  54.334  50.601  0.00  0.00    +0.000 C 
ENDBRANCH  20  21
ENDBRANCH  18  20
ENDBRANCH   9  18
ENDBRANCH   4   7
BRANCH   1  23
ATOM     23  S   UNL     1      -7.608  55.397  52.364  0.00  0.00    +0.000 S 
ATOM     24  O   UNL     1      -8.813  54.769  52.869  0.00  0.00    +0.000 OA
ATOM     25  O   UNL     1      -7.032  56.515  53.086  0.00  0.00    +0.000 OA
BRANCH  23  26
ATOM     26  C   UNL     1      -6.337  54.151  52.157  0.00  0.00    +0.000 A 
ATOM     27  N   UNL     1      -6.642  52.943  52.704  0.00  0.00    +0.000 NA
ATOM     28  C   UNL     1      -5.154  54.451  51.501  0.00  0.00    +0.000 A 
ATOM     29  C   UNL     1      -5.709  51.977  52.542  0.00  0.00    +0.000 A 
ATOM     30  C   UNL     1      -4.213  53.432  51.372  0.00  0.00    +0.000 A 
ATOM     31  C   UNL     1      -4.489  52.161  51.890  0.00  0.00    +0.000 A 
ATOM     32  C   UNL     1      -3.497  51.049  51.749  0.00  0.00    +0.000 C 
ENDBRANCH  23  26
ENDBRANCH   1  23
TORSDOF 6
ENDMDL
MODEL 9
REMARK VINA RESULT:      -6.3      3.843      5.360
REMARK  Name = 
REMARK  10 active torsions:
REMARK  status: ('A' for Active; 'I' for Inactive)
REMARK    1  A    between atoms: S_1  and  N_4
REMARK    2  A    between atoms: S_1  and  C_5
REMARK    3  A    between atoms: N_10  and  C_13
REMARK    4  A    between atoms: C_14  and  C_17
REMARK    5  A    between atoms: C_16  and  C_20
REMARK    6  A    between atoms: C_20  and  O_24
REMARK    7  A    between atoms: O_24  and  C_27
REMARK    8  A    between atoms: C_25  and  C_28
REMARK    9  A    between atoms: C_25  and  C_29
REMARK   10  A    between atoms: C_27  and  C_30
REMARK                            x       y       z     vdW  Elec       q    Type
REMARK                         _______ _______ _______ _____ _____    ______ ____
ROOT
ATOM      1  N   UNL     1      -5.524  53.913  47.295  0.00  0.00    +0.000 N 
ATOM      2  C   UNL     1      -6.851  54.012  47.678  0.00  0.00    +0.000 C 
ATOM      3  O   UNL     1      -7.377  53.164  48.388  0.00  0.00    +0.000 OA
ATOM      4  N   UNL     1      -7.508  55.103  47.147  0.00  0.00    +0.000 N 
ATOM      5  H   UNL     1      -5.115  54.660  46.801  0.00  0.00    +0.000 HD
ATOM      6  H   UNL     1      -7.053  55.719  46.529  0.00  0.00    +0.000 HD
ENDROOT
BRANCH   4   7
ATOM      7  C   UNL     1      -8.827  55.304  47.511  0.00  0.00    +0.000 A 
ATOM      8  S   UNL     1      -9.044  56.033  49.029  0.00  0.00    +0.000 S 
ATOM      9  C   UNL     1     -10.015  55.020  46.857  0.00  0.00    +0.000 A 
ATOM     10  C   UNL     1     -10.703  56.270  48.727  0.00  0.00    +0.000 A 
ATOM     11  C   UNL     1     -11.103  55.696  47.531  0.00  0.00    +0.000 A 
ATOM     12  C   UNL     1     -11.598  57.025  49.676  0.00  0.00    +0.000 C 
ATOM     13  C   UNL     1     -12.533  55.741  47.072  0.00  0.00    +0.000 C 
ATOM     14  C   UNL     1     -13.102  56.723  49.391  0.00  0.00    +0.000 C 
ATOM     15  C   UNL     1     -13.357  56.767  47.858  0.00  0.00    +0.000 C 
ATOM     16  C   UNL     1     -13.993  57.787  50.061  0.00  0.00    +0.000 C 
ATOM     17  C   UNL     1     -13.490  55.343  49.975  0.00  0.00    +0.000 C 
BRANCH   9  18
ATOM     18  C   UNL     1     -10.151  54.132  45.692  0.00  0.00    +0.000 C 
ATOM     19  O   UNL     1     -11.131  53.421  45.496  0.00  0.00    +0.000 OA
BRANCH  18  20
ATOM     20  O   UNL     1      -9.007  54.070  44.948  0.00  0.00    +0.000 OA
BRANCH  20  21
ATOM     21  C   UNL     1      -8.784  52.905  44.148  0.00  0.00    +0.000 C 
ATOM     22  C   UNL     1      -8.053  51.837  44.937  0.00  0.00    +0.000 C 
ENDBRANCH  20  21
ENDBRANCH  18  20
ENDBRANCH   9  18
ENDBRANCH   4   7
BRANCH   1  23
ATOM     23  S   UNL     1      -4.600  52.573  47.642  0.00  0.00    +0.000 S 
ATOM     24  O   UNL     1      -3.300  52.735  47.020  0.00  0.00    +0.000 OA
ATOM     25  O   UNL     1      -5.417  51.426  47.295  0.00  0.00    +0.000 OA
BRANCH  23  26
ATOM     26  C   UNL     1      -4.408  52.605  49.423  0.00  0.00    +0.000 A 
ATOM     27  N   UNL     1      -4.364  53.854  49.960  0.00  0.00    +0.000 NA
ATOM     28  C   UNL     1      -4.301  51.425  50.142  0.00  0.00    +0.000 A 
ATOM     29  C   UNL     1      -4.242  53.906  51.306  0.00  0.00    +0.000 A 
ATOM     30  C   UNL     1      -4.159  51.526  51.524  0.00  0.00    +0.000 A 
ATOM     31  C   UNL     1      -4.139  52.786  52.132  0.00  0.00    +0.000 A 
ATOM     32  C   UNL     1      -4.002  52.915  53.617  0.00  0.00    +0.000 C 
ENDBRANCH  23  26
ENDBRANCH   1  23
TORSDOF 6
ENDMDL
