MODEL 1
REMARK VINA RESULT:      -7.1      0.000      0.000
REMARK  Name = 
REMARK  10 active torsions:
REMARK  status: ('A' for Active; 'I' for Inactive)
REMARK    1  A    between atoms: S_1  and  N_4
REMARK    2  A    between atoms: S_1  and  C_5
REMARK    3  A    between atoms: N_10  and  C_13
REMARK    4  A    between atoms: C_14  and  C_17
REMARK    5  A    between atoms: C_16  and  C_20
REMARK    6  A    between atoms: C_20  and  O_24
REMARK    7  A    between atoms: O_24  and  C_27
REMARK    8  A    between atoms: C_25  and  C_28
REMARK    9  A    between atoms: C_25  and  C_29
REMARK   10  A    between atoms: C_27  and  C_30
REMARK                            x       y       z     vdW  Elec       q    Type
REMARK                         _______ _______ _______ _____ _____    ______ ____
ROOT
ATOM      1  N   UNL     1      -8.975  52.211  49.327  0.00  0.00    +0.000 N 
ATOM      2  C   UNL     1     -10.123  52.953  49.560  0.00  0.00    +0.000 C 
ATOM      3  O   UNL     1     -11.228  52.499  49.276  0.00  0.00    +0.000 OA
ATOM      4  N   UNL     1      -9.906  54.220  50.049  0.00  0.00    +0.000 N 
ATOM      5  H   UNL     1      -8.112  52.561  49.645  0.00  0.00    +0.000 HD
ATOM      6  H   UNL     1      -8.995  54.544  50.234  0.00  0.00    +0.000 HD
ENDROOT
BRANCH   4   7
ATOM      7  C   UNL     1     -11.009  55.022  50.273  0.00  0.00    +0.000 A 
ATOM      8  S   UNL     1     -11.618  55.019  51.861  0.00  0.00    +0.000 S 
ATOM      9  C   UNL     1     -11.713  55.859  49.424  0.00  0.00    +0.000 A 
ATOM     10  C   UNL     1     -12.659  56.328  51.517  0.00  0.00    +0.000 A 
ATOM     11  C   UNL     1     -12.604  56.698  50.184  0.00  0.00    +0.000 A 
ATOM     12  C   UNL     1     -13.535  56.977  52.560  0.00  0.00    +0.000 C 
ATOM     13  C   UNL     1     -13.475  57.783  49.621  0.00  0.00    +0.000 C 
ATOM     14  C   UNL     1     -14.683  57.804  51.897  0.00  0.00    +0.000 C 
ATOM     15  C   UNL     1     -14.111  58.639  50.721  0.00  0.00    +0.000 C 
ATOM     16  C   UNL     1     -15.304  58.783  52.912  0.00  0.00    +0.000 C 
ATOM     17  C   UNL     1     -15.804  56.861  51.411  0.00  0.00    +0.000 C 
BRANCH   9  18
ATOM     18  C   UNL     1     -11.618  55.837  47.962  0.00  0.00    +0.000 C 
ATOM     19  O   UNL     1     -12.576  55.657  47.221  0.00  0.00    +0.000 OA
BRANCH  18  20
ATOM     20  O   UNL     1     -10.315  55.837  47.554  0.00  0.00    +0.000 OA
BRANCH  20  21
ATOM     21  C   UNL     1      -9.966  54.939  46.495  0.00  0.00    +0.000 C 
ATOM     22  C   UNL     1      -8.487  55.050  46.200  0.00  0.00    +0.000 C 
ENDBRANCH  20  21
ENDBRANCH  18  20
ENDBRANCH   9  18
ENDBRANCH   4   7
BRANCH   1  23
ATOM     23  S   UNL     1      -9.000  50.742  48.522  0.00  0.00    +0.000 S 
ATOM     24  O   UNL     1     -10.164  49.999  48.956  0.00  0.00    +0.000 OA
ATOM     25  O   UNL     1      -7.677  50.177  48.705  0.00  0.00    +0.000 OA
BRANCH  23  26
ATOM     26  C   UNL     1      -9.183  51.163  46.784  0.00  0.00    +0.000 A 
ATOM     27  N   UNL     1     -10.469  51.239  46.344  0.00  0.00    +0.000 NA
ATOM     28  C   UNL     1      -8.063  51.403  45.998  0.00  0.00    +0.000 A 
ATOM     29  C   UNL     1     -10.624  51.602  45.050  0.00  0.00    +0.000 A 
ATOM     30  C   UNL     1      -8.272  51.757  44.666  0.00  0.00    +0.000 A 
ATOM     31  C   UNL     1      -9.575  51.870  44.172  0.00  0.00    +0.000 A 
ATOM     32  C   UNL     1      -9.819  52.257  42.744  0.00  0.00    +0.000 C 
ENDBRANCH  23  26
ENDBRANCH   1  23
TORSDOF 6
ENDMDL
MODEL 2
REMARK VINA RESULT:      -7.0      3.269      5.052
REMARK  Name = 
REMARK  10 active torsions:
REMARK  status: ('A' for Active; 'I' for Inactive)
REMARK    1  A    between atoms: S_1  and  N_4
REMARK    2  A    between atoms: S_1  and  C_5
REMARK    3  A    between atoms: N_10  and  C_13
REMARK    4  A    between atoms: C_14  and  C_17
REMARK    5  A    between atoms: C_16  and  C_20
REMARK    6  A    between atoms: C_20  and  O_24
REMARK    7  A    between atoms: O_24  and  C_27
REMARK    8  A    between atoms: C_25  and  C_28
REMARK    9  A    between atoms: C_25  and  C_29
REMARK   10  A    between atoms: C_27  and  C_30
REMARK                            x       y       z     vdW  Elec       q    Type
REMARK                         _______ _______ _______ _____ _____    ______ ____
ROOT
ATOM      1  N   UNL     1      -7.893  53.254  50.399  0.00  0.00    +0.000 N 
ATOM      2  C   UNL     1      -8.898  54.183  50.617  0.00  0.00    +0.000 C 
ATOM      3  O   UNL     1      -8.766  55.058  51.468  0.00  0.00    +0.000 OA
ATOM      4  N   UNL     1     -10.038  53.990  49.872  0.00  0.00    +0.000 N 
ATOM      5  H   UNL     1      -7.987  52.621  49.651  0.00  0.00    +0.000 HD
ATOM      6  H   UNL     1     -10.102  53.254  49.221  0.00  0.00    +0.000 HD
ENDROOT
BRANCH   4   7
ATOM      7  C   UNL     1     -11.091  54.864  50.067  0.00  0.00    +0.000 A 
ATOM      8  S   UNL     1     -11.810  54.825  51.607  0.00  0.00    +0.000 S 
ATOM      9  C   UNL     1     -11.666  55.799  49.223  0.00  0.00    +0.000 A 
ATOM     10  C   UNL     1     -12.722  56.230  51.271  0.00  0.00    +0.000 A 
ATOM     11  C   UNL     1     -12.543  56.665  49.970  0.00  0.00    +0.000 A 
ATOM     12  C   UNL     1     -13.619  56.890  52.290  0.00  0.00    +0.000 C 
ATOM     13  C   UNL     1     -13.286  57.845  49.414  0.00  0.00    +0.000 C 
ATOM     14  C   UNL     1     -14.650  57.840  51.600  0.00  0.00    +0.000 C 
ATOM     15  C   UNL     1     -13.934  58.688  50.516  0.00  0.00    +0.000 C 
ATOM     16  C   UNL     1     -15.266  58.810  52.627  0.00  0.00    +0.000 C 
ATOM     17  C   UNL     1     -15.801  57.017  50.985  0.00  0.00    +0.000 C 
BRANCH   9  18
ATOM     18  C   UNL     1     -11.468  55.848  47.773  0.00  0.00    +0.000 C 
ATOM     19  O   UNL     1     -12.382  55.800  46.960  0.00  0.00    +0.000 OA
BRANCH  18  20
ATOM     20  O   UNL     1     -10.144  55.745  47.453  0.00  0.00    +0.000 OA
BRANCH  20  21
ATOM     21  C   UNL     1      -9.796  54.823  46.416  0.00  0.00    +0.000 C 
ATOM     22  C   UNL     1      -8.302  54.858  46.184  0.00  0.00    +0.000 C 
ENDBRANCH  20  21
ENDBRANCH  18  20
ENDBRANCH   9  18
ENDBRANCH   4   7
BRANCH   1  23
ATOM     23  S   UNL     1      -6.523  53.168  51.358  0.00  0.00    +0.000 S 
ATOM     24  O   UNL     1      -6.104  54.514  51.687  0.00  0.00    +0.000 OA
ATOM     25  O   UNL     1      -5.612  52.283  50.657  0.00  0.00    +0.000 OA
BRANCH  23  26
ATOM     26  C   UNL     1      -7.054  52.334  52.860  0.00  0.00    +0.000 A 
ATOM     27  N   UNL     1      -8.232  51.659  52.755  0.00  0.00    +0.000 NA
ATOM     28  C   UNL     1      -6.273  52.389  54.008  0.00  0.00    +0.000 A 
ATOM     29  C   UNL     1      -8.620  50.986  53.863  0.00  0.00    +0.000 A 
ATOM     30  C   UNL     1      -6.723  51.695  55.129  0.00  0.00    +0.000 A 
ATOM     31  C   UNL     1      -7.915  50.967  55.066  0.00  0.00    +0.000 A 
ATOM     32  C   UNL     1      -8.411  50.209  56.261  0.00  0.00    +0.000 C 
ENDBRANCH  23  26
ENDBRANCH   1  23
TORSDOF 6
ENDMDL
MODEL 3
REMARK VINA RESULT:      -7.0      4.559      6.569
REMARK  Name = 
REMARK  10 active torsions:
REMARK  status: ('A' for Active; 'I' for Inactive)
REMARK    1  A    between atoms: S_1  and  N_4
REMARK    2  A    between atoms: S_1  and  C_5
REMARK    3  A    between atoms: N_10  and  C_13
REMARK    4  A    between atoms: C_14  and  C_17
REMARK    5  A    between atoms: C_16  and  C_20
REMARK    6  A    between atoms: C_20  and  O_24
REMARK    7  A    between atoms: O_24  and  C_27
REMARK    8  A    between atoms: C_25  and  C_28
REMARK    9  A    between atoms: C_25  and  C_29
REMARK   10  A    between atoms: C_27  and  C_30
REMARK                            x       y       z     vdW  Elec       q    Type
REMARK                         _______ _______ _______ _____ _____    ______ ____
ROOT
ATOM      1  N   UNL     1      -6.615  55.448  53.491  0.00  0.00    +0.000 N 
ATOM      2  C   UNL     1      -7.501  55.062  52.497  0.00  0.00    +0.000 C 
ATOM      3  O   UNL     1      -7.589  53.885  52.163  0.00  0.00    +0.000 OA
ATOM      4  N   UNL     1      -8.184  56.094  51.897  0.00  0.00    +0.000 N 
ATOM      5  H   UNL     1      -6.628  56.382  53.801  0.00  0.00    +0.000 HD
ATOM      6  H   UNL     1      -8.055  57.026  52.186  0.00  0.00    +0.000 HD
ENDROOT
BRANCH   4   7
ATOM      7  C   UNL     1      -9.060  55.778  50.875  0.00  0.00    +0.000 A 
ATOM      8  S   UNL     1      -8.475  56.022  49.297  0.00  0.00    +0.000 S 
ATOM      9  C   UNL     1     -10.348  55.271  50.904  0.00  0.00    +0.000 A 
ATOM     10  C   UNL     1      -9.818  55.210  48.621  0.00  0.00    +0.000 A 
ATOM     11  C   UNL     1     -10.739  54.841  49.586  0.00  0.00    +0.000 A 
ATOM     12  C   UNL     1      -9.962  54.952  47.141  0.00  0.00    +0.000 C 
ATOM     13  C   UNL     1     -12.035  54.170  49.234  0.00  0.00    +0.000 C 
ATOM     14  C   UNL     1     -11.443  54.626  46.768  0.00  0.00    +0.000 C 
ATOM     15  C   UNL     1     -12.034  53.630  47.801  0.00  0.00    +0.000 C 
ATOM     16  C   UNL     1     -11.521  53.965  45.379  0.00  0.00    +0.000 C 
ATOM     17  C   UNL     1     -12.276  55.924  46.716  0.00  0.00    +0.000 C 
BRANCH   9  18
ATOM     18  C   UNL     1     -11.209  55.247  52.088  0.00  0.00    +0.000 C 
ATOM     19  O   UNL     1     -12.165  55.994  52.248  0.00  0.00    +0.000 OA
BRANCH  18  20
ATOM     20  O   UNL     1     -10.687  54.441  53.060  0.00  0.00    +0.000 OA
BRANCH  20  21
ATOM     21  C   UNL     1     -10.919  53.035  52.930  0.00  0.00    +0.000 C 
ATOM     22  C   UNL     1     -10.158  52.292  54.005  0.00  0.00    +0.000 C 
ENDBRANCH  20  21
ENDBRANCH  18  20
ENDBRANCH   9  18
ENDBRANCH   4   7
BRANCH   1  23
ATOM     23  S   UNL     1      -5.522  54.385  54.186  0.00  0.00    +0.000 S 
ATOM     24  O   UNL     1      -6.240  53.510  55.088  0.00  0.00    +0.000 OA
ATOM     25  O   UNL     1      -4.445  55.213  54.694  0.00  0.00    +0.000 OA
BRANCH  23  26
ATOM     26  C   UNL     1      -4.874  53.418  52.816  0.00  0.00    +0.000 A 
ATOM     27  N   UNL     1      -5.004  52.070  52.954  0.00  0.00    +0.000 NA
ATOM     28  C   UNL     1      -4.311  54.050  51.714  0.00  0.00    +0.000 A 
ATOM     29  C   UNL     1      -4.564  51.331  51.909  0.00  0.00    +0.000 A 
ATOM     30  C   UNL     1      -3.857  53.247  50.670  0.00  0.00    +0.000 A 
ATOM     31  C   UNL     1      -3.988  51.857  50.754  0.00  0.00    +0.000 A 
ATOM     32  C   UNL     1      -3.511  50.978  49.637  0.00  0.00    +0.000 C 
ENDBRANCH  23  26
ENDBRANCH   1  23
TORSDOF 6
ENDMDL
MODEL 4
REMARK VINA RESULT:      -6.9      2.849      4.626
REMARK  Name = 
REMARK  10 active torsions:
REMARK  status: ('A' for Active; 'I' for Inactive)
REMARK    1  A    between atoms: S_1  and  N_4
REMARK    2  A    between atoms: S_1  and  C_5
REMARK    3  A    between atoms: N_10  and  C_13
REMARK    4  A    between atoms: C_14  and  C_17
REMARK    5  A    between atoms: C_16  and  C_20
REMARK    6  A    between atoms: C_20  and  O_24
REMARK    7  A    between atoms: O_24  and  C_27
REMARK    8  A    between atoms: C_25  and  C_28
REMARK    9  A    between atoms: C_25  and  C_29
REMARK   10  A    between atoms: C_27  and  C_30
REMARK                            x       y       z     vdW  Elec       q    Type
REMARK                         _______ _______ _______ _____ _____    ______ ____
ROOT
ATOM      1  N   UNL     1      -8.376  52.766  48.955  0.00  0.00    +0.000 N 
ATOM      2  C   UNL     1      -9.270  53.779  49.266  0.00  0.00    +0.000 C 
ATOM      3  O   UNL     1      -8.864  54.884  49.615  0.00  0.00    +0.000 OA
ATOM      4  N   UNL     1     -10.596  53.418  49.219  0.00  0.00    +0.000 N 
ATOM      5  H   UNL     1      -8.727  51.920  48.592  0.00  0.00    +0.000 HD
ATOM      6  H   UNL     1     -10.866  52.508  48.958  0.00  0.00    +0.000 HD
ENDROOT
BRANCH   4   7
ATOM      7  C   UNL     1     -11.537  54.376  49.550  0.00  0.00    +0.000 A 
ATOM      8  S   UNL     1     -12.032  54.396  51.176  0.00  0.00    +0.000 S 
ATOM      9  C   UNL     1     -12.148  55.353  48.785  0.00  0.00    +0.000 A 
ATOM     10  C   UNL     1     -12.865  55.870  50.955  0.00  0.00    +0.000 A 
ATOM     11  C   UNL     1     -12.837  56.289  49.637  0.00  0.00    +0.000 A 
ATOM     12  C   UNL     1     -13.553  56.602  52.082  0.00  0.00    +0.000 C 
ATOM     13  C   UNL     1     -13.554  57.525  49.177  0.00  0.00    +0.000 C 
ATOM     14  C   UNL     1     -14.591  57.633  51.533  0.00  0.00    +0.000 C 
ATOM     15  C   UNL     1     -13.968  58.419  50.349  0.00  0.00    +0.000 C 
ATOM     16  C   UNL     1     -14.976  58.650  52.625  0.00  0.00    +0.000 C 
ATOM     17  C   UNL     1     -15.880  56.906  51.096  0.00  0.00    +0.000 C 
BRANCH   9  18
ATOM     18  C   UNL     1     -12.153  55.386  47.320  0.00  0.00    +0.000 C 
ATOM     19  O   UNL     1     -12.405  56.388  46.664  0.00  0.00    +0.000 OA
BRANCH  18  20
ATOM     20  O   UNL     1     -12.047  54.128  46.800  0.00  0.00    +0.000 OA
BRANCH  20  21
ATOM     21  C   UNL     1     -11.492  54.014  45.486  0.00  0.00    +0.000 C 
ATOM     22  C   UNL     1      -9.984  53.939  45.574  0.00  0.00    +0.000 C 
ENDBRANCH  20  21
ENDBRANCH  18  20
ENDBRANCH   9  18
ENDBRANCH   4   7
BRANCH   1  23
ATOM     23  S   UNL     1      -6.723  52.924  49.173  0.00  0.00    +0.000 S 
ATOM     24  O   UNL     1      -6.269  54.080  48.430  0.00  0.00    +0.000 OA
ATOM     25  O   UNL     1      -6.166  51.617  48.880  0.00  0.00    +0.000 OA
BRANCH  23  26
ATOM     26  C   UNL     1      -6.510  53.233  50.932  0.00  0.00    +0.000 A 
ATOM     27  N   UNL     1      -5.924  54.423  51.238  0.00  0.00    +0.000 NA
ATOM     28  C   UNL     1      -6.947  52.302  51.866  0.00  0.00    +0.000 A 
ATOM     29  C   UNL     1      -5.801  54.690  52.559  0.00  0.00    +0.000 A 
ATOM     30  C   UNL     1      -6.783  52.614  53.214  0.00  0.00    +0.000 A 
ATOM     31  C   UNL     1      -6.207  53.834  53.581  0.00  0.00    +0.000 A 
ATOM     32  C   UNL     1      -6.030  54.189  55.028  0.00  0.00    +0.000 C 
ENDBRANCH  23  26
ENDBRANCH   1  23
TORSDOF 6
ENDMDL
MODEL 5
REMARK VINA RESULT:      -6.7      3.543      8.084
REMARK  Name = 
REMARK  10 active torsions:
REMARK  status: ('A' for Active; 'I' for Inactive)
REMARK    1  A    between atoms: S_1  and  N_4
REMARK    2  A    between atoms: S_1  and  C_5
REMARK    3  A    between atoms: N_10  and  C_13
REMARK    4  A    between atoms: C_14  and  C_17
REMARK    5  A    between atoms: C_16  and  C_20
REMARK    6  A    between atoms: C_20  and  O_24
REMARK    7  A    between atoms: O_24  and  C_27
REMARK    8  A    between atoms: C_25  and  C_28
REMARK    9  A    between atoms: C_25  and  C_29
REMARK   10  A    between atoms: C_27  and  C_30
REMARK                            x       y       z     vdW  Elec       q    Type
REMARK                         _______ _______ _______ _____ _____    ______ ____
ROOT
ATOM      1  N   UNL     1     -11.629  56.716  49.100  0.00  0.00    +0.000 N 
ATOM      2  C   UNL     1     -10.630  55.856  49.528  0.00  0.00    +0.000 C 
ATOM      3  O   UNL     1     -10.901  54.717  49.894  0.00  0.00    +0.000 OA
ATOM      4  N   UNL     1      -9.370  56.408  49.573  0.00  0.00    +0.000 N 
ATOM      5  H   UNL     1     -11.374  57.591  48.728  0.00  0.00    +0.000 HD
ATOM      6  H   UNL     1      -9.212  57.339  49.294  0.00  0.00    +0.000 HD
ENDROOT
BRANCH   4   7
ATOM      7  C   UNL     1      -8.334  55.611  50.023  0.00  0.00    +0.000 A 
ATOM      8  S   UNL     1      -7.860  55.855  51.638  0.00  0.00    +0.000 S 
ATOM      9  C   UNL     1      -7.609  54.617  49.389  0.00  0.00    +0.000 A 
ATOM     10  C   UNL     1      -6.866  54.467  51.608  0.00  0.00    +0.000 A 
ATOM     11  C   UNL     1      -6.831  53.882  50.354  0.00  0.00    +0.000 A 
ATOM     12  C   UNL     1      -6.116  53.966  52.818  0.00  0.00    +0.000 C 
ATOM     13  C   UNL     1      -5.977  52.684  50.056  0.00  0.00    +0.000 C 
ATOM     14  C   UNL     1      -4.963  52.996  52.405  0.00  0.00    +0.000 C 
ATOM     15  C   UNL     1      -5.481  52.000  51.333  0.00  0.00    +0.000 C 
ATOM     16  C   UNL     1      -4.483  52.176  53.618  0.00  0.00    +0.000 C 
ATOM     17  C   UNL     1      -3.757  53.799  51.875  0.00  0.00    +0.000 C 
BRANCH   9  18
ATOM     18  C   UNL     1      -7.582  54.398  47.941  0.00  0.00    +0.000 C 
ATOM     19  O   UNL     1      -6.633  54.696  47.227  0.00  0.00    +0.000 OA
BRANCH  18  20
ATOM     20  O   UNL     1      -8.809  54.019  47.478  0.00  0.00    +0.000 OA
BRANCH  20  21
ATOM     21  C   UNL     1      -9.276  54.652  46.283  0.00  0.00    +0.000 C 
ATOM     22  C   UNL     1     -10.770  54.451  46.151  0.00  0.00    +0.000 C 
ENDBRANCH  20  21
ENDBRANCH  18  20
ENDBRANCH   9  18
ENDBRANCH   4   7
BRANCH   1  23
ATOM     23  S   UNL     1     -13.255  56.323  49.190  0.00  0.00    +0.000 S 
ATOM     24  O   UNL     1     -13.372  54.911  49.489  0.00  0.00    +0.000 OA
ATOM     25  O   UNL     1     -13.850  56.851  47.977  0.00  0.00    +0.000 OA
BRANCH  23  26
ATOM     26  C   UNL     1     -13.891  57.274  50.576  0.00  0.00    +0.000 A 
ATOM     27  N   UNL     1     -14.441  58.474  50.245  0.00  0.00    +0.000 NA
ATOM     28  C   UNL     1     -13.820  56.766  51.868  0.00  0.00    +0.000 A 
ATOM     29  C   UNL     1     -14.968  59.179  51.272  0.00  0.00    +0.000 A 
ATOM     30  C   UNL     1     -14.360  57.536  52.896  0.00  0.00    +0.000 A 
ATOM     31  C   UNL     1     -14.957  58.766  52.604  0.00  0.00    +0.000 A 
ATOM     32  C   UNL     1     -15.549  59.605  53.697  0.00  0.00    +0.000 C 
ENDBRANCH  23  26
ENDBRANCH   1  23
TORSDOF 6
ENDMDL
MODEL 6
REMARK VINA RESULT:      -6.6      3.521      8.789
REMARK  Name = 
REMARK  10 active torsions:
REMARK  status: ('A' for Active; 'I' for Inactive)
REMARK    1  A    between atoms: S_1  and  N_4
REMARK    2  A    between atoms: S_1  and  C_5
REMARK    3  A    between atoms: N_10  and  C_13
REMARK    4  A    between atoms: C_14  and  C_17
REMARK    5  A    between atoms: C_16  and  C_20
REMARK    6  A    between atoms: C_20  and  O_24
REMARK    7  A    between atoms: O_24  and  C_27
REMARK    8  A    between atoms: C_25  and  C_28
REMARK    9  A    between atoms: C_25  and  C_29
REMARK   10  A    between atoms: C_27  and  C_30
REMARK                            x       y       z     vdW  Elec       q    Type
REMARK                         _______ _______ _______ _____ _____    ______ ____
ROOT
ATOM      1  N   UNL     1     -11.530  56.752  49.304  0.00  0.00    +0.000 N 
ATOM      2  C   UNL     1     -10.581  55.755  49.142  0.00  0.00    +0.000 C 
ATOM      3  O   UNL     1     -10.919  54.615  48.836  0.00  0.00    +0.000 OA
ATOM      4  N   UNL     1      -9.288  56.134  49.419  0.00  0.00    +0.000 N 
ATOM      5  H   UNL     1     -11.225  57.675  49.461  0.00  0.00    +0.000 HD
ATOM      6  H   UNL     1      -9.075  57.056  49.688  0.00  0.00    +0.000 HD
ENDROOT
BRANCH   4   7
ATOM      7  C   UNL     1      -8.298  55.175  49.308  0.00  0.00    +0.000 A 
ATOM      8  S   UNL     1      -7.720  54.887  47.735  0.00  0.00    +0.000 S 
ATOM      9  C   UNL     1      -7.667  54.403  50.268  0.00  0.00    +0.000 A 
ATOM     10  C   UNL     1      -6.438  53.928  48.329  0.00  0.00    +0.000 A 
ATOM     11  C   UNL     1      -6.509  53.759  49.701  0.00  0.00    +0.000 A 
ATOM     12  C   UNL     1      -5.374  53.335  47.437  0.00  0.00    +0.000 C 
ATOM     13  C   UNL     1      -5.531  52.903  50.451  0.00  0.00    +0.000 C 
ATOM     14  C   UNL     1      -4.627  52.165  48.153  0.00  0.00    +0.000 C 
ATOM     15  C   UNL     1      -4.292  52.575  49.612  0.00  0.00    +0.000 C 
ATOM     16  C   UNL     1      -3.301  51.847  47.437  0.00  0.00    +0.000 C 
ATOM     17  C   UNL     1      -5.492  50.887  48.124  0.00  0.00    +0.000 C 
BRANCH   9  18
ATOM     18  C   UNL     1      -8.151  54.212  51.637  0.00  0.00    +0.000 C 
ATOM     19  O   UNL     1      -8.643  53.167  52.044  0.00  0.00    +0.000 OA
BRANCH  18  20
ATOM     20  O   UNL     1      -8.172  55.394  52.321  0.00  0.00    +0.000 OA
BRANCH  20  21
ATOM     21  C   UNL     1      -7.697  55.371  53.670  0.00  0.00    +0.000 C 
ATOM     22  C   UNL     1      -6.193  55.211  53.678  0.00  0.00    +0.000 C 
ENDBRANCH  20  21
ENDBRANCH  18  20
ENDBRANCH   9  18
ENDBRANCH   4   7
BRANCH   1  23
ATOM     23  S   UNL     1     -13.176  56.448  49.244  0.00  0.00    +0.000 S 
ATOM     24  O   UNL     1     -13.393  55.035  49.475  0.00  0.00    +0.000 OA
ATOM     25  O   UNL     1     -13.638  57.052  48.009  0.00  0.00    +0.000 OA
BRANCH  23  26
ATOM     26  C   UNL     1     -13.876  57.383  50.611  0.00  0.00    +0.000 A 
ATOM     27  N   UNL     1     -14.458  58.562  50.260  0.00  0.00    +0.000 NA
ATOM     28  C   UNL     1     -13.817  56.883  51.906  0.00  0.00    +0.000 A 
ATOM     29  C   UNL     1     -15.032  59.254  51.272  0.00  0.00    +0.000 A 
ATOM     30  C   UNL     1     -14.407  57.639  52.917  0.00  0.00    +0.000 A 
ATOM     31  C   UNL     1     -15.037  58.848  52.605  0.00  0.00    +0.000 A 
ATOM     32  C   UNL     1     -15.683  59.671  53.680  0.00  0.00    +0.000 C 
ENDBRANCH  23  26
ENDBRANCH   1  23
TORSDOF 6
ENDMDL
MODEL 7
REMARK VINA RESULT:      -6.5      3.482      7.272
REMARK  Name = 
REMARK  10 active torsions:
REMARK  status: ('A' for Active; 'I' for Inactive)
REMARK    1  A    between atoms: S_1  and  N_4
REMARK    2  A    between atoms: S_1  and  C_5
REMARK    3  A    between atoms: N_10  and  C_13
REMARK    4  A    between atoms: C_14  and  C_17
REMARK    5  A    between atoms: C_16  and  C_20
REMARK    6  A    between atoms: C_20  and  O_24
REMARK    7  A    between atoms: O_24  and  C_27
REMARK    8  A    between atoms: C_25  and  C_28
REMARK    9  A    between atoms: C_25  and  C_29
REMARK   10  A    between atoms: C_27  and  C_30
REMARK                            x       y       z     vdW  Elec       q    Type
REMARK                         _______ _______ _______ _____ _____    ______ ____
ROOT
ATOM      1  N   UNL     1      -8.012  56.055  50.821  0.00  0.00    +0.000 N 
ATOM      2  C   UNL     1      -8.456  55.223  49.805  0.00  0.00    +0.000 C 
ATOM      3  O   UNL     1      -8.747  54.054  50.038  0.00  0.00    +0.000 OA
ATOM      4  N   UNL     1      -8.464  55.791  48.552  0.00  0.00    +0.000 N 
ATOM      5  H   UNL     1      -7.872  57.009  50.625  0.00  0.00    +0.000 HD
ATOM      6  H   UNL     1      -8.193  56.728  48.417  0.00  0.00    +0.000 HD
ENDROOT
BRANCH   4   7
ATOM      7  C   UNL     1      -8.866  55.003  47.490  0.00  0.00    +0.000 A 
ATOM      8  S   UNL     1      -7.623  54.198  46.654  0.00  0.00    +0.000 S 
ATOM      9  C   UNL     1     -10.125  54.730  46.984  0.00  0.00    +0.000 A 
ATOM     10  C   UNL     1      -8.752  53.265  45.775  0.00  0.00    +0.000 A 
ATOM     11  C   UNL     1     -10.057  53.631  46.055  0.00  0.00    +0.000 A 
ATOM     12  C   UNL     1      -8.345  52.184  44.804  0.00  0.00    +0.000 C 
ATOM     13  C   UNL     1     -11.228  53.001  45.360  0.00  0.00    +0.000 C 
ATOM     14  C   UNL     1      -9.515  51.830  43.831  0.00  0.00    +0.000 C 
ATOM     15  C   UNL     1     -10.839  51.711  44.632  0.00  0.00    +0.000 C 
ATOM     16  C   UNL     1      -9.258  50.477  43.141  0.00  0.00    +0.000 C 
ATOM     17  C   UNL     1      -9.632  52.904  42.729  0.00  0.00    +0.000 C 
BRANCH   9  18
ATOM     18  C   UNL     1     -11.333  55.498  47.294  0.00  0.00    +0.000 C 
ATOM     19  O   UNL     1     -11.922  56.196  46.479  0.00  0.00    +0.000 OA
BRANCH  18  20
ATOM     20  O   UNL     1     -11.588  55.495  48.636  0.00  0.00    +0.000 OA
BRANCH  20  21
ATOM     21  C   UNL     1     -12.288  54.363  49.161  0.00  0.00    +0.000 C 
ATOM     22  C   UNL     1     -12.177  54.351  50.670  0.00  0.00    +0.000 C 
ENDBRANCH  20  21
ENDBRANCH  18  20
ENDBRANCH   9  18
ENDBRANCH   4   7
BRANCH   1  23
ATOM     23  S   UNL     1      -7.706  55.499  52.371  0.00  0.00    +0.000 S 
ATOM     24  O   UNL     1      -8.931  54.951  52.915  0.00  0.00    +0.000 OA
ATOM     25  O   UNL     1      -7.044  56.594  53.054  0.00  0.00    +0.000 OA
BRANCH  23  26
ATOM     26  C   UNL     1      -6.509  54.173  52.165  0.00  0.00    +0.000 A 
ATOM     27  N   UNL     1      -6.880  52.977  52.697  0.00  0.00    +0.000 NA
ATOM     28  C   UNL     1      -5.317  54.403  51.489  0.00  0.00    +0.000 A 
ATOM     29  C   UNL     1      -6.010  51.958  52.507  0.00  0.00    +0.000 A 
ATOM     30  C   UNL     1      -4.445  53.327  51.333  0.00  0.00    +0.000 A 
ATOM     31  C   UNL     1      -4.791  52.071  51.841  0.00  0.00    +0.000 A 
ATOM     32  C   UNL     1      -3.867  50.901  51.677  0.00  0.00    +0.000 C 
ENDBRANCH  23  26
ENDBRANCH   1  23
TORSDOF 6
ENDMDL
MODEL 8
REMARK VINA RESULT:      -6.4      3.529      8.037
REMARK  Name = 
REMARK  10 active torsions:
REMARK  status: ('A' for Active; 'I' for Inactive)
REMARK    1  A    between atoms: S_1  and  N_4
REMARK    2  A    between atoms: S_1  and  C_5
REMARK    3  A    between atoms: N_10  and  C_13
REMARK    4  A    between atoms: C_14  and  C_17
REMARK    5  A    between atoms: C_16  and  C_20
REMARK    6  A    between atoms: C_20  and  O_24
REMARK    7  A    between atoms: O_24  and  C_27
REMARK    8  A    between atoms: C_25  and  C_28
REMARK    9  A    between atoms: C_25  and  C_29
REMARK   10  A    between atoms: C_27  and  C_30
REMARK                            x       y       z     vdW  Elec       q    Type
REMARK                         _______ _______ _______ _____ _____    ______ ____
ROOT
ATOM      1  N   UNL     1     -13.021  55.223  49.485  0.00  0.00    +0.000 N 
ATOM      2  C   UNL     1     -11.907  55.001  50.279  0.00  0.00    +0.000 C 
ATOM      3  O   UNL     1     -11.322  55.940  50.811  0.00  0.00    +0.000 OA
ATOM      4  N   UNL     1     -11.496  53.690  50.348  0.00  0.00    +0.000 N 
ATOM      5  H   UNL     1     -13.523  54.448  49.146  0.00  0.00    +0.000 HD
ATOM      6  H   UNL     1     -11.987  52.978  49.879  0.00  0.00    +0.000 HD
ENDROOT
BRANCH   4   7
ATOM      7  C   UNL     1     -10.370  53.407  51.099  0.00  0.00    +0.000 A 
ATOM      8  S   UNL     1     -10.636  53.121  52.753  0.00  0.00    +0.000 S 
ATOM      9  C   UNL     1      -9.039  53.294  50.735  0.00  0.00    +0.000 A 
ATOM     10  C   UNL     1      -9.030  52.581  52.968  0.00  0.00    +0.000 A 
ATOM     11  C   UNL     1      -8.282  52.705  51.810  0.00  0.00    +0.000 A 
ATOM     12  C   UNL     1      -8.511  52.048  54.282  0.00  0.00    +0.000 C 
ATOM     13  C   UNL     1      -6.823  52.356  51.763  0.00  0.00    +0.000 C 
ATOM     14  C   UNL     1      -6.949  52.067  54.320  0.00  0.00    +0.000 C 
ATOM     15  C   UNL     1      -6.388  51.530  52.977  0.00  0.00    +0.000 C 
ATOM     16  C   UNL     1      -6.422  51.160  55.448  0.00  0.00    +0.000 C 
ATOM     17  C   UNL     1      -6.443  53.499  54.596  0.00  0.00    +0.000 C 
BRANCH   9  18
ATOM     18  C   UNL     1      -8.475  53.773  49.472  0.00  0.00    +0.000 C 
ATOM     19  O   UNL     1      -8.673  53.234  48.391  0.00  0.00    +0.000 OA
BRANCH  18  20
ATOM     20  O   UNL     1      -7.550  54.755  49.686  0.00  0.00    +0.000 OA
BRANCH  20  21
ATOM     21  C   UNL     1      -8.043  56.092  49.823  0.00  0.00    +0.000 C 
ATOM     22  C   UNL     1      -7.609  56.660  51.156  0.00  0.00    +0.000 C 
ENDBRANCH  20  21
ENDBRANCH  18  20
ENDBRANCH   9  18
ENDBRANCH   4   7
BRANCH   1  23
ATOM     23  S   UNL     1     -13.547  56.762  49.081  0.00  0.00    +0.000 S 
ATOM     24  O   UNL     1     -14.616  56.644  48.113  0.00  0.00    +0.000 OA
ATOM     25  O   UNL     1     -12.348  57.505  48.741  0.00  0.00    +0.000 OA
BRANCH  23  26
ATOM     26  C   UNL     1     -14.206  57.448  50.607  0.00  0.00    +0.000 A 
ATOM     27  N   UNL     1     -13.966  58.775  50.790  0.00  0.00    +0.000 NA
ATOM     28  C   UNL     1     -14.917  56.643  51.489  0.00  0.00    +0.000 A 
ATOM     29  C   UNL     1     -14.498  59.316  51.911  0.00  0.00    +0.000 A 
ATOM     30  C   UNL     1     -15.431  57.240  52.638  0.00  0.00    +0.000 A 
ATOM     31  C   UNL     1     -15.231  58.606  52.861  0.00  0.00    +0.000 A 
ATOM     32  C   UNL     1     -15.782  59.267  54.089  0.00  0.00    +0.000 C 
ENDBRANCH  23  26
ENDBRANCH   1  23
TORSDOF 6
ENDMDL
MODEL 9
REMARK VINA RESULT:      -6.3      3.898      7.481
REMARK  Name = 
REMARK  10 active torsions:
REMARK  status: ('A' for Active; 'I' for Inactive)
REMARK    1  A    between atoms: S_1  and  N_4
REMARK    2  A    between atoms: S_1  and  C_5
REMARK    3  A    between atoms: N_10  and  C_13
REMARK    4  A    between atoms: C_14  and  C_17
REMARK    5  A    between atoms: C_16  and  C_20
REMARK    6  A    between atoms: C_20  and  O_24
REMARK    7  A    between atoms: O_24  and  C_27
REMARK    8  A    between atoms: C_25  and  C_28
REMARK    9  A    between atoms: C_25  and  C_29
REMARK   10  A    between atoms: C_27  and  C_30
REMARK                            x       y       z     vdW  Elec       q    Type
REMARK                         _______ _______ _______ _____ _____    ______ ____
ROOT
ATOM      1  N   UNL     1     -10.695  53.662  47.989  0.00  0.00    +0.000 N 
ATOM      2  C   UNL     1      -9.769  53.873  48.999  0.00  0.00    +0.000 C 
ATOM      3  O   UNL     1      -9.440  55.012  49.315  0.00  0.00    +0.000 OA
ATOM      4  N   UNL     1      -9.225  52.729  49.535  0.00  0.00    +0.000 N 
ATOM      5  H   UNL     1     -11.008  52.745  47.817  0.00  0.00    +0.000 HD
ATOM      6  H   UNL     1      -9.507  51.839  49.225  0.00  0.00    +0.000 HD
ENDROOT
BRANCH   4   7
ATOM      7  C   UNL     1      -8.271  52.873  50.526  0.00  0.00    +0.000 A 
ATOM      8  S   UNL     1      -6.721  53.334  49.999  0.00  0.00    +0.000 S 
ATOM      9  C   UNL     1      -8.356  52.724  51.899  0.00  0.00    +0.000 A 
ATOM     10  C   UNL     1      -6.203  53.603  51.604  0.00  0.00    +0.000 A 
ATOM     11  C   UNL     1      -7.174  53.258  52.527  0.00  0.00    +0.000 A 
ATOM     12  C   UNL     1      -4.835  54.143  51.946  0.00  0.00    +0.000 C 
ATOM     13  C   UNL     1      -6.935  53.345  54.007  0.00  0.00    +0.000 C 
ATOM     14  C   UNL     1      -4.474  53.857  53.439  0.00  0.00    +0.000 C 
ATOM     15  C   UNL     1      -5.694  54.179  54.341  0.00  0.00    +0.000 C 
ATOM     16  C   UNL     1      -3.302  54.747  53.894  0.00  0.00    +0.000 C 
ATOM     17  C   UNL     1      -4.036  52.386  53.606  0.00  0.00    +0.000 C 
BRANCH   9  18
ATOM     18  C   UNL     1      -9.453  52.054  52.600  0.00  0.00    +0.000 C 
ATOM     19  O   UNL     1      -9.716  50.865  52.471  0.00  0.00    +0.000 OA
BRANCH  18  20
ATOM     20  O   UNL     1     -10.253  52.957  53.240  0.00  0.00    +0.000 OA
BRANCH  20  21
ATOM     21  C   UNL     1     -11.240  53.625  52.448  0.00  0.00    +0.000 C 
ATOM     22  C   UNL     1     -10.997  55.118  52.486  0.00  0.00    +0.000 C 
ENDBRANCH  20  21
ENDBRANCH  18  20
ENDBRANCH   9  18
ENDBRANCH   4   7
BRANCH   1  23
ATOM     23  S   UNL     1     -11.302  54.908  47.048  0.00  0.00    +0.000 S 
ATOM     24  O   UNL     1     -11.966  54.336  45.896  0.00  0.00    +0.000 OA
ATOM     25  O   UNL     1     -10.194  55.825  46.857  0.00  0.00    +0.000 OA
BRANCH  23  26
ATOM     26  C   UNL     1     -12.522  55.727  48.085  0.00  0.00    +0.000 A 
ATOM     27  N   UNL     1     -12.849  55.057  49.224  0.00  0.00    +0.000 NA
ATOM     28  C   UNL     1     -13.044  56.959  47.715  0.00  0.00    +0.000 A 
ATOM     29  C   UNL     1     -13.730  55.683  50.038  0.00  0.00    +0.000 A 
ATOM     30  C   UNL     1     -13.961  57.558  48.577  0.00  0.00    +0.000 A 
ATOM     31  C   UNL     1     -14.313  56.920  49.771  0.00  0.00    +0.000 A 
ATOM     32  C   UNL     1     -15.293  57.553  50.713  0.00  0.00    +0.000 C 
ENDBRANCH  23  26
ENDBRANCH   1  23
TORSDOF 6
ENDMDL
