MODEL 1
REMARK VINA RESULT:      -7.8      0.000      0.000
REMARK  Name = 
REMARK  9 active torsions:
REMARK  status: ('A' for Active; 'I' for Inactive)
REMARK    1  A    between atoms: S_1  and  N_4
REMARK    2  A    between atoms: S_1  and  C_5
REMARK    3  A    between atoms: N_10  and  C_13
REMARK    4  A    between atoms: C_16  and  C_19
REMARK    5  A    between atoms: C_19  and  O_23
REMARK    6  A    between atoms: O_23  and  C_26
REMARK    7  A    between atoms: C_24  and  C_27
REMARK    8  A    between atoms: C_24  and  C_28
REMARK    9  A    between atoms: C_26  and  C_29
REMARK                            x       y       z     vdW  Elec       q    Type
REMARK                         _______ _______ _______ _____ _____    ______ ____
ROOT
ATOM      1  C   UNL     1     -10.915  54.489  51.463  0.00  0.00    +0.000 A 
ATOM      2  S   UNL     1     -10.554  53.710  52.929  0.00  0.00    +0.000 S 
ATOM      3  C   UNL     1      -9.818  55.094  50.869  0.00  0.00    +0.000 A 
ATOM      4  C   UNL     1      -8.880  53.900  52.667  0.00  0.00    +0.000 A 
ATOM      5  C   UNL     1      -8.610  54.646  51.531  0.00  0.00    +0.000 A 
ATOM      6  C   UNL     1      -7.844  53.311  53.589  0.00  0.00    +0.000 C 
ATOM      7  C   UNL     1      -7.205  54.984  51.122  0.00  0.00    +0.000 C 
ATOM      8  C   UNL     1      -6.457  53.992  53.384  0.00  0.00    +0.000 C 
ATOM      9  C   UNL     1      -6.168  54.132  51.865  0.00  0.00    +0.000 C 
ATOM     10  C   UNL     1      -5.344  53.129  54.008  0.00  0.00    +0.000 C 
ATOM     11  C   UNL     1      -6.433  55.369  54.078  0.00  0.00    +0.000 C 
ENDROOT
BRANCH   1  15
ATOM     12  N   UNL     1     -14.410  55.224  51.078  0.00  0.00    +0.000 N 
ATOM     13  C   UNL     1     -13.092  55.401  51.468  0.00  0.00    +0.000 C 
ATOM     14  O   UNL     1     -12.738  56.406  52.069  0.00  0.00    +0.000 OA
ATOM     15  N   UNL     1     -12.237  54.399  51.066  0.00  0.00    +0.000 N 
ATOM     16  H   UNL     1     -14.680  54.374  50.660  0.00  0.00    +0.000 HD
ATOM     17  H   UNL     1     -12.555  53.646  50.517  0.00  0.00    +0.000 HD
BRANCH  12  18
ATOM     18  S   UNL     1     -15.557  56.433  51.302  0.00  0.00    +0.000 S 
ATOM     19  O   UNL     1     -15.671  56.681  52.726  0.00  0.00    +0.000 OA
ATOM     20  O   UNL     1     -16.722  55.986  50.554  0.00  0.00    +0.000 OA
BRANCH  18  21
ATOM     21  C   UNL     1     -14.863  57.868  50.450  0.00  0.00    +0.000 A 
ATOM     22  N   UNL     1     -15.015  59.052  51.093  0.00  0.00    +0.000 NA
ATOM     23  N   UNL     1     -14.290  57.655  49.248  0.00  0.00    +0.000 NA
ATOM     24  C   UNL     1     -14.502  60.109  50.437  0.00  0.00    +0.000 A 
ATOM     25  C   UNL     1     -13.841  58.764  48.636  0.00  0.00    +0.000 A 
ATOM     26  C   UNL     1     -13.910  60.023  49.193  0.00  0.00    +0.000 A 
ENDBRANCH  18  21
ENDBRANCH  12  18
ENDBRANCH   1  15
BRANCH   3  27
ATOM     27  C   UNL     1      -9.877  56.074  49.775  0.00  0.00    +0.000 C 
ATOM     28  O   UNL     1      -9.168  57.073  49.719  0.00  0.00    +0.000 OA
BRANCH  27  29
ATOM     29  O   UNL     1     -10.916  55.833  48.920  0.00  0.00    +0.000 OA
BRANCH  29  30
ATOM     30  C   UNL     1     -10.610  55.356  47.604  0.00  0.00    +0.000 C 
ATOM     31  C   UNL     1     -11.751  55.624  46.651  0.00  0.00    +0.000 C 
ENDBRANCH  29  30
ENDBRANCH  27  29
ENDBRANCH   3  27
TORSDOF 6
ENDMDL
MODEL 2
REMARK VINA RESULT:      -7.7      3.104      7.660
REMARK  Name = 
REMARK  9 active torsions:
REMARK  status: ('A' for Active; 'I' for Inactive)
REMARK    1  A    between atoms: S_1  and  N_4
REMARK    2  A    between atoms: S_1  and  C_5
REMARK    3  A    between atoms: N_10  and  C_13
REMARK    4  A    between atoms: C_16  and  C_19
REMARK    5  A    between atoms: C_19  and  O_23
REMARK    6  A    between atoms: O_23  and  C_26
REMARK    7  A    between atoms: C_24  and  C_27
REMARK    8  A    between atoms: C_24  and  C_28
REMARK    9  A    between atoms: C_26  and  C_29
REMARK                            x       y       z     vdW  Elec       q    Type
REMARK                         _______ _______ _______ _____ _____    ______ ____
ROOT
ATOM      1  C   UNL     1     -11.030  54.812  50.089  0.00  0.00    +0.000 A 
ATOM      2  S   UNL     1     -11.729  54.796  51.637  0.00  0.00    +0.000 S 
ATOM      3  C   UNL     1     -11.637  55.697  49.213  0.00  0.00    +0.000 A 
ATOM      4  C   UNL     1     -12.665  56.175  51.276  0.00  0.00    +0.000 A 
ATOM      5  C   UNL     1     -12.524  56.570  49.955  0.00  0.00    +0.000 A 
ATOM      6  C   UNL     1     -13.534  56.856  52.301  0.00  0.00    +0.000 C 
ATOM      7  C   UNL     1     -13.288  57.734  49.393  0.00  0.00    +0.000 C 
ATOM      8  C   UNL     1     -14.590  57.777  51.620  0.00  0.00    +0.000 C 
ATOM      9  C   UNL     1     -13.910  58.602  50.494  0.00  0.00    +0.000 C 
ATOM     10  C   UNL     1     -15.180  58.761  52.648  0.00  0.00    +0.000 C 
ATOM     11  C   UNL     1     -15.750  56.930  51.057  0.00  0.00    +0.000 C 
ENDROOT
BRANCH   1  15
ATOM     12  N   UNL     1      -7.666  53.556  49.987  0.00  0.00    +0.000 N 
ATOM     13  C   UNL     1      -8.701  54.450  50.216  0.00  0.00    +0.000 C 
ATOM     14  O   UNL     1      -8.491  55.556  50.691  0.00  0.00    +0.000 OA
ATOM     15  N   UNL     1      -9.955  53.956  49.928  0.00  0.00    +0.000 N 
ATOM     16  H   UNL     1      -7.856  52.702  49.538  0.00  0.00    +0.000 HD
ATOM     17  H   UNL     1     -10.081  53.030  49.620  0.00  0.00    +0.000 HD
BRANCH  12  18
ATOM     18  S   UNL     1      -6.092  53.905  50.465  0.00  0.00    +0.000 S 
ATOM     19  O   UNL     1      -5.763  55.233  49.985  0.00  0.00    +0.000 OA
ATOM     20  O   UNL     1      -5.306  52.765  50.021  0.00  0.00    +0.000 OA
BRANCH  18  21
ATOM     21  C   UNL     1      -6.156  53.869  52.271  0.00  0.00    +0.000 A 
ATOM     22  N   UNL     1      -5.432  54.831  52.895  0.00  0.00    +0.000 NA
ATOM     23  N   UNL     1      -6.880  52.886  52.844  0.00  0.00    +0.000 NA
ATOM     24  C   UNL     1      -5.484  54.780  54.238  0.00  0.00    +0.000 A 
ATOM     25  C   UNL     1      -6.847  52.875  54.187  0.00  0.00    +0.000 A 
ATOM     26  C   UNL     1      -6.172  53.811  54.941  0.00  0.00    +0.000 A 
ENDBRANCH  18  21
ENDBRANCH  12  18
ENDBRANCH   1  15
BRANCH   3  27
ATOM     27  C   UNL     1     -11.451  55.713  47.755  0.00  0.00    +0.000 C 
ATOM     28  O   UNL     1     -12.373  55.634  46.950  0.00  0.00    +0.000 OA
BRANCH  27  29
ATOM     29  O   UNL     1     -10.130  55.663  47.403  0.00  0.00    +0.000 OA
BRANCH  29  30
ATOM     30  C   UNL     1      -9.728  54.694  46.426  0.00  0.00    +0.000 C 
ATOM     31  C   UNL     1      -8.299  54.920  45.993  0.00  0.00    +0.000 C 
ENDBRANCH  29  30
ENDBRANCH  27  29
ENDBRANCH   3  27
TORSDOF 6
ENDMDL
MODEL 3
REMARK VINA RESULT:      -7.1      3.966      7.520
REMARK  Name = 
REMARK  9 active torsions:
REMARK  status: ('A' for Active; 'I' for Inactive)
REMARK    1  A    between atoms: S_1  and  N_4
REMARK    2  A    between atoms: S_1  and  C_5
REMARK    3  A    between atoms: N_10  and  C_13
REMARK    4  A    between atoms: C_16  and  C_19
REMARK    5  A    between atoms: C_19  and  O_23
REMARK    6  A    between atoms: O_23  and  C_26
REMARK    7  A    between atoms: C_24  and  C_27
REMARK    8  A    between atoms: C_24  and  C_28
REMARK    9  A    between atoms: C_26  and  C_29
REMARK                            x       y       z     vdW  Elec       q    Type
REMARK                         _______ _______ _______ _____ _____    ______ ____
ROOT
ATOM      1  C   UNL     1      -8.695  54.982  47.196  0.00  0.00    +0.000 A 
ATOM      2  S   UNL     1      -7.480  54.234  46.274  0.00  0.00    +0.000 S 
ATOM      3  C   UNL     1      -9.980  54.685  46.770  0.00  0.00    +0.000 A 
ATOM      4  C   UNL     1      -8.628  53.261  45.472  0.00  0.00    +0.000 A 
ATOM      5  C   UNL     1      -9.927  53.586  45.827  0.00  0.00    +0.000 A 
ATOM      6  C   UNL     1      -8.235  52.184  44.495  0.00  0.00    +0.000 C 
ATOM      7  C   UNL     1     -11.111  52.894  45.214  0.00  0.00    +0.000 C 
ATOM      8  C   UNL     1      -9.441  51.772  43.598  0.00  0.00    +0.000 C 
ATOM      9  C   UNL     1     -10.710  51.610  44.478  0.00  0.00    +0.000 C 
ATOM     10  C   UNL     1      -9.156  50.423  42.911  0.00  0.00    +0.000 C 
ATOM     11  C   UNL     1      -9.668  52.826  42.495  0.00  0.00    +0.000 C 
ENDROOT
BRANCH   1  15
ATOM     12  N   UNL     1      -7.659  56.009  50.479  0.00  0.00    +0.000 N 
ATOM     13  C   UNL     1      -8.076  55.158  49.467  0.00  0.00    +0.000 C 
ATOM     14  O   UNL     1      -8.227  53.962  49.667  0.00  0.00    +0.000 OA
ATOM     15  N   UNL     1      -8.234  55.764  48.240  0.00  0.00    +0.000 N 
ATOM     16  H   UNL     1      -7.616  56.977  50.308  0.00  0.00    +0.000 HD
ATOM     17  H   UNL     1      -8.027  56.718  48.111  0.00  0.00    +0.000 HD
BRANCH  12  18
ATOM     18  S   UNL     1      -7.221  55.418  51.991  0.00  0.00    +0.000 S 
ATOM     19  O   UNL     1      -7.021  56.552  52.872  0.00  0.00    +0.000 OA
ATOM     20  O   UNL     1      -6.119  54.506  51.731  0.00  0.00    +0.000 OA
BRANCH  18  21
ATOM     21  C   UNL     1      -8.646  54.437  52.515  0.00  0.00    +0.000 A 
ATOM     22  N   UNL     1      -8.354  53.202  52.994  0.00  0.00    +0.000 NA
ATOM     23  N   UNL     1      -9.867  54.989  52.359  0.00  0.00    +0.000 NA
ATOM     24  C   UNL     1      -9.429  52.485  53.367  0.00  0.00    +0.000 A 
ATOM     25  C   UNL     1     -10.891  54.195  52.713  0.00  0.00    +0.000 A 
ATOM     26  C   UNL     1     -10.729  52.931  53.238  0.00  0.00    +0.000 A 
ENDBRANCH  18  21
ENDBRANCH  12  18
ENDBRANCH   1  15
BRANCH   3  27
ATOM     27  C   UNL     1     -11.197  55.404  47.173  0.00  0.00    +0.000 C 
ATOM     28  O   UNL     1     -11.920  56.009  46.389  0.00  0.00    +0.000 OA
BRANCH  27  29
ATOM     29  O   UNL     1     -11.340  55.457  48.531  0.00  0.00    +0.000 OA
BRANCH  29  30
ATOM     30  C   UNL     1     -12.409  54.712  49.128  0.00  0.00    +0.000 C 
ATOM     31  C   UNL     1     -12.059  53.246  49.227  0.00  0.00    +0.000 C 
ENDBRANCH  29  30
ENDBRANCH  27  29
ENDBRANCH   3  27
TORSDOF 6
ENDMDL
MODEL 4
REMARK VINA RESULT:      -7.0      3.642      6.035
REMARK  Name = 
REMARK  9 active torsions:
REMARK  status: ('A' for Active; 'I' for Inactive)
REMARK    1  A    between atoms: S_1  and  N_4
REMARK    2  A    between atoms: S_1  and  C_5
REMARK    3  A    between atoms: N_10  and  C_13
REMARK    4  A    between atoms: C_16  and  C_19
REMARK    5  A    between atoms: C_19  and  O_23
REMARK    6  A    between atoms: O_23  and  C_26
REMARK    7  A    between atoms: C_24  and  C_27
REMARK    8  A    between atoms: C_24  and  C_28
REMARK    9  A    between atoms: C_26  and  C_29
REMARK                            x       y       z     vdW  Elec       q    Type
REMARK                         _______ _______ _______ _____ _____    ______ ____
ROOT
ATOM      1  C   UNL     1     -10.915  53.590  47.560  0.00  0.00    +0.000 A 
ATOM      2  S   UNL     1     -11.788  52.391  46.731  0.00  0.00    +0.000 S 
ATOM      3  C   UNL     1      -9.634  53.786  47.070  0.00  0.00    +0.000 A 
ATOM      4  C   UNL     1     -10.598  52.307  45.513  0.00  0.00    +0.000 A 
ATOM      5  C   UNL     1      -9.501  53.104  45.799  0.00  0.00    +0.000 A 
ATOM      6  C   UNL     1     -10.757  51.452  44.283  0.00  0.00    +0.000 C 
ATOM      7  C   UNL     1      -8.305  53.157  44.892  0.00  0.00    +0.000 C 
ATOM      8  C   UNL     1      -9.385  51.212  43.584  0.00  0.00    +0.000 C 
ATOM      9  C   UNL     1      -8.597  52.549  43.514  0.00  0.00    +0.000 C 
ATOM     10  C   UNL     1      -9.602  50.707  42.145  0.00  0.00    +0.000 C 
ATOM     11  C   UNL     1      -8.580  50.139  44.345  0.00  0.00    +0.000 C 
ENDROOT
BRANCH   1  15
ATOM     12  N   UNL     1     -12.789  56.023  49.425  0.00  0.00    +0.000 N 
ATOM     13  C   UNL     1     -12.153  55.444  48.338  0.00  0.00    +0.000 C 
ATOM     14  O   UNL     1     -12.146  55.988  47.243  0.00  0.00    +0.000 OA
ATOM     15  N   UNL     1     -11.606  54.205  48.590  0.00  0.00    +0.000 N 
ATOM     16  H   UNL     1     -12.716  55.598  50.309  0.00  0.00    +0.000 HD
ATOM     17  H   UNL     1     -11.704  53.772  49.469  0.00  0.00    +0.000 HD
BRANCH  12  18
ATOM     18  S   UNL     1     -13.683  57.437  49.260  0.00  0.00    +0.000 S 
ATOM     19  O   UNL     1     -14.738  57.188  48.298  0.00  0.00    +0.000 OA
ATOM     20  O   UNL     1     -12.699  58.474  48.996  0.00  0.00    +0.000 OA
BRANCH  18  21
ATOM     21  C   UNL     1     -14.369  57.725  50.909  0.00  0.00    +0.000 A 
ATOM     22  N   UNL     1     -15.015  56.666  51.458  0.00  0.00    +0.000 NA
ATOM     23  N   UNL     1     -14.215  58.956  51.435  0.00  0.00    +0.000 NA
ATOM     24  C   UNL     1     -15.527  56.905  52.679  0.00  0.00    +0.000 A 
ATOM     25  C   UNL     1     -14.791  59.128  52.636  0.00  0.00    +0.000 A 
ATOM     26  C   UNL     1     -15.453  58.128  53.315  0.00  0.00    +0.000 A 
ENDBRANCH  18  21
ENDBRANCH  12  18
ENDBRANCH   1  15
BRANCH   3  27
ATOM     27  C   UNL     1      -8.565  54.525  47.756  0.00  0.00    +0.000 C 
ATOM     28  O   UNL     1      -8.569  55.742  47.909  0.00  0.00    +0.000 OA
BRANCH  27  29
ATOM     29  O   UNL     1      -7.497  53.727  48.058  0.00  0.00    +0.000 OA
BRANCH  29  30
ATOM     30  C   UNL     1      -6.182  54.286  47.945  0.00  0.00    +0.000 C 
ATOM     31  C   UNL     1      -5.705  54.825  49.273  0.00  0.00    +0.000 C 
ENDBRANCH  29  30
ENDBRANCH  27  29
ENDBRANCH   3  27
TORSDOF 6
ENDMDL
MODEL 5
REMARK VINA RESULT:      -6.9      4.133      8.135
REMARK  Name = 
REMARK  9 active torsions:
REMARK  status: ('A' for Active; 'I' for Inactive)
REMARK    1  A    between atoms: S_1  and  N_4
REMARK    2  A    between atoms: S_1  and  C_5
REMARK    3  A    between atoms: N_10  and  C_13
REMARK    4  A    between atoms: C_16  and  C_19
REMARK    5  A    between atoms: C_19  and  O_23
REMARK    6  A    between atoms: O_23  and  C_26
REMARK    7  A    between atoms: C_24  and  C_27
REMARK    8  A    between atoms: C_24  and  C_28
REMARK    9  A    between atoms: C_26  and  C_29
REMARK                            x       y       z     vdW  Elec       q    Type
REMARK                         _______ _______ _______ _____ _____    ______ ____
ROOT
ATOM      1  C   UNL     1      -8.740  54.948  47.233  0.00  0.00    +0.000 A 
ATOM      2  S   UNL     1      -7.519  54.168  46.347  0.00  0.00    +0.000 S 
ATOM      3  C   UNL     1     -10.019  54.686  46.767  0.00  0.00    +0.000 A 
ATOM      4  C   UNL     1      -8.667  53.229  45.507  0.00  0.00    +0.000 A 
ATOM      5  C   UNL     1      -9.968  53.589  45.823  0.00  0.00    +0.000 A 
ATOM      6  C   UNL     1      -8.274  52.143  44.539  0.00  0.00    +0.000 C 
ATOM      7  C   UNL     1     -11.150  52.931  45.171  0.00  0.00    +0.000 C 
ATOM      8  C   UNL     1      -9.463  51.767  43.604  0.00  0.00    +0.000 C 
ATOM      9  C   UNL     1     -10.763  51.637  44.444  0.00  0.00    +0.000 C 
ATOM     10  C   UNL     1      -9.195  50.412  42.922  0.00  0.00    +0.000 C 
ATOM     11  C   UNL     1      -9.627  52.829  42.498  0.00  0.00    +0.000 C 
ENDROOT
BRANCH   1  15
ATOM     12  N   UNL     1      -7.870  55.971  50.565  0.00  0.00    +0.000 N 
ATOM     13  C   UNL     1      -8.286  55.133  49.542  0.00  0.00    +0.000 C 
ATOM     14  O   UNL     1      -8.563  53.962  49.755  0.00  0.00    +0.000 OA
ATOM     15  N   UNL     1      -8.291  55.715  48.293  0.00  0.00    +0.000 N 
ATOM     16  H   UNL     1      -7.723  56.926  50.377  0.00  0.00    +0.000 HD
ATOM     17  H   UNL     1      -7.985  56.641  48.159  0.00  0.00    +0.000 HD
BRANCH  12  18
ATOM     18  S   UNL     1      -7.608  55.388  52.120  0.00  0.00    +0.000 S 
ATOM     19  O   UNL     1      -8.843  54.785  52.583  0.00  0.00    +0.000 OA
ATOM     20  O   UNL     1      -7.037  56.508  52.849  0.00  0.00    +0.000 OA
BRANCH  18  21
ATOM     21  C   UNL     1      -6.318  54.138  51.915  0.00  0.00    +0.000 A 
ATOM     22  N   UNL     1      -6.603  52.921  52.441  0.00  0.00    +0.000 NA
ATOM     23  N   UNL     1      -5.182  54.519  51.297  0.00  0.00    +0.000 NA
ATOM     24  C   UNL     1      -5.626  52.009  52.288  0.00  0.00    +0.000 A 
ATOM     25  C   UNL     1      -4.237  53.566  51.222  0.00  0.00    +0.000 A 
ATOM     26  C   UNL     1      -4.410  52.282  51.692  0.00  0.00    +0.000 A 
ENDBRANCH  18  21
ENDBRANCH  12  18
ENDBRANCH   1  15
BRANCH   3  27
ATOM     27  C   UNL     1     -11.228  55.438  47.134  0.00  0.00    +0.000 C 
ATOM     28  O   UNL     1     -11.907  56.068  46.331  0.00  0.00    +0.000 OA
BRANCH  27  29
ATOM     29  O   UNL     1     -11.413  55.489  48.488  0.00  0.00    +0.000 OA
BRANCH  29  30
ATOM     30  C   UNL     1     -12.498  54.739  49.050  0.00  0.00    +0.000 C 
ATOM     31  C   UNL     1     -12.148  53.274  49.155  0.00  0.00    +0.000 C 
ENDBRANCH  29  30
ENDBRANCH  27  29
ENDBRANCH   3  27
TORSDOF 6
ENDMDL
MODEL 6
REMARK VINA RESULT:      -6.8      2.405      3.028
REMARK  Name = 
REMARK  9 active torsions:
REMARK  status: ('A' for Active; 'I' for Inactive)
REMARK    1  A    between atoms: S_1  and  N_4
REMARK    2  A    between atoms: S_1  and  C_5
REMARK    3  A    between atoms: N_10  and  C_13
REMARK    4  A    between atoms: C_16  and  C_19
REMARK    5  A    between atoms: C_19  and  O_23
REMARK    6  A    between atoms: O_23  and  C_26
REMARK    7  A    between atoms: C_24  and  C_27
REMARK    8  A    between atoms: C_24  and  C_28
REMARK    9  A    between atoms: C_26  and  C_29
REMARK                            x       y       z     vdW  Elec       q    Type
REMARK                         _______ _______ _______ _____ _____    ______ ____
ROOT
ATOM      1  C   UNL     1      -8.466  55.710  49.823  0.00  0.00    +0.000 A 
ATOM      2  S   UNL     1      -7.943  56.070  51.398  0.00  0.00    +0.000 S 
ATOM      3  C   UNL     1      -7.764  54.675  49.226  0.00  0.00    +0.000 A 
ATOM      4  C   UNL     1      -6.972  54.670  51.443  0.00  0.00    +0.000 A 
ATOM      5  C   UNL     1      -6.964  54.001  50.229  0.00  0.00    +0.000 A 
ATOM      6  C   UNL     1      -6.222  54.243  52.678  0.00  0.00    +0.000 C 
ATOM      7  C   UNL     1      -6.141  52.763  50.014  0.00  0.00    +0.000 C 
ATOM      8  C   UNL     1      -5.095  53.225  52.327  0.00  0.00    +0.000 C 
ATOM      9  C   UNL     1      -5.644  52.164  51.335  0.00  0.00    +0.000 C 
ATOM     10  C   UNL     1      -4.622  52.496  53.599  0.00  0.00    +0.000 C 
ATOM     11  C   UNL     1      -3.881  53.963  51.726  0.00  0.00    +0.000 C 
ENDROOT
BRANCH   1  15
ATOM     12  N   UNL     1     -11.791  56.778  48.980  0.00  0.00    +0.000 N 
ATOM     13  C   UNL     1     -10.789  55.972  49.500  0.00  0.00    +0.000 C 
ATOM     14  O   UNL     1     -11.051  54.925  50.074  0.00  0.00    +0.000 OA
ATOM     15  N   UNL     1      -9.518  56.485  49.367  0.00  0.00    +0.000 N 
ATOM     16  H   UNL     1     -11.546  57.577  48.460  0.00  0.00    +0.000 HD
ATOM     17  H   UNL     1      -9.363  57.370  48.964  0.00  0.00    +0.000 HD
BRANCH  12  18
ATOM     18  S   UNL     1     -13.415  56.417  49.223  0.00  0.00    +0.000 S 
ATOM     19  O   UNL     1     -13.516  55.005  49.535  0.00  0.00    +0.000 OA
ATOM     20  O   UNL     1     -14.094  56.945  48.051  0.00  0.00    +0.000 OA
BRANCH  18  21
ATOM     21  C   UNL     1     -13.887  57.428  50.646  0.00  0.00    +0.000 A 
ATOM     22  N   UNL     1     -13.676  56.855  51.857  0.00  0.00    +0.000 NA
ATOM     23  N   UNL     1     -14.434  58.634  50.392  0.00  0.00    +0.000 NA
ATOM     24  C   UNL     1     -14.045  57.619  52.901  0.00  0.00    +0.000 A 
ATOM     25  C   UNL     1     -14.816  59.317  51.484  0.00  0.00    +0.000 A 
ATOM     26  C   UNL     1     -14.634  58.861  52.771  0.00  0.00    +0.000 A 
ENDBRANCH  18  21
ENDBRANCH  12  18
ENDBRANCH   1  15
BRANCH   3  27
ATOM     27  C   UNL     1      -7.787  54.346  47.794  0.00  0.00    +0.000 C 
ATOM     28  O   UNL     1      -6.862  54.588  47.025  0.00  0.00    +0.000 OA
BRANCH  27  29
ATOM     29  O   UNL     1      -9.011  53.893  47.388  0.00  0.00    +0.000 OA
BRANCH  29  30
ATOM     30  C   UNL     1      -9.626  54.526  46.258  0.00  0.00    +0.000 C 
ATOM     31  C   UNL     1      -9.753  53.565  45.100  0.00  0.00    +0.000 C 
ENDBRANCH  29  30
ENDBRANCH  27  29
ENDBRANCH   3  27
TORSDOF 6
ENDMDL
MODEL 7
REMARK VINA RESULT:      -6.8      2.434      3.077
REMARK  Name = 
REMARK  9 active torsions:
REMARK  status: ('A' for Active; 'I' for Inactive)
REMARK    1  A    between atoms: S_1  and  N_4
REMARK    2  A    between atoms: S_1  and  C_5
REMARK    3  A    between atoms: N_10  and  C_13
REMARK    4  A    between atoms: C_16  and  C_19
REMARK    5  A    between atoms: C_19  and  O_23
REMARK    6  A    between atoms: O_23  and  C_26
REMARK    7  A    between atoms: C_24  and  C_27
REMARK    8  A    between atoms: C_24  and  C_28
REMARK    9  A    between atoms: C_26  and  C_29
REMARK                            x       y       z     vdW  Elec       q    Type
REMARK                         _______ _______ _______ _____ _____    ______ ____
ROOT
ATOM      1  C   UNL     1      -9.944  54.994  50.763  0.00  0.00    +0.000 A 
ATOM      2  S   UNL     1     -10.075  54.950  52.456  0.00  0.00    +0.000 S 
ATOM      3  C   UNL     1      -9.342  53.869  50.222  0.00  0.00    +0.000 A 
ATOM      4  C   UNL     1      -9.607  53.311  52.494  0.00  0.00    +0.000 A 
ATOM      5  C   UNL     1      -9.250  52.842  51.240  0.00  0.00    +0.000 A 
ATOM      6  C   UNL     1      -9.594  52.501  53.764  0.00  0.00    +0.000 C 
ATOM      7  C   UNL     1      -8.758  51.438  51.032  0.00  0.00    +0.000 C 
ATOM      8  C   UNL     1      -8.725  51.218  53.603  0.00  0.00    +0.000 C 
ATOM      9  C   UNL     1      -9.045  50.541  52.242  0.00  0.00    +0.000 C 
ATOM     10  C   UNL     1      -9.045  50.214  54.726  0.00  0.00    +0.000 C 
ATOM     11  C   UNL     1      -7.227  51.574  53.700  0.00  0.00    +0.000 C 
ENDROOT
BRANCH   1  15
ATOM     12  N   UNL     1     -12.267  57.302  49.286  0.00  0.00    +0.000 N 
ATOM     13  C   UNL     1     -11.820  56.156  49.926  0.00  0.00    +0.000 C 
ATOM     14  O   UNL     1     -12.600  55.285  50.285  0.00  0.00    +0.000 OA
ATOM     15  N   UNL     1     -10.465  56.130  50.169  0.00  0.00    +0.000 N 
ATOM     16  H   UNL     1     -11.611  57.951  48.944  0.00  0.00    +0.000 HD
ATOM     17  H   UNL     1      -9.887  56.891  49.929  0.00  0.00    +0.000 HD
BRANCH  12  18
ATOM     18  S   UNL     1     -13.909  57.604  49.083  0.00  0.00    +0.000 S 
ATOM     19  O   UNL     1     -14.499  56.449  48.435  0.00  0.00    +0.000 OA
ATOM     20  O   UNL     1     -13.972  58.904  48.434  0.00  0.00    +0.000 OA
BRANCH  18  21
ATOM     21  C   UNL     1     -14.538  57.791  50.768  0.00  0.00    +0.000 A 
ATOM     22  N   UNL     1     -14.222  58.961  51.377  0.00  0.00    +0.000 NA
ATOM     23  N   UNL     1     -15.229  56.756  51.287  0.00  0.00    +0.000 NA
ATOM     24  C   UNL     1     -14.690  59.074  52.633  0.00  0.00    +0.000 A 
ATOM     25  C   UNL     1     -15.624  56.927  52.559  0.00  0.00    +0.000 A 
ATOM     26  C   UNL     1     -15.392  58.078  53.282  0.00  0.00    +0.000 A 
ENDBRANCH  18  21
ENDBRANCH  12  18
ENDBRANCH   1  15
BRANCH   3  27
ATOM     27  C   UNL     1      -8.832  53.755  48.848  0.00  0.00    +0.000 C 
ATOM     28  O   UNL     1      -7.651  53.568  48.575  0.00  0.00    +0.000 OA
BRANCH  27  29
ATOM     29  O   UNL     1      -9.790  54.043  47.916  0.00  0.00    +0.000 OA
BRANCH  29  30
ATOM     30  C   UNL     1     -10.851  53.099  47.725  0.00  0.00    +0.000 C 
ATOM     31  C   UNL     1     -11.722  53.490  46.554  0.00  0.00    +0.000 C 
ENDBRANCH  29  30
ENDBRANCH  27  29
ENDBRANCH   3  27
TORSDOF 6
ENDMDL
MODEL 8
REMARK VINA RESULT:      -6.7      2.166      2.980
REMARK  Name = 
REMARK  9 active torsions:
REMARK  status: ('A' for Active; 'I' for Inactive)
REMARK    1  A    between atoms: S_1  and  N_4
REMARK    2  A    between atoms: S_1  and  C_5
REMARK    3  A    between atoms: N_10  and  C_13
REMARK    4  A    between atoms: C_16  and  C_19
REMARK    5  A    between atoms: C_19  and  O_23
REMARK    6  A    between atoms: O_23  and  C_26
REMARK    7  A    between atoms: C_24  and  C_27
REMARK    8  A    between atoms: C_24  and  C_28
REMARK    9  A    between atoms: C_26  and  C_29
REMARK                            x       y       z     vdW  Elec       q    Type
REMARK                         _______ _______ _______ _____ _____    ______ ____
ROOT
ATOM      1  C   UNL     1     -10.382  53.491  51.078  0.00  0.00    +0.000 A 
ATOM      2  S   UNL     1     -10.657  53.248  52.736  0.00  0.00    +0.000 S 
ATOM      3  C   UNL     1      -9.054  53.351  50.707  0.00  0.00    +0.000 A 
ATOM      4  C   UNL     1      -9.072  52.662  52.958  0.00  0.00    +0.000 A 
ATOM      5  C   UNL     1      -8.313  52.757  51.802  0.00  0.00    +0.000 A 
ATOM      6  C   UNL     1      -8.587  52.114  54.275  0.00  0.00    +0.000 C 
ATOM      7  C   UNL     1      -6.870  52.343  51.767  0.00  0.00    +0.000 C 
ATOM      8  C   UNL     1      -7.030  52.073  54.328  0.00  0.00    +0.000 C 
ATOM      9  C   UNL     1      -6.480  51.506  52.991  0.00  0.00    +0.000 C 
ATOM     10  C   UNL     1      -6.562  51.152  55.470  0.00  0.00    +0.000 C 
ATOM     11  C   UNL     1      -6.470  53.484  54.599  0.00  0.00    +0.000 C 
ENDROOT
BRANCH   1  15
ATOM     12  N   UNL     1     -13.083  55.301  49.551  0.00  0.00    +0.000 N 
ATOM     13  C   UNL     1     -11.916  55.092  50.269  0.00  0.00    +0.000 C 
ATOM     14  O   UNL     1     -11.286  56.027  50.742  0.00  0.00    +0.000 OA
ATOM     15  N   UNL     1     -11.514  53.776  50.336  0.00  0.00    +0.000 N 
ATOM     16  H   UNL     1     -13.606  54.526  49.244  0.00  0.00    +0.000 HD
ATOM     17  H   UNL     1     -12.014  53.065  49.872  0.00  0.00    +0.000 HD
BRANCH  12  18
ATOM     18  S   UNL     1     -13.621  56.853  49.192  0.00  0.00    +0.000 S 
ATOM     19  O   UNL     1     -14.674  56.743  48.202  0.00  0.00    +0.000 OA
ATOM     20  O   UNL     1     -12.415  57.603  48.878  0.00  0.00    +0.000 OA
BRANCH  18  21
ATOM     21  C   UNL     1     -14.271  57.473  50.761  0.00  0.00    +0.000 A 
ATOM     22  N   UNL     1     -14.996  56.580  51.479  0.00  0.00    +0.000 NA
ATOM     23  N   UNL     1     -14.017  58.761  51.069  0.00  0.00    +0.000 NA
ATOM     24  C   UNL     1     -15.481  57.064  52.637  0.00  0.00    +0.000 A 
ATOM     25  C   UNL     1     -14.571  59.182  52.218  0.00  0.00    +0.000 A 
ATOM     26  C   UNL     1     -15.306  58.369  53.054  0.00  0.00    +0.000 A 
ENDBRANCH  18  21
ENDBRANCH  12  18
ENDBRANCH   1  15
BRANCH   3  27
ATOM     27  C   UNL     1      -8.478  53.786  49.427  0.00  0.00    +0.000 C 
ATOM     28  O   UNL     1      -8.050  53.014  48.576  0.00  0.00    +0.000 OA
BRANCH  27  29
ATOM     29  O   UNL     1      -8.326  55.143  49.363  0.00  0.00    +0.000 OA
BRANCH  29  30
ATOM     30  C   UNL     1      -7.282  55.743  50.141  0.00  0.00    +0.000 C 
ATOM     31  C   UNL     1      -7.754  57.026  50.785  0.00  0.00    +0.000 C 
ENDBRANCH  29  30
ENDBRANCH  27  29
ENDBRANCH   3  27
TORSDOF 6
ENDMDL
MODEL 9
REMARK VINA RESULT:      -6.7      2.509      3.690
REMARK  Name = 
REMARK  9 active torsions:
REMARK  status: ('A' for Active; 'I' for Inactive)
REMARK    1  A    between atoms: S_1  and  N_4
REMARK    2  A    between atoms: S_1  and  C_5
REMARK    3  A    between atoms: N_10  and  C_13
REMARK    4  A    between atoms: C_16  and  C_19
REMARK    5  A    between atoms: C_19  and  O_23
REMARK    6  A    between atoms: O_23  and  C_26
REMARK    7  A    between atoms: C_24  and  C_27
REMARK    8  A    between atoms: C_24  and  C_28
REMARK    9  A    between atoms: C_26  and  C_29
REMARK                            x       y       z     vdW  Elec       q    Type
REMARK                         _______ _______ _______ _____ _____    ______ ____
ROOT
ATOM      1  C   UNL     1      -8.567  53.748  52.733  0.00  0.00    +0.000 A 
ATOM      2  S   UNL     1      -8.667  52.054  52.674  0.00  0.00    +0.000 S 
ATOM      3  C   UNL     1      -7.275  54.235  52.608  0.00  0.00    +0.000 A 
ATOM      4  C   UNL     1      -7.038  51.932  52.185  0.00  0.00    +0.000 A 
ATOM      5  C   UNL     1      -6.402  53.163  52.176  0.00  0.00    +0.000 A 
ATOM      6  C   UNL     1      -6.400  50.619  51.814  0.00  0.00    +0.000 C 
ATOM      7  C   UNL     1      -4.949  53.299  51.823  0.00  0.00    +0.000 C 
ATOM      8  C   UNL     1      -4.845  50.721  51.845  0.00  0.00    +0.000 C 
ATOM      9  C   UNL     1      -4.397  52.036  51.150  0.00  0.00    +0.000 C 
ATOM     10  C   UNL     1      -4.219  49.538  51.084  0.00  0.00    +0.000 C 
ATOM     11  C   UNL     1      -4.338  50.668  53.301  0.00  0.00    +0.000 C 
ENDROOT
BRANCH   1  15
ATOM     12  N   UNL     1     -11.600  55.514  51.963  0.00  0.00    +0.000 N 
ATOM     13  C   UNL     1     -10.415  54.830  51.739  0.00  0.00    +0.000 C 
ATOM     14  O   UNL     1     -10.023  54.596  50.605  0.00  0.00    +0.000 OA
ATOM     15  N   UNL     1      -9.780  54.398  52.883  0.00  0.00    +0.000 N 
ATOM     16  H   UNL     1     -11.853  55.751  52.884  0.00  0.00    +0.000 HD
ATOM     17  H   UNL     1     -10.174  54.544  53.773  0.00  0.00    +0.000 HD
BRANCH  12  18
ATOM     18  S   UNL     1     -12.613  55.944  50.693  0.00  0.00    +0.000 S 
ATOM     19  O   UNL     1     -13.357  54.764  50.296  0.00  0.00    +0.000 OA
ATOM     20  O   UNL     1     -11.746  56.605  49.730  0.00  0.00    +0.000 OA
BRANCH  18  21
ATOM     21  C   UNL     1     -13.713  57.191  51.402  0.00  0.00    +0.000 A 
ATOM     22  N   UNL     1     -14.106  58.168  50.548  0.00  0.00    +0.000 NA
ATOM     23  N   UNL     1     -14.020  57.071  52.710  0.00  0.00    +0.000 NA
ATOM     24  C   UNL     1     -14.915  59.092  51.099  0.00  0.00    +0.000 A 
ATOM     25  C   UNL     1     -14.795  58.055  53.196  0.00  0.00    +0.000 A 
ATOM     26  C   UNL     1     -15.284  59.090  52.429  0.00  0.00    +0.000 A 
ENDBRANCH  18  21
ENDBRANCH  12  18
ENDBRANCH   1  15
BRANCH   3  27
ATOM     27  C   UNL     1      -6.851  55.608  52.915  0.00  0.00    +0.000 C 
ATOM     28  O   UNL     1      -6.116  55.899  53.853  0.00  0.00    +0.000 OA
BRANCH  27  29
ATOM     29  O   UNL     1      -7.494  56.533  52.141  0.00  0.00    +0.000 OA
BRANCH  29  30
ATOM     30  C   UNL     1      -7.223  56.543  50.733  0.00  0.00    +0.000 C 
ATOM     31  C   UNL     1      -8.261  57.347  49.986  0.00  0.00    +0.000 C 
ENDBRANCH  29  30
ENDBRANCH  27  29
ENDBRANCH   3  27
TORSDOF 6
ENDMDL
