MODEL 1
REMARK VINA RESULT:      -7.4      0.000      0.000
REMARK  Name = 
REMARK  10 active torsions:
REMARK  status: ('A' for Active; 'I' for Inactive)
REMARK    1  A    between atoms: S_1  and  N_4
REMARK    2  A    between atoms: S_1  and  C_5
REMARK    3  A    between atoms: N_10  and  C_13
REMARK    4  A    between atoms: C_14  and  C_17
REMARK    5  A    between atoms: C_16  and  C_20
REMARK    6  A    between atoms: C_20  and  O_24
REMARK    7  A    between atoms: O_24  and  C_27
REMARK    8  A    between atoms: C_25  and  C_28
REMARK    9  A    between atoms: C_25  and  C_29
REMARK   10  A    between atoms: C_27  and  C_30
REMARK                            x       y       z     vdW  Elec       q    Type
REMARK                         _______ _______ _______ _____ _____    ______ ____
ROOT
ATOM      1  N   UNL     1      -9.705  51.736  48.713  0.00  0.00    +0.000 N 
ATOM      2  C   UNL     1     -10.786  52.575  48.968  0.00  0.00    +0.000 C 
ATOM      3  O   UNL     1     -11.900  52.353  48.518  0.00  0.00    +0.000 OA
ATOM      4  N   UNL     1     -10.439  53.716  49.670  0.00  0.00    +0.000 N 
ATOM      5  H   UNL     1      -8.839  51.966  49.120  0.00  0.00    +0.000 HD
ATOM      6  H   UNL     1      -9.519  53.850  49.996  0.00  0.00    +0.000 HD
ENDROOT
BRANCH   4   7
ATOM      7  C   UNL     1     -11.421  54.663  49.901  0.00  0.00    +0.000 A 
ATOM      8  S   UNL     1     -12.111  54.626  51.454  0.00  0.00    +0.000 S 
ATOM      9  C   UNL     1     -11.914  55.680  49.104  0.00  0.00    +0.000 A 
ATOM     10  C   UNL     1     -12.884  56.126  51.195  0.00  0.00    +0.000 A 
ATOM     11  C   UNL     1     -12.703  56.591  49.902  0.00  0.00    +0.000 A 
ATOM     12  C   UNL     1     -13.664  56.840  52.273  0.00  0.00    +0.000 C 
ATOM     13  C   UNL     1     -13.333  57.868  49.429  0.00  0.00    +0.000 C 
ATOM     14  C   UNL     1     -14.619  57.910  51.659  0.00  0.00    +0.000 C 
ATOM     15  C   UNL     1     -13.858  58.725  50.583  0.00  0.00    +0.000 C 
ATOM     16  C   UNL     1     -15.096  58.897  52.740  0.00  0.00    +0.000 C 
ATOM     17  C   UNL     1     -15.863  57.228  51.056  0.00  0.00    +0.000 C 
BRANCH   9  18
ATOM     18  C   UNL     1     -11.632  55.770  47.670  0.00  0.00    +0.000 C 
ATOM     19  O   UNL     1     -12.506  55.902  46.820  0.00  0.00    +0.000 OA
BRANCH  18  20
ATOM     20  O   UNL     1     -10.300  55.704  47.402  0.00  0.00    +0.000 OA
BRANCH  20  21
ATOM     21  C   UNL     1      -9.893  54.877  46.308  0.00  0.00    +0.000 C 
ATOM     22  C   UNL     1      -8.385  54.930  46.169  0.00  0.00    +0.000 C 
ENDBRANCH  20  21
ENDBRANCH  18  20
ENDBRANCH   9  18
ENDBRANCH   4   7
BRANCH   1  23
ATOM     23  S   UNL     1      -9.781  50.363  47.764  0.00  0.00    +0.000 S 
ATOM     24  O   UNL     1     -11.068  49.723  47.892  0.00  0.00    +0.000 OA
ATOM     25  O   UNL     1      -8.560  49.640  48.062  0.00  0.00    +0.000 OA
BRANCH  23  26
ATOM     26  C   UNL     1      -9.622  51.011  46.109  0.00  0.00    +0.000 A 
ATOM     27  C   UNL     1     -10.765  51.372  45.385  0.00  0.00    +0.000 A 
ATOM     28  C   UNL     1      -8.354  51.229  45.569  0.00  0.00    +0.000 A 
ATOM     29  C   UNL     1     -10.634  51.904  44.100  0.00  0.00    +0.000 A 
ATOM     30  C   UNL     1      -8.230  51.760  44.281  0.00  0.00    +0.000 A 
ATOM     31  C   UNL     1      -9.367  52.096  43.534  0.00  0.00    +0.000 A 
ATOM     32  C   UNL     1      -9.212  52.650  42.147  0.00  0.00    +0.000 C 
ENDBRANCH  23  26
ENDBRANCH   1  23
TORSDOF 6
ENDMDL
MODEL 2
REMARK VINA RESULT:      -6.9      3.561      5.388
REMARK  Name = 
REMARK  10 active torsions:
REMARK  status: ('A' for Active; 'I' for Inactive)
REMARK    1  A    between atoms: S_1  and  N_4
REMARK    2  A    between atoms: S_1  and  C_5
REMARK    3  A    between atoms: N_10  and  C_13
REMARK    4  A    between atoms: C_14  and  C_17
REMARK    5  A    between atoms: C_16  and  C_20
REMARK    6  A    between atoms: C_20  and  O_24
REMARK    7  A    between atoms: O_24  and  C_27
REMARK    8  A    between atoms: C_25  and  C_28
REMARK    9  A    between atoms: C_25  and  C_29
REMARK   10  A    between atoms: C_27  and  C_30
REMARK                            x       y       z     vdW  Elec       q    Type
REMARK                         _______ _______ _______ _____ _____    ______ ____
ROOT
ATOM      1  N   UNL     1      -8.208  52.817  50.150  0.00  0.00    +0.000 N 
ATOM      2  C   UNL     1      -9.114  53.851  50.367  0.00  0.00    +0.000 C 
ATOM      3  O   UNL     1      -8.907  54.733  51.186  0.00  0.00    +0.000 OA
ATOM      4  N   UNL     1     -10.291  53.704  49.655  0.00  0.00    +0.000 N 
ATOM      5  H   UNL     1      -8.431  52.146  49.465  0.00  0.00    +0.000 HD
ATOM      6  H   UNL     1     -10.409  52.961  49.019  0.00  0.00    +0.000 HD
ENDROOT
BRANCH   4   7
ATOM      7  C   UNL     1     -11.298  54.630  49.864  0.00  0.00    +0.000 A 
ATOM      8  S   UNL     1     -12.015  54.585  51.404  0.00  0.00    +0.000 S 
ATOM      9  C   UNL     1     -11.799  55.632  49.053  0.00  0.00    +0.000 A 
ATOM     10  C   UNL     1     -12.816  56.066  51.125  0.00  0.00    +0.000 A 
ATOM     11  C   UNL     1     -12.622  56.530  49.833  0.00  0.00    +0.000 A 
ATOM     12  C   UNL     1     -13.629  56.768  52.186  0.00  0.00    +0.000 C 
ATOM     13  C   UNL     1     -13.270  57.791  49.342  0.00  0.00    +0.000 C 
ATOM     14  C   UNL     1     -14.597  57.814  51.549  0.00  0.00    +0.000 C 
ATOM     15  C   UNL     1     -13.834  58.640  50.483  0.00  0.00    +0.000 C 
ATOM     16  C   UNL     1     -15.114  58.795  52.617  0.00  0.00    +0.000 C 
ATOM     17  C   UNL     1     -15.815  57.103  50.927  0.00  0.00    +0.000 C 
BRANCH   9  18
ATOM     18  C   UNL     1     -11.493  55.722  47.624  0.00  0.00    +0.000 C 
ATOM     19  O   UNL     1     -12.350  55.896  46.763  0.00  0.00    +0.000 OA
BRANCH  18  20
ATOM     20  O   UNL     1     -10.161  55.604  47.374  0.00  0.00    +0.000 OA
BRANCH  20  21
ATOM     21  C   UNL     1      -9.767  54.690  46.346  0.00  0.00    +0.000 C 
ATOM     22  C   UNL     1      -8.313  54.923  45.994  0.00  0.00    +0.000 C 
ENDBRANCH  20  21
ENDBRANCH  18  20
ENDBRANCH   9  18
ENDBRANCH   4   7
BRANCH   1  23
ATOM     23  S   UNL     1      -6.767  52.637  50.977  0.00  0.00    +0.000 S 
ATOM     24  O   UNL     1      -6.167  53.923  51.243  0.00  0.00    +0.000 OA
ATOM     25  O   UNL     1      -6.043  51.620  50.240  0.00  0.00    +0.000 OA
BRANCH  23  26
ATOM     26  C   UNL     1      -7.279  51.909  52.522  0.00  0.00    +0.000 A 
ATOM     27  C   UNL     1      -6.631  52.262  53.713  0.00  0.00    +0.000 A 
ATOM     28  C   UNL     1      -8.375  51.046  52.552  0.00  0.00    +0.000 A 
ATOM     29  C   UNL     1      -7.053  51.710  54.924  0.00  0.00    +0.000 A 
ATOM     30  C   UNL     1      -8.791  50.493  53.768  0.00  0.00    +0.000 A 
ATOM     31  C   UNL     1      -8.132  50.815  54.962  0.00  0.00    +0.000 A 
ATOM     32  C   UNL     1      -8.585  50.200  56.255  0.00  0.00    +0.000 C 
ENDBRANCH  23  26
ENDBRANCH   1  23
TORSDOF 6
ENDMDL
MODEL 3
REMARK VINA RESULT:      -6.9      3.268      4.921
REMARK  Name = 
REMARK  10 active torsions:
REMARK  status: ('A' for Active; 'I' for Inactive)
REMARK    1  A    between atoms: S_1  and  N_4
REMARK    2  A    between atoms: S_1  and  C_5
REMARK    3  A    between atoms: N_10  and  C_13
REMARK    4  A    between atoms: C_14  and  C_17
REMARK    5  A    between atoms: C_16  and  C_20
REMARK    6  A    between atoms: C_20  and  O_24
REMARK    7  A    between atoms: O_24  and  C_27
REMARK    8  A    between atoms: C_25  and  C_28
REMARK    9  A    between atoms: C_25  and  C_29
REMARK   10  A    between atoms: C_27  and  C_30
REMARK                            x       y       z     vdW  Elec       q    Type
REMARK                         _______ _______ _______ _____ _____    ______ ____
ROOT
ATOM      1  N   UNL     1      -8.411  52.619  48.962  0.00  0.00    +0.000 N 
ATOM      2  C   UNL     1      -9.295  53.670  49.187  0.00  0.00    +0.000 C 
ATOM      3  O   UNL     1      -8.910  54.790  49.486  0.00  0.00    +0.000 OA
ATOM      4  N   UNL     1     -10.623  53.283  49.151  0.00  0.00    +0.000 N 
ATOM      5  H   UNL     1      -8.789  51.746  48.710  0.00  0.00    +0.000 HD
ATOM      6  H   UNL     1     -10.876  52.360  48.919  0.00  0.00    +0.000 HD
ENDROOT
BRANCH   4   7
ATOM      7  C   UNL     1     -11.586  54.232  49.449  0.00  0.00    +0.000 A 
ATOM      8  S   UNL     1     -12.087  54.268  51.073  0.00  0.00    +0.000 S 
ATOM      9  C   UNL     1     -12.185  55.201  48.667  0.00  0.00    +0.000 A 
ATOM     10  C   UNL     1     -12.908  55.746  50.834  0.00  0.00    +0.000 A 
ATOM     11  C   UNL     1     -12.888  56.145  49.507  0.00  0.00    +0.000 A 
ATOM     12  C   UNL     1     -13.565  56.507  51.960  0.00  0.00    +0.000 C 
ATOM     13  C   UNL     1     -13.589  57.391  49.048  0.00  0.00    +0.000 C 
ATOM     14  C   UNL     1     -14.602  57.535  51.411  0.00  0.00    +0.000 C 
ATOM     15  C   UNL     1     -13.986  58.300  50.213  0.00  0.00    +0.000 C 
ATOM     16  C   UNL     1     -14.963  58.572  52.491  0.00  0.00    +0.000 C 
ATOM     17  C   UNL     1     -15.898  56.812  50.995  0.00  0.00    +0.000 C 
BRANCH   9  18
ATOM     18  C   UNL     1     -12.076  55.220  47.207  0.00  0.00    +0.000 C 
ATOM     19  O   UNL     1     -12.055  56.255  46.548  0.00  0.00    +0.000 OA
BRANCH  18  20
ATOM     20  O   UNL     1     -11.988  53.969  46.680  0.00  0.00    +0.000 OA
BRANCH  20  21
ATOM     21  C   UNL     1     -11.428  53.849  45.370  0.00  0.00    +0.000 C 
ATOM     22  C   UNL     1      -9.925  53.697  45.476  0.00  0.00    +0.000 C 
ENDBRANCH  20  21
ENDBRANCH  18  20
ENDBRANCH   9  18
ENDBRANCH   4   7
BRANCH   1  23
ATOM     23  S   UNL     1      -6.749  52.742  49.090  0.00  0.00    +0.000 S 
ATOM     24  O   UNL     1      -6.255  53.839  48.293  0.00  0.00    +0.000 OA
ATOM     25  O   UNL     1      -6.262  51.393  48.878  0.00  0.00    +0.000 OA
BRANCH  23  26
ATOM     26  C   UNL     1      -6.507  53.128  50.815  0.00  0.00    +0.000 A 
ATOM     27  C   UNL     1      -5.809  54.284  51.183  0.00  0.00    +0.000 A 
ATOM     28  C   UNL     1      -7.082  52.316  51.794  0.00  0.00    +0.000 A 
ATOM     29  C   UNL     1      -5.646  54.597  52.535  0.00  0.00    +0.000 A 
ATOM     30  C   UNL     1      -6.912  52.633  53.146  0.00  0.00    +0.000 A 
ATOM     31  C   UNL     1      -6.189  53.771  53.527  0.00  0.00    +0.000 A 
ATOM     32  C   UNL     1      -6.006  54.085  54.985  0.00  0.00    +0.000 C 
ENDBRANCH  23  26
ENDBRANCH   1  23
TORSDOF 6
ENDMDL
MODEL 4
REMARK VINA RESULT:      -6.9      1.854      2.812
REMARK  Name = 
REMARK  10 active torsions:
REMARK  status: ('A' for Active; 'I' for Inactive)
REMARK    1  A    between atoms: S_1  and  N_4
REMARK    2  A    between atoms: S_1  and  C_5
REMARK    3  A    between atoms: N_10  and  C_13
REMARK    4  A    between atoms: C_14  and  C_17
REMARK    5  A    between atoms: C_16  and  C_20
REMARK    6  A    between atoms: C_20  and  O_24
REMARK    7  A    between atoms: O_24  and  C_27
REMARK    8  A    between atoms: C_25  and  C_28
REMARK    9  A    between atoms: C_25  and  C_29
REMARK   10  A    between atoms: C_27  and  C_30
REMARK                            x       y       z     vdW  Elec       q    Type
REMARK                         _______ _______ _______ _____ _____    ______ ____
ROOT
ATOM      1  N   UNL     1      -8.096  53.387  49.495  0.00  0.00    +0.000 N 
ATOM      2  C   UNL     1      -9.232  54.190  49.529  0.00  0.00    +0.000 C 
ATOM      3  O   UNL     1      -9.340  55.191  48.837  0.00  0.00    +0.000 OA
ATOM      4  N   UNL     1     -10.145  53.803  50.494  0.00  0.00    +0.000 N 
ATOM      5  H   UNL     1      -8.081  52.586  50.068  0.00  0.00    +0.000 HD
ATOM      6  H   UNL     1      -9.998  52.994  51.035  0.00  0.00    +0.000 HD
ENDROOT
BRANCH   4   7
ATOM      7  C   UNL     1     -11.272  54.586  50.675  0.00  0.00    +0.000 A 
ATOM      8  S   UNL     1     -11.468  55.221  52.240  0.00  0.00    +0.000 S 
ATOM      9  C   UNL     1     -12.252  54.993  49.790  0.00  0.00    +0.000 A 
ATOM     10  C   UNL     1     -12.708  56.267  51.709  0.00  0.00    +0.000 A 
ATOM     11  C   UNL     1     -13.038  56.054  50.380  0.00  0.00    +0.000 A 
ATOM     12  C   UNL     1     -13.348  57.298  52.608  0.00  0.00    +0.000 C 
ATOM     13  C   UNL     1     -14.136  56.825  49.707  0.00  0.00    +0.000 C 
ATOM     14  C   UNL     1     -14.716  57.774  52.029  0.00  0.00    +0.000 C 
ATOM     15  C   UNL     1     -14.567  58.052  50.512  0.00  0.00    +0.000 C 
ATOM     16  C   UNL     1     -15.164  59.084  52.702  0.00  0.00    +0.000 C 
ATOM     17  C   UNL     1     -15.802  56.711  52.290  0.00  0.00    +0.000 C 
BRANCH   9  18
ATOM     18  C   UNL     1     -12.412  54.404  48.458  0.00  0.00    +0.000 C 
ATOM     19  O   UNL     1     -12.438  55.069  47.428  0.00  0.00    +0.000 OA
BRANCH  18  20
ATOM     20  O   UNL     1     -12.511  53.048  48.504  0.00  0.00    +0.000 OA
BRANCH  20  21
ATOM     21  C   UNL     1     -11.679  52.302  47.610  0.00  0.00    +0.000 C 
ATOM     22  C   UNL     1     -12.532  51.688  46.520  0.00  0.00    +0.000 C 
ENDBRANCH  20  21
ENDBRANCH  18  20
ENDBRANCH   9  18
ENDBRANCH   4   7
BRANCH   1  23
ATOM     23  S   UNL     1      -6.756  53.689  48.543  0.00  0.00    +0.000 S 
ATOM     24  O   UNL     1      -5.717  52.721  48.800  0.00  0.00    +0.000 OA
ATOM     25  O   UNL     1      -6.502  55.108  48.703  0.00  0.00    +0.000 OA
BRANCH  23  26
ATOM     26  C   UNL     1      -7.376  53.444  46.889  0.00  0.00    +0.000 A 
ATOM     27  C   UNL     1      -7.804  52.175  46.481  0.00  0.00    +0.000 A 
ATOM     28  C   UNL     1      -7.504  54.535  46.028  0.00  0.00    +0.000 A 
ATOM     29  C   UNL     1      -8.314  51.993  45.194  0.00  0.00    +0.000 A 
ATOM     30  C   UNL     1      -8.012  54.346  44.738  0.00  0.00    +0.000 A 
ATOM     31  C   UNL     1      -8.416  53.075  44.309  0.00  0.00    +0.000 A 
ATOM     32  C   UNL     1      -8.945  52.891  42.915  0.00  0.00    +0.000 C 
ENDBRANCH  23  26
ENDBRANCH   1  23
TORSDOF 6
ENDMDL
MODEL 5
REMARK VINA RESULT:      -6.7      3.716      8.166
REMARK  Name = 
REMARK  10 active torsions:
REMARK  status: ('A' for Active; 'I' for Inactive)
REMARK    1  A    between atoms: S_1  and  N_4
REMARK    2  A    between atoms: S_1  and  C_5
REMARK    3  A    between atoms: N_10  and  C_13
REMARK    4  A    between atoms: C_14  and  C_17
REMARK    5  A    between atoms: C_16  and  C_20
REMARK    6  A    between atoms: C_20  and  O_24
REMARK    7  A    between atoms: O_24  and  C_27
REMARK    8  A    between atoms: C_25  and  C_28
REMARK    9  A    between atoms: C_25  and  C_29
REMARK   10  A    between atoms: C_27  and  C_30
REMARK                            x       y       z     vdW  Elec       q    Type
REMARK                         _______ _______ _______ _____ _____    ______ ____
ROOT
ATOM      1  N   UNL     1     -11.723  56.724  48.961  0.00  0.00    +0.000 N 
ATOM      2  C   UNL     1     -10.718  55.854  49.370  0.00  0.00    +0.000 C 
ATOM      3  O   UNL     1     -10.958  54.723  49.764  0.00  0.00    +0.000 OA
ATOM      4  N   UNL     1      -9.463  56.439  49.390  0.00  0.00    +0.000 N 
ATOM      5  H   UNL     1     -11.458  57.617  48.640  0.00  0.00    +0.000 HD
ATOM      6  H   UNL     1      -9.331  57.363  49.074  0.00  0.00    +0.000 HD
ENDROOT
BRANCH   4   7
ATOM      7  C   UNL     1      -8.402  55.689  49.866  0.00  0.00    +0.000 A 
ATOM      8  S   UNL     1      -8.008  55.949  51.499  0.00  0.00    +0.000 S 
ATOM      9  C   UNL     1      -7.628  54.717  49.262  0.00  0.00    +0.000 A 
ATOM     10  C   UNL     1      -6.980  54.586  51.514  0.00  0.00    +0.000 A 
ATOM     11  C   UNL     1      -6.859  54.009  50.261  0.00  0.00    +0.000 A 
ATOM     12  C   UNL     1      -6.300  54.090  52.768  0.00  0.00    +0.000 C 
ATOM     13  C   UNL     1      -5.968  52.825  50.020  0.00  0.00    +0.000 C 
ATOM     14  C   UNL     1      -5.100  53.155  52.422  0.00  0.00    +0.000 C 
ATOM     15  C   UNL     1      -5.527  52.152  51.322  0.00  0.00    +0.000 C 
ATOM     16  C   UNL     1      -4.673  52.340  53.657  0.00  0.00    +0.000 C 
ATOM     17  C   UNL     1      -3.889  53.993  51.963  0.00  0.00    +0.000 C 
BRANCH   9  18
ATOM     18  C   UNL     1      -7.639  54.481  47.816  0.00  0.00    +0.000 C 
ATOM     19  O   UNL     1      -6.656  54.649  47.101  0.00  0.00    +0.000 OA
BRANCH  18  20
ATOM     20  O   UNL     1      -8.849  54.045  47.374  0.00  0.00    +0.000 OA
BRANCH  20  21
ATOM     21  C   UNL     1      -9.329  54.590  46.142  0.00  0.00    +0.000 C 
ATOM     22  C   UNL     1     -10.821  54.351  46.032  0.00  0.00    +0.000 C 
ENDBRANCH  20  21
ENDBRANCH  18  20
ENDBRANCH   9  18
ENDBRANCH   4   7
BRANCH   1  23
ATOM     23  S   UNL     1     -13.353  56.355  48.976  0.00  0.00    +0.000 S 
ATOM     24  O   UNL     1     -13.556  54.951  49.237  0.00  0.00    +0.000 OA
ATOM     25  O   UNL     1     -13.882  56.970  47.774  0.00  0.00    +0.000 OA
BRANCH  23  26
ATOM     26  C   UNL     1     -13.964  57.294  50.364  0.00  0.00    +0.000 A 
ATOM     27  C   UNL     1     -14.440  58.597  50.175  0.00  0.00    +0.000 A 
ATOM     28  C   UNL     1     -14.036  56.700  51.625  0.00  0.00    +0.000 A 
ATOM     29  C   UNL     1     -14.943  59.318  51.260  0.00  0.00    +0.000 A 
ATOM     30  C   UNL     1     -14.537  57.429  52.708  0.00  0.00    +0.000 A 
ATOM     31  C   UNL     1     -14.989  58.744  52.537  0.00  0.00    +0.000 A 
ATOM     32  C   UNL     1     -15.509  59.514  53.717  0.00  0.00    +0.000 C 
ENDBRANCH  23  26
ENDBRANCH   1  23
TORSDOF 6
ENDMDL
MODEL 6
REMARK VINA RESULT:      -6.6      4.201      9.102
REMARK  Name = 
REMARK  10 active torsions:
REMARK  status: ('A' for Active; 'I' for Inactive)
REMARK    1  A    between atoms: S_1  and  N_4
REMARK    2  A    between atoms: S_1  and  C_5
REMARK    3  A    between atoms: N_10  and  C_13
REMARK    4  A    between atoms: C_14  and  C_17
REMARK    5  A    between atoms: C_16  and  C_20
REMARK    6  A    between atoms: C_20  and  O_24
REMARK    7  A    between atoms: O_24  and  C_27
REMARK    8  A    between atoms: C_25  and  C_28
REMARK    9  A    between atoms: C_25  and  C_29
REMARK   10  A    between atoms: C_27  and  C_30
REMARK                            x       y       z     vdW  Elec       q    Type
REMARK                         _______ _______ _______ _____ _____    ______ ____
ROOT
ATOM      1  N   UNL     1     -11.693  55.517  51.000  0.00  0.00    +0.000 N 
ATOM      2  C   UNL     1     -10.423  55.045  50.683  0.00  0.00    +0.000 C 
ATOM      3  O   UNL     1      -9.921  55.223  49.584  0.00  0.00    +0.000 OA
ATOM      4  N   UNL     1      -9.861  54.274  51.685  0.00  0.00    +0.000 N 
ATOM      5  H   UNL     1     -12.032  55.351  51.910  0.00  0.00    +0.000 HD
ATOM      6  H   UNL     1     -10.320  54.151  52.547  0.00  0.00    +0.000 HD
ENDROOT
BRANCH   4   7
ATOM      7  C   UNL     1      -8.635  53.680  51.439  0.00  0.00    +0.000 A 
ATOM      8  S   UNL     1      -8.704  52.054  50.948  0.00  0.00    +0.000 S 
ATOM      9  C   UNL     1      -7.351  54.190  51.472  0.00  0.00    +0.000 A 
ATOM     10  C   UNL     1      -7.055  52.070  50.508  0.00  0.00    +0.000 A 
ATOM     11  C   UNL     1      -6.439  53.268  50.833  0.00  0.00    +0.000 A 
ATOM     12  C   UNL     1      -6.377  50.899  49.837  0.00  0.00    +0.000 C 
ATOM     13  C   UNL     1      -4.976  53.495  50.585  0.00  0.00    +0.000 C 
ATOM     14  C   UNL     1      -4.825  50.999  49.968  0.00  0.00    +0.000 C 
ATOM     15  C   UNL     1      -4.372  52.446  49.649  0.00  0.00    +0.000 C 
ATOM     16  C   UNL     1      -4.133  50.061  48.963  0.00  0.00    +0.000 C 
ATOM     17  C   UNL     1      -4.385  50.585  51.387  0.00  0.00    +0.000 C 
BRANCH   9  18
ATOM     18  C   UNL     1      -7.029  55.488  52.070  0.00  0.00    +0.000 C 
ATOM     19  O   UNL     1      -7.437  56.554  51.622  0.00  0.00    +0.000 OA
BRANCH  18  20
ATOM     20  O   UNL     1      -6.246  55.366  53.175  0.00  0.00    +0.000 OA
BRANCH  20  21
ATOM     21  C   UNL     1      -6.878  54.916  54.378  0.00  0.00    +0.000 C 
ATOM     22  C   UNL     1      -6.101  53.750  54.951  0.00  0.00    +0.000 C 
ENDBRANCH  20  21
ENDBRANCH  18  20
ENDBRANCH   9  18
ENDBRANCH   4   7
BRANCH   1  23
ATOM     23  S   UNL     1     -12.682  56.347  49.940  0.00  0.00    +0.000 S 
ATOM     24  O   UNL     1     -13.546  55.437  49.227  0.00  0.00    +0.000 OA
ATOM     25  O   UNL     1     -11.790  57.238  49.223  0.00  0.00    +0.000 OA
BRANCH  23  26
ATOM     26  C   UNL     1     -13.677  57.355  51.025  0.00  0.00    +0.000 A 
ATOM     27  C   UNL     1     -13.822  57.002  52.373  0.00  0.00    +0.000 A 
ATOM     28  C   UNL     1     -14.246  58.536  50.547  0.00  0.00    +0.000 A 
ATOM     29  C   UNL     1     -14.578  57.808  53.225  0.00  0.00    +0.000 A 
ATOM     30  C   UNL     1     -15.006  59.337  51.405  0.00  0.00    +0.000 A 
ATOM     31  C   UNL     1     -15.183  58.979  52.748  0.00  0.00    +0.000 A 
ATOM     32  C   UNL     1     -16.015  59.846  53.649  0.00  0.00    +0.000 C 
ENDBRANCH  23  26
ENDBRANCH   1  23
TORSDOF 6
ENDMDL
MODEL 7
REMARK VINA RESULT:      -6.4      3.294      7.911
REMARK  Name = 
REMARK  10 active torsions:
REMARK  status: ('A' for Active; 'I' for Inactive)
REMARK    1  A    between atoms: S_1  and  N_4
REMARK    2  A    between atoms: S_1  and  C_5
REMARK    3  A    between atoms: N_10  and  C_13
REMARK    4  A    between atoms: C_14  and  C_17
REMARK    5  A    between atoms: C_16  and  C_20
REMARK    6  A    between atoms: C_20  and  O_24
REMARK    7  A    between atoms: O_24  and  C_27
REMARK    8  A    between atoms: C_25  and  C_28
REMARK    9  A    between atoms: C_25  and  C_29
REMARK   10  A    between atoms: C_27  and  C_30
REMARK                            x       y       z     vdW  Elec       q    Type
REMARK                         _______ _______ _______ _____ _____    ______ ____
ROOT
ATOM      1  N   UNL     1      -7.998  56.307  49.579  0.00  0.00    +0.000 N 
ATOM      2  C   UNL     1      -8.371  55.268  48.731  0.00  0.00    +0.000 C 
ATOM      3  O   UNL     1      -8.171  54.096  49.014  0.00  0.00    +0.000 OA
ATOM      4  N   UNL     1      -8.869  55.706  47.517  0.00  0.00    +0.000 N 
ATOM      5  H   UNL     1      -8.202  57.227  49.296  0.00  0.00    +0.000 HD
ATOM      6  H   UNL     1      -8.993  56.666  47.337  0.00  0.00    +0.000 HD
ENDROOT
BRANCH   4   7
ATOM      7  C   UNL     1      -9.187  54.755  46.562  0.00  0.00    +0.000 A 
ATOM      8  S   UNL     1      -7.869  54.154  45.673  0.00  0.00    +0.000 S 
ATOM      9  C   UNL     1     -10.391  54.162  46.231  0.00  0.00    +0.000 A 
ATOM     10  C   UNL     1      -8.825  52.900  45.019  0.00  0.00    +0.000 A 
ATOM     11  C   UNL     1     -10.155  53.008  45.392  0.00  0.00    +0.000 A 
ATOM     12  C   UNL     1      -8.255  51.810  44.143  0.00  0.00    +0.000 C 
ATOM     13  C   UNL     1     -11.194  52.044  44.897  0.00  0.00    +0.000 C 
ATOM     14  C   UNL     1      -9.381  51.096  43.333  0.00  0.00    +0.000 C 
ATOM     15  C   UNL     1     -10.578  50.792  44.270  0.00  0.00    +0.000 C 
ATOM     16  C   UNL     1      -8.878  49.754  42.769  0.00  0.00    +0.000 C 
ATOM     17  C   UNL     1      -9.822  51.975  42.145  0.00  0.00    +0.000 C 
BRANCH   9  18
ATOM     18  C   UNL     1     -11.680  54.669  46.704  0.00  0.00    +0.000 C 
ATOM     19  O   UNL     1     -12.183  55.711  46.296  0.00  0.00    +0.000 OA
BRANCH  18  20
ATOM     20  O   UNL     1     -12.251  53.847  47.626  0.00  0.00    +0.000 OA
BRANCH  20  21
ATOM     21  C   UNL     1     -11.860  54.025  48.990  0.00  0.00    +0.000 C 
ATOM     22  C   UNL     1     -11.447  52.690  49.575  0.00  0.00    +0.000 C 
ENDBRANCH  20  21
ENDBRANCH  18  20
ENDBRANCH   9  18
ENDBRANCH   4   7
BRANCH   1  23
ATOM     23  S   UNL     1      -7.230  56.095  51.048  0.00  0.00    +0.000 S 
ATOM     24  O   UNL     1      -7.165  57.340  51.774  0.00  0.00    +0.000 OA
ATOM     25  O   UNL     1      -6.022  55.358  50.730  0.00  0.00    +0.000 OA
BRANCH  23  26
ATOM     26  C   UNL     1      -8.320  54.979  51.913  0.00  0.00    +0.000 A 
ATOM     27  C   UNL     1      -7.811  53.808  52.489  0.00  0.00    +0.000 A 
ATOM     28  C   UNL     1      -9.664  55.314  52.081  0.00  0.00    +0.000 A 
ATOM     29  C   UNL     1      -8.663  52.951  53.189  0.00  0.00    +0.000 A 
ATOM     30  C   UNL     1     -10.513  54.449  52.780  0.00  0.00    +0.000 A 
ATOM     31  C   UNL     1     -10.022  53.260  53.334  0.00  0.00    +0.000 A 
ATOM     32  C   UNL     1     -10.954  52.338  54.068  0.00  0.00    +0.000 C 
ENDBRANCH  23  26
ENDBRANCH   1  23
TORSDOF 6
ENDMDL
MODEL 8
REMARK VINA RESULT:      -6.4      3.089      8.021
REMARK  Name = 
REMARK  10 active torsions:
REMARK  status: ('A' for Active; 'I' for Inactive)
REMARK    1  A    between atoms: S_1  and  N_4
REMARK    2  A    between atoms: S_1  and  C_5
REMARK    3  A    between atoms: N_10  and  C_13
REMARK    4  A    between atoms: C_14  and  C_17
REMARK    5  A    between atoms: C_16  and  C_20
REMARK    6  A    between atoms: C_20  and  O_24
REMARK    7  A    between atoms: O_24  and  C_27
REMARK    8  A    between atoms: C_25  and  C_28
REMARK    9  A    between atoms: C_25  and  C_29
REMARK   10  A    between atoms: C_27  and  C_30
REMARK                            x       y       z     vdW  Elec       q    Type
REMARK                         _______ _______ _______ _____ _____    ______ ____
ROOT
ATOM      1  N   UNL     1     -12.308  57.188  49.141  0.00  0.00    +0.000 N 
ATOM      2  C   UNL     1     -11.847  56.004  49.709  0.00  0.00    +0.000 C 
ATOM      3  O   UNL     1     -12.607  55.118  50.070  0.00  0.00    +0.000 OA
ATOM      4  N   UNL     1     -10.479  55.995  49.919  0.00  0.00    +0.000 N 
ATOM      5  H   UNL     1     -11.640  57.853  48.859  0.00  0.00    +0.000 HD
ATOM      6  H   UNL     1      -9.916  56.746  49.621  0.00  0.00    +0.000 HD
ENDROOT
BRANCH   4   7
ATOM      7  C   UNL     1      -9.926  54.900  50.561  0.00  0.00    +0.000 A 
ATOM      8  S   UNL     1      -9.910  54.989  52.258  0.00  0.00    +0.000 S 
ATOM      9  C   UNL     1      -9.425  53.710  50.067  0.00  0.00    +0.000 A 
ATOM     10  C   UNL     1      -9.486  53.340  52.385  0.00  0.00    +0.000 A 
ATOM     11  C   UNL     1      -9.256  52.763  51.147  0.00  0.00    +0.000 A 
ATOM     12  C   UNL     1      -9.388  52.621  53.710  0.00  0.00    +0.000 C 
ATOM     13  C   UNL     1      -8.822  51.332  51.012  0.00  0.00    +0.000 C 
ATOM     14  C   UNL     1      -8.560  51.306  53.573  0.00  0.00    +0.000 C 
ATOM     15  C   UNL     1      -9.014  50.539  52.306  0.00  0.00    +0.000 C 
ATOM     16  C   UNL     1      -8.798  50.386  54.785  0.00  0.00    +0.000 C 
ATOM     17  C   UNL     1      -7.054  51.630  53.510  0.00  0.00    +0.000 C 
BRANCH   9  18
ATOM     18  C   UNL     1      -9.138  53.500  48.647  0.00  0.00    +0.000 C 
ATOM     19  O   UNL     1      -9.421  52.467  48.050  0.00  0.00    +0.000 OA
BRANCH  18  20
ATOM     20  O   UNL     1      -8.541  54.581  48.076  0.00  0.00    +0.000 OA
BRANCH  20  21
ATOM     21  C   UNL     1      -7.391  54.338  47.260  0.00  0.00    +0.000 C 
ATOM     22  C   UNL     1      -7.717  54.666  45.818  0.00  0.00    +0.000 C 
ENDBRANCH  20  21
ENDBRANCH  18  20
ENDBRANCH   9  18
ENDBRANCH   4   7
BRANCH   1  23
ATOM     23  S   UNL     1     -13.921  57.555  48.905  0.00  0.00    +0.000 S 
ATOM     24  O   UNL     1     -14.629  56.420  48.364  0.00  0.00    +0.000 OA
ATOM     25  O   UNL     1     -13.912  58.826  48.207  0.00  0.00    +0.000 OA
BRANCH  23  26
ATOM     26  C   UNL     1     -14.508  57.864  50.561  0.00  0.00    +0.000 A 
ATOM     27  C   UNL     1     -15.163  56.852  51.274  0.00  0.00    +0.000 A 
ATOM     28  C   UNL     1     -14.245  59.091  51.172  0.00  0.00    +0.000 A 
ATOM     29  C   UNL     1     -15.596  57.089  52.580  0.00  0.00    +0.000 A 
ATOM     30  C   UNL     1     -14.685  59.324  52.480  0.00  0.00    +0.000 A 
ATOM     31  C   UNL     1     -15.368  58.329  53.192  0.00  0.00    +0.000 A 
ATOM     32  C   UNL     1     -15.844  58.605  54.589  0.00  0.00    +0.000 C 
ENDBRANCH  23  26
ENDBRANCH   1  23
TORSDOF 6
ENDMDL
MODEL 9
REMARK VINA RESULT:      -6.1      3.639      8.814
REMARK  Name = 
REMARK  10 active torsions:
REMARK  status: ('A' for Active; 'I' for Inactive)
REMARK    1  A    between atoms: S_1  and  N_4
REMARK    2  A    between atoms: S_1  and  C_5
REMARK    3  A    between atoms: N_10  and  C_13
REMARK    4  A    between atoms: C_14  and  C_17
REMARK    5  A    between atoms: C_16  and  C_20
REMARK    6  A    between atoms: C_20  and  O_24
REMARK    7  A    between atoms: O_24  and  C_27
REMARK    8  A    between atoms: C_25  and  C_28
REMARK    9  A    between atoms: C_25  and  C_29
REMARK   10  A    between atoms: C_27  and  C_30
REMARK                            x       y       z     vdW  Elec       q    Type
REMARK                         _______ _______ _______ _____ _____    ______ ____
ROOT
ATOM      1  N   UNL     1     -12.039  57.178  49.160  0.00  0.00    +0.000 N 
ATOM      2  C   UNL     1     -11.084  56.172  49.038  0.00  0.00    +0.000 C 
ATOM      3  O   UNL     1     -11.388  55.017  48.784  0.00  0.00    +0.000 OA
ATOM      4  N   UNL     1      -9.803  56.596  49.345  0.00  0.00    +0.000 N 
ATOM      5  H   UNL     1     -11.723  58.091  49.351  0.00  0.00    +0.000 HD
ATOM      6  H   UNL     1      -9.619  57.539  49.558  0.00  0.00    +0.000 HD
ENDROOT
BRANCH   4   7
ATOM      7  C   UNL     1      -8.788  55.654  49.342  0.00  0.00    +0.000 A 
ATOM      8  S   UNL     1      -8.422  54.989  47.821  0.00  0.00    +0.000 S 
ATOM      9  C   UNL     1      -7.973  55.188  50.357  0.00  0.00    +0.000 A 
ATOM     10  C   UNL     1      -6.998  54.270  48.429  0.00  0.00    +0.000 A 
ATOM     11  C   UNL     1      -6.865  54.448  49.796  0.00  0.00    +0.000 A 
ATOM     12  C   UNL     1      -6.013  53.537  47.549  0.00  0.00    +0.000 C 
ATOM     13  C   UNL     1      -5.714  53.861  50.560  0.00  0.00    +0.000 C 
ATOM     14  C   UNL     1      -5.084  52.614  48.396  0.00  0.00    +0.000 C 
ATOM     15  C   UNL     1      -4.584  53.388  49.642  0.00  0.00    +0.000 C 
ATOM     16  C   UNL     1      -3.847  52.194  47.581  0.00  0.00    +0.000 C 
ATOM     17  C   UNL     1      -5.838  51.335  48.810  0.00  0.00    +0.000 C 
BRANCH   9  18
ATOM     18  C   UNL     1      -8.242  55.450  51.772  0.00  0.00    +0.000 C 
ATOM     19  O   UNL     1      -7.461  56.048  52.505  0.00  0.00    +0.000 OA
BRANCH  18  20
ATOM     20  O   UNL     1      -9.453  54.969  52.164  0.00  0.00    +0.000 OA
BRANCH  20  21
ATOM     21  C   UNL     1      -9.650  53.554  52.090  0.00  0.00    +0.000 C 
ATOM     22  C   UNL     1     -10.489  53.099  53.265  0.00  0.00    +0.000 C 
ENDBRANCH  20  21
ENDBRANCH  18  20
ENDBRANCH   9  18
ENDBRANCH   4   7
BRANCH   1  23
ATOM     23  S   UNL     1     -13.685  56.939  49.001  0.00  0.00    +0.000 S 
ATOM     24  O   UNL     1     -13.990  55.532  48.911  0.00  0.00    +0.000 OA
ATOM     25  O   UNL     1     -14.092  57.855  47.954  0.00  0.00    +0.000 OA
BRANCH  23  26
ATOM     26  C   UNL     1     -14.331  57.572  50.539  0.00  0.00    +0.000 A 
ATOM     27  C   UNL     1     -14.763  56.687  51.535  0.00  0.00    +0.000 A 
ATOM     28  C   UNL     1     -14.333  58.947  50.776  0.00  0.00    +0.000 A 
ATOM     29  C   UNL     1     -15.243  57.187  52.748  0.00  0.00    +0.000 A 
ATOM     30  C   UNL     1     -14.818  59.441  51.992  0.00  0.00    +0.000 A 
ATOM     31  C   UNL     1     -15.282  58.567  52.984  0.00  0.00    +0.000 A 
ATOM     32  C   UNL     1     -15.812  59.120  54.277  0.00  0.00    +0.000 C 
ENDBRANCH  23  26
ENDBRANCH   1  23
TORSDOF 6
ENDMDL
