MODEL 1
REMARK VINA RESULT:      -7.8      0.000      0.000
REMARK  Name = 
REMARK  9 active torsions:
REMARK  status: ('A' for Active; 'I' for Inactive)
REMARK    1  A    between atoms: S_1  and  N_4
REMARK    2  A    between atoms: S_1  and  C_5
REMARK    3  A    between atoms: N_10  and  C_13
REMARK    4  A    between atoms: C_16  and  C_19
REMARK    5  A    between atoms: C_19  and  O_23
REMARK    6  A    between atoms: O_23  and  C_26
REMARK    7  A    between atoms: C_24  and  C_27
REMARK    8  A    between atoms: C_24  and  C_28
REMARK    9  A    between atoms: C_26  and  C_29
REMARK                            x       y       z     vdW  Elec       q    Type
REMARK                         _______ _______ _______ _____ _____    ______ ____
ROOT
ATOM      1  C   UNL     1     -10.937  54.444  51.620  0.00  0.00    +0.000 A 
ATOM      2  S   UNL     1     -10.514  53.795  53.132  0.00  0.00    +0.000 S 
ATOM      3  C   UNL     1      -9.857  54.933  50.909  0.00  0.00    +0.000 A 
ATOM      4  C   UNL     1      -8.850  53.905  52.763  0.00  0.00    +0.000 A 
ATOM      5  C   UNL     1      -8.624  54.528  51.547  0.00  0.00    +0.000 A 
ATOM      6  C   UNL     1      -7.776  53.369  53.677  0.00  0.00    +0.000 C 
ATOM      7  C   UNL     1      -7.235  54.785  51.038  0.00  0.00    +0.000 C 
ATOM      8  C   UNL     1      -6.390  54.000  53.341  0.00  0.00    +0.000 C 
ATOM      9  C   UNL     1      -6.176  53.992  51.806  0.00  0.00    +0.000 C 
ATOM     10  C   UNL     1      -5.253  53.179  53.977  0.00  0.00    +0.000 C 
ATOM     11  C   UNL     1      -6.309  55.435  53.900  0.00  0.00    +0.000 C 
ENDROOT
BRANCH   1  15
ATOM     12  N   UNL     1     -14.415  55.250  51.191  0.00  0.00    +0.000 N 
ATOM     13  C   UNL     1     -13.101  55.415  51.615  0.00  0.00    +0.000 C 
ATOM     14  O   UNL     1     -12.715  56.452  52.134  0.00  0.00    +0.000 OA
ATOM     15  N   UNL     1     -12.279  54.352  51.292  0.00  0.00    +0.000 N 
ATOM     16  H   UNL     1     -14.660  54.394  50.770  0.00  0.00    +0.000 HD
ATOM     17  H   UNL     1     -12.637  53.552  50.840  0.00  0.00    +0.000 HD
BRANCH  12  18
ATOM     18  S   UNL     1     -15.601  56.410  51.353  0.00  0.00    +0.000 S 
ATOM     19  O   UNL     1     -15.772  56.785  52.736  0.00  0.00    +0.000 OA
ATOM     20  O   UNL     1     -16.723  55.906  50.582  0.00  0.00    +0.000 OA
BRANCH  18  21
ATOM     21  C   UNL     1     -14.937  57.801  50.457  0.00  0.00    +0.000 A 
ATOM     22  C   UNL     1     -14.879  59.061  51.064  0.00  0.00    +0.000 A 
ATOM     23  C   UNL     1     -14.397  57.610  49.180  0.00  0.00    +0.000 A 
ATOM     24  C   UNL     1     -14.303  60.134  50.382  0.00  0.00    +0.000 A 
ATOM     25  C   UNL     1     -13.827  58.688  48.501  0.00  0.00    +0.000 A 
ATOM     26  C   UNL     1     -13.780  59.947  49.102  0.00  0.00    +0.000 A 
ENDBRANCH  18  21
ENDBRANCH  12  18
ENDBRANCH   1  15
BRANCH   3  27
ATOM     27  C   UNL     1     -10.006  55.730  49.688  0.00  0.00    +0.000 C 
ATOM     28  O   UNL     1      -9.612  56.887  49.592  0.00  0.00    +0.000 OA
BRANCH  27  29
ATOM     29  O   UNL     1     -10.617  55.036  48.691  0.00  0.00    +0.000 OA
BRANCH  29  30
ATOM     30  C   UNL     1     -11.552  55.750  47.876  0.00  0.00    +0.000 C 
ATOM     31  C   UNL     1     -11.530  55.187  46.470  0.00  0.00    +0.000 C 
ENDBRANCH  29  30
ENDBRANCH  27  29
ENDBRANCH   3  27
TORSDOF 6
ENDMDL
MODEL 2
REMARK VINA RESULT:      -7.5      2.554      7.679
REMARK  Name = 
REMARK  9 active torsions:
REMARK  status: ('A' for Active; 'I' for Inactive)
REMARK    1  A    between atoms: S_1  and  N_4
REMARK    2  A    between atoms: S_1  and  C_5
REMARK    3  A    between atoms: N_10  and  C_13
REMARK    4  A    between atoms: C_16  and  C_19
REMARK    5  A    between atoms: C_19  and  O_23
REMARK    6  A    between atoms: O_23  and  C_26
REMARK    7  A    between atoms: C_24  and  C_27
REMARK    8  A    between atoms: C_24  and  C_28
REMARK    9  A    between atoms: C_26  and  C_29
REMARK                            x       y       z     vdW  Elec       q    Type
REMARK                         _______ _______ _______ _____ _____    ______ ____
ROOT
ATOM      1  C   UNL     1     -11.153  54.903  50.171  0.00  0.00    +0.000 A 
ATOM      2  S   UNL     1     -11.758  54.922  51.759  0.00  0.00    +0.000 S 
ATOM      3  C   UNL     1     -11.820  55.763  49.318  0.00  0.00    +0.000 A 
ATOM      4  C   UNL     1     -12.744  56.273  51.415  0.00  0.00    +0.000 A 
ATOM      5  C   UNL     1     -12.691  56.632  50.078  0.00  0.00    +0.000 A 
ATOM      6  C   UNL     1     -13.563  56.974  52.470  0.00  0.00    +0.000 C 
ATOM      7  C   UNL     1     -13.518  57.758  49.530  0.00  0.00    +0.000 C 
ATOM      8  C   UNL     1     -14.690  57.836  51.823  0.00  0.00    +0.000 C 
ATOM      9  C   UNL     1     -14.108  58.641  50.633  0.00  0.00    +0.000 C 
ATOM     10  C   UNL     1     -15.251  58.845  52.841  0.00  0.00    +0.000 C 
ATOM     11  C   UNL     1     -15.851  56.932  51.360  0.00  0.00    +0.000 C 
ENDROOT
BRANCH   1  15
ATOM     12  N   UNL     1      -7.784  53.655  50.054  0.00  0.00    +0.000 N 
ATOM     13  C   UNL     1      -8.805  54.580  50.238  0.00  0.00    +0.000 C 
ATOM     14  O   UNL     1      -8.592  55.694  50.694  0.00  0.00    +0.000 OA
ATOM     15  N   UNL     1     -10.062  54.076  49.963  0.00  0.00    +0.000 N 
ATOM     16  H   UNL     1      -8.022  52.770  49.693  0.00  0.00    +0.000 HD
ATOM     17  H   UNL     1     -10.179  53.156  49.630  0.00  0.00    +0.000 HD
BRANCH  12  18
ATOM     18  S   UNL     1      -6.181  53.951  50.404  0.00  0.00    +0.000 S 
ATOM     19  O   UNL     1      -5.804  55.287  50.010  0.00  0.00    +0.000 OA
ATOM     20  O   UNL     1      -5.466  52.800  49.883  0.00  0.00    +0.000 OA
BRANCH  18  21
ATOM     21  C   UNL     1      -6.124  53.837  52.183  0.00  0.00    +0.000 A 
ATOM     22  C   UNL     1      -5.977  54.997  52.953  0.00  0.00    +0.000 A 
ATOM     23  C   UNL     1      -6.312  52.598  52.805  0.00  0.00    +0.000 A 
ATOM     24  C   UNL     1      -5.994  54.910  54.346  0.00  0.00    +0.000 A 
ATOM     25  C   UNL     1      -6.322  52.518  54.199  0.00  0.00    +0.000 A 
ATOM     26  C   UNL     1      -6.165  53.672  54.967  0.00  0.00    +0.000 A 
ENDBRANCH  18  21
ENDBRANCH  12  18
ENDBRANCH   1  15
BRANCH   3  27
ATOM     27  C   UNL     1     -11.621  55.753  47.866  0.00  0.00    +0.000 C 
ATOM     28  O   UNL     1     -12.546  55.711  47.064  0.00  0.00    +0.000 OA
BRANCH  27  29
ATOM     29  O   UNL     1     -10.305  55.804  47.526  0.00  0.00    +0.000 OA
BRANCH  29  30
ATOM     30  C   UNL     1      -9.859  54.905  46.505  0.00  0.00    +0.000 C 
ATOM     31  C   UNL     1      -8.345  54.921  46.445  0.00  0.00    +0.000 C 
ENDBRANCH  29  30
ENDBRANCH  27  29
ENDBRANCH   3  27
TORSDOF 6
ENDMDL
MODEL 3
REMARK VINA RESULT:      -7.2      2.373      3.154
REMARK  Name = 
REMARK  9 active torsions:
REMARK  status: ('A' for Active; 'I' for Inactive)
REMARK    1  A    between atoms: S_1  and  N_4
REMARK    2  A    between atoms: S_1  and  C_5
REMARK    3  A    between atoms: N_10  and  C_13
REMARK    4  A    between atoms: C_16  and  C_19
REMARK    5  A    between atoms: C_19  and  O_23
REMARK    6  A    between atoms: O_23  and  C_26
REMARK    7  A    between atoms: C_24  and  C_27
REMARK    8  A    between atoms: C_24  and  C_28
REMARK    9  A    between atoms: C_26  and  C_29
REMARK                            x       y       z     vdW  Elec       q    Type
REMARK                         _______ _______ _______ _____ _____    ______ ____
ROOT
ATOM      1  C   UNL     1      -9.999  54.888  50.688  0.00  0.00    +0.000 A 
ATOM      2  S   UNL     1      -9.878  54.999  52.379  0.00  0.00    +0.000 S 
ATOM      3  C   UNL     1      -9.587  53.666  50.186  0.00  0.00    +0.000 A 
ATOM      4  C   UNL     1      -9.531  53.333  52.509  0.00  0.00    +0.000 A 
ATOM      5  C   UNL     1      -9.403  52.727  51.270  0.00  0.00    +0.000 A 
ATOM      6  C   UNL     1      -9.391  52.631  53.837  0.00  0.00    +0.000 C 
ATOM      7  C   UNL     1      -9.044  51.276  51.134  0.00  0.00    +0.000 C 
ATOM      8  C   UNL     1      -8.633  51.277  53.677  0.00  0.00    +0.000 C 
ATOM      9  C   UNL     1      -9.193  50.511  52.451  0.00  0.00    +0.000 C 
ATOM     10  C   UNL     1      -8.841  50.391  54.919  0.00  0.00    +0.000 C 
ATOM     11  C   UNL     1      -7.120  51.530  53.522  0.00  0.00    +0.000 C 
ENDROOT
BRANCH   1  15
ATOM     12  N   UNL     1     -12.337  57.235  49.292  0.00  0.00    +0.000 N 
ATOM     13  C   UNL     1     -11.899  56.054  49.880  0.00  0.00    +0.000 C 
ATOM     14  O   UNL     1     -12.681  55.203  50.279  0.00  0.00    +0.000 OA
ATOM     15  N   UNL     1     -10.530  56.001  50.058  0.00  0.00    +0.000 N 
ATOM     16  H   UNL     1     -11.657  57.886  49.001  0.00  0.00    +0.000 HD
ATOM     17  H   UNL     1      -9.948  56.733  49.747  0.00  0.00    +0.000 HD
BRANCH  12  18
ATOM     18  S   UNL     1     -13.941  57.618  49.048  0.00  0.00    +0.000 S 
ATOM     19  O   UNL     1     -14.644  56.526  48.421  0.00  0.00    +0.000 OA
ATOM     20  O   UNL     1     -13.921  58.932  48.430  0.00  0.00    +0.000 OA
BRANCH  18  21
ATOM     21  C   UNL     1     -14.566  57.832  50.704  0.00  0.00    +0.000 A 
ATOM     22  C   UNL     1     -15.299  56.806  51.313  0.00  0.00    +0.000 A 
ATOM     23  C   UNL     1     -14.249  58.991  51.422  0.00  0.00    +0.000 A 
ATOM     24  C   UNL     1     -15.735  56.952  52.631  0.00  0.00    +0.000 A 
ATOM     25  C   UNL     1     -14.693  59.134  52.738  0.00  0.00    +0.000 A 
ATOM     26  C   UNL     1     -15.433  58.116  53.340  0.00  0.00    +0.000 A 
ENDBRANCH  18  21
ENDBRANCH  12  18
ENDBRANCH   1  15
BRANCH   3  27
ATOM     27  C   UNL     1      -9.395  53.421  48.754  0.00  0.00    +0.000 C 
ATOM     28  O   UNL     1      -8.292  53.265  48.244  0.00  0.00    +0.000 OA
BRANCH  27  29
ATOM     29  O   UNL     1     -10.573  53.381  48.076  0.00  0.00    +0.000 OA
BRANCH  29  30
ATOM     30  C   UNL     1     -10.543  53.741  46.691  0.00  0.00    +0.000 C 
ATOM     31  C   UNL     1     -10.594  55.249  46.560  0.00  0.00    +0.000 C 
ENDBRANCH  29  30
ENDBRANCH  27  29
ENDBRANCH   3  27
TORSDOF 6
ENDMDL
MODEL 4
REMARK VINA RESULT:      -7.1      3.858      7.491
REMARK  Name = 
REMARK  9 active torsions:
REMARK  status: ('A' for Active; 'I' for Inactive)
REMARK    1  A    between atoms: S_1  and  N_4
REMARK    2  A    between atoms: S_1  and  C_5
REMARK    3  A    between atoms: N_10  and  C_13
REMARK    4  A    between atoms: C_16  and  C_19
REMARK    5  A    between atoms: C_19  and  O_23
REMARK    6  A    between atoms: O_23  and  C_26
REMARK    7  A    between atoms: C_24  and  C_27
REMARK    8  A    between atoms: C_24  and  C_28
REMARK    9  A    between atoms: C_26  and  C_29
REMARK                            x       y       z     vdW  Elec       q    Type
REMARK                         _______ _______ _______ _____ _____    ______ ____
ROOT
ATOM      1  C   UNL     1     -11.444  54.658  49.903  0.00  0.00    +0.000 A 
ATOM      2  S   UNL     1     -12.133  54.631  51.456  0.00  0.00    +0.000 S 
ATOM      3  C   UNL     1     -11.931  55.675  49.102  0.00  0.00    +0.000 A 
ATOM      4  C   UNL     1     -12.897  56.135  51.191  0.00  0.00    +0.000 A 
ATOM      5  C   UNL     1     -12.714  56.594  49.897  0.00  0.00    +0.000 A 
ATOM      6  C   UNL     1     -13.670  56.856  52.267  0.00  0.00    +0.000 C 
ATOM      7  C   UNL     1     -13.341  57.871  49.417  0.00  0.00    +0.000 C 
ATOM      8  C   UNL     1     -14.624  57.924  51.650  0.00  0.00    +0.000 C 
ATOM      9  C   UNL     1     -13.864  58.733  50.567  0.00  0.00    +0.000 C 
ATOM     10  C   UNL     1     -15.097  58.915  52.729  0.00  0.00    +0.000 C 
ATOM     11  C   UNL     1     -15.871  57.242  51.052  0.00  0.00    +0.000 C 
ENDROOT
BRANCH   1  15
ATOM     12  N   UNL     1      -9.764  51.705  48.726  0.00  0.00    +0.000 N 
ATOM     13  C   UNL     1     -10.825  52.574  48.955  0.00  0.00    +0.000 C 
ATOM     14  O   UNL     1     -11.932  52.381  48.474  0.00  0.00    +0.000 OA
ATOM     15  N   UNL     1     -10.470  53.701  49.671  0.00  0.00    +0.000 N 
ATOM     16  H   UNL     1      -8.893  51.922  49.133  0.00  0.00    +0.000 HD
ATOM     17  H   UNL     1      -9.551  53.822  50.006  0.00  0.00    +0.000 HD
BRANCH  12  18
ATOM     18  S   UNL     1      -9.873  50.318  47.807  0.00  0.00    +0.000 S 
ATOM     19  O   UNL     1     -11.142  49.662  48.011  0.00  0.00    +0.000 OA
ATOM     20  O   UNL     1      -8.630  49.610  48.051  0.00  0.00    +0.000 OA
BRANCH  18  21
ATOM     21  C   UNL     1      -9.803  50.931  46.134  0.00  0.00    +0.000 A 
ATOM     22  C   UNL     1      -8.564  51.184  45.534  0.00  0.00    +0.000 A 
ATOM     23  C   UNL     1     -10.984  51.076  45.398  0.00  0.00    +0.000 A 
ATOM     24  C   UNL     1      -8.511  51.606  44.204  0.00  0.00    +0.000 A 
ATOM     25  C   UNL     1     -10.925  51.503  44.070  0.00  0.00    +0.000 A 
ATOM     26  C   UNL     1      -9.691  51.766  43.475  0.00  0.00    +0.000 A 
ENDBRANCH  18  21
ENDBRANCH  12  18
ENDBRANCH   1  15
BRANCH   3  27
ATOM     27  C   UNL     1     -11.649  55.758  47.666  0.00  0.00    +0.000 C 
ATOM     28  O   UNL     1     -12.523  55.913  46.821  0.00  0.00    +0.000 OA
BRANCH  27  29
ATOM     29  O   UNL     1     -10.321  55.653  47.395  0.00  0.00    +0.000 OA
BRANCH  29  30
ATOM     30  C   UNL     1      -9.942  54.811  46.301  0.00  0.00    +0.000 C 
ATOM     31  C   UNL     1      -8.449  54.922  46.071  0.00  0.00    +0.000 C 
ENDBRANCH  29  30
ENDBRANCH  27  29
ENDBRANCH   3  27
TORSDOF 6
ENDMDL
MODEL 5
REMARK VINA RESULT:      -7.1      3.009      8.152
REMARK  Name = 
REMARK  9 active torsions:
REMARK  status: ('A' for Active; 'I' for Inactive)
REMARK    1  A    between atoms: S_1  and  N_4
REMARK    2  A    between atoms: S_1  and  C_5
REMARK    3  A    between atoms: N_10  and  C_13
REMARK    4  A    between atoms: C_16  and  C_19
REMARK    5  A    between atoms: C_19  and  O_23
REMARK    6  A    between atoms: O_23  and  C_26
REMARK    7  A    between atoms: C_24  and  C_27
REMARK    8  A    between atoms: C_24  and  C_28
REMARK    9  A    between atoms: C_26  and  C_29
REMARK                            x       y       z     vdW  Elec       q    Type
REMARK                         _______ _______ _______ _____ _____    ______ ____
ROOT
ATOM      1  C   UNL     1     -10.985  55.030  50.267  0.00  0.00    +0.000 A 
ATOM      2  S   UNL     1     -11.564  55.092  51.864  0.00  0.00    +0.000 S 
ATOM      3  C   UNL     1     -11.717  55.805  49.386  0.00  0.00    +0.000 A 
ATOM      4  C   UNL     1     -12.638  56.361  51.473  0.00  0.00    +0.000 A 
ATOM      5  C   UNL     1     -12.628  56.656  50.119  0.00  0.00    +0.000 A 
ATOM      6  C   UNL     1     -13.482  57.062  52.508  0.00  0.00    +0.000 C 
ATOM      7  C   UNL     1     -13.532  57.701  49.533  0.00  0.00    +0.000 C 
ATOM      8  C   UNL     1     -14.670  57.820  51.841  0.00  0.00    +0.000 C 
ATOM      9  C   UNL     1     -14.158  58.599  50.602  0.00  0.00    +0.000 C 
ATOM     10  C   UNL     1     -15.277  58.842  52.819  0.00  0.00    +0.000 C 
ATOM     11  C   UNL     1     -15.780  56.825  51.444  0.00  0.00    +0.000 C 
ENDROOT
BRANCH   1  15
ATOM     12  N   UNL     1      -7.542  54.016  50.056  0.00  0.00    +0.000 N 
ATOM     13  C   UNL     1      -8.619  54.883  50.205  0.00  0.00    +0.000 C 
ATOM     14  O   UNL     1      -8.465  56.056  50.512  0.00  0.00    +0.000 OA
ATOM     15  N   UNL     1      -9.848  54.263  50.080  0.00  0.00    +0.000 N 
ATOM     16  H   UNL     1      -7.733  53.079  49.818  0.00  0.00    +0.000 HD
ATOM     17  H   UNL     1      -9.913  53.303  49.864  0.00  0.00    +0.000 HD
BRANCH  12  18
ATOM     18  S   UNL     1      -5.949  54.463  50.255  0.00  0.00    +0.000 S 
ATOM     19  O   UNL     1      -5.596  54.510  51.653  0.00  0.00    +0.000 OA
ATOM     20  O   UNL     1      -5.782  55.634  49.413  0.00  0.00    +0.000 OA
BRANCH  18  21
ATOM     21  C   UNL     1      -5.051  53.132  49.479  0.00  0.00    +0.000 A 
ATOM     22  C   UNL     1      -5.083  51.849  50.037  0.00  0.00    +0.000 A 
ATOM     23  C   UNL     1      -4.389  53.356  48.267  0.00  0.00    +0.000 A 
ATOM     24  C   UNL     1      -4.429  50.796  49.394  0.00  0.00    +0.000 A 
ATOM     25  C   UNL     1      -3.732  52.301  47.631  0.00  0.00    +0.000 A 
ATOM     26  C   UNL     1      -3.754  51.024  48.194  0.00  0.00    +0.000 A 
ENDBRANCH  18  21
ENDBRANCH  12  18
ENDBRANCH   1  15
BRANCH   3  27
ATOM     27  C   UNL     1     -11.540  55.735  47.933  0.00  0.00    +0.000 C 
ATOM     28  O   UNL     1     -12.477  55.632  47.149  0.00  0.00    +0.000 OA
BRANCH  27  29
ATOM     29  O   UNL     1     -10.232  55.807  47.569  0.00  0.00    +0.000 OA
BRANCH  29  30
ATOM     30  C   UNL     1      -9.775  54.873  46.585  0.00  0.00    +0.000 C 
ATOM     31  C   UNL     1      -8.266  54.945  46.482  0.00  0.00    +0.000 C 
ENDBRANCH  29  30
ENDBRANCH  27  29
ENDBRANCH   3  27
TORSDOF 6
ENDMDL
MODEL 6
REMARK VINA RESULT:      -7.0      2.150      2.673
REMARK  Name = 
REMARK  9 active torsions:
REMARK  status: ('A' for Active; 'I' for Inactive)
REMARK    1  A    between atoms: S_1  and  N_4
REMARK    2  A    between atoms: S_1  and  C_5
REMARK    3  A    between atoms: N_10  and  C_13
REMARK    4  A    between atoms: C_16  and  C_19
REMARK    5  A    between atoms: C_19  and  O_23
REMARK    6  A    between atoms: O_23  and  C_26
REMARK    7  A    between atoms: C_24  and  C_27
REMARK    8  A    between atoms: C_24  and  C_28
REMARK    9  A    between atoms: C_26  and  C_29
REMARK                            x       y       z     vdW  Elec       q    Type
REMARK                         _______ _______ _______ _____ _____    ______ ____
ROOT
ATOM      1  C   UNL     1     -11.346  53.365  50.392  0.00  0.00    +0.000 A 
ATOM      2  S   UNL     1     -10.742  52.158  51.425  0.00  0.00    +0.000 S 
ATOM      3  C   UNL     1     -10.475  53.704  49.372  0.00  0.00    +0.000 A 
ATOM      4  C   UNL     1      -9.421  51.866  50.384  0.00  0.00    +0.000 A 
ATOM      5  C   UNL     1      -9.386  52.753  49.320  0.00  0.00    +0.000 A 
ATOM      6  C   UNL     1      -8.426  50.757  50.621  0.00  0.00    +0.000 C 
ATOM      7  C   UNL     1      -8.283  52.723  48.303  0.00  0.00    +0.000 C 
ATOM      8  C   UNL     1      -7.110  51.005  49.823  0.00  0.00    +0.000 C 
ATOM      9  C   UNL     1      -7.457  51.436  48.375  0.00  0.00    +0.000 C 
ATOM     10  C   UNL     1      -6.277  49.713  49.739  0.00  0.00    +0.000 C 
ATOM     11  C   UNL     1      -6.255  52.077  50.526  0.00  0.00    +0.000 C 
ENDROOT
BRANCH   1  15
ATOM     12  N   UNL     1     -14.095  55.406  51.489  0.00  0.00    +0.000 N 
ATOM     13  C   UNL     1     -12.770  55.032  51.297  0.00  0.00    +0.000 C 
ATOM     14  O   UNL     1     -11.842  55.779  51.568  0.00  0.00    +0.000 OA
ATOM     15  N   UNL     1     -12.627  53.803  50.679  0.00  0.00    +0.000 N 
ATOM     16  H   UNL     1     -14.797  54.762  51.239  0.00  0.00    +0.000 HD
ATOM     17  H   UNL     1     -13.414  53.256  50.450  0.00  0.00    +0.000 HD
BRANCH  12  18
ATOM     18  S   UNL     1     -14.569  56.877  52.115  0.00  0.00    +0.000 S 
ATOM     19  O   UNL     1     -13.688  57.292  53.180  0.00  0.00    +0.000 OA
ATOM     20  O   UNL     1     -15.995  56.740  52.350  0.00  0.00    +0.000 OA
BRANCH  18  21
ATOM     21  C   UNL     1     -14.372  57.991  50.737  0.00  0.00    +0.000 A 
ATOM     22  C   UNL     1     -14.137  57.481  49.455  0.00  0.00    +0.000 A 
ATOM     23  C   UNL     1     -14.539  59.367  50.928  0.00  0.00    +0.000 A 
ATOM     24  C   UNL     1     -14.044  58.353  48.368  0.00  0.00    +0.000 A 
ATOM     25  C   UNL     1     -14.440  60.234  49.838  0.00  0.00    +0.000 A 
ATOM     26  C   UNL     1     -14.194  59.727  48.562  0.00  0.00    +0.000 A 
ENDBRANCH  18  21
ENDBRANCH  12  18
ENDBRANCH   1  15
BRANCH   3  27
ATOM     27  C   UNL     1     -10.686  54.862  48.501  0.00  0.00    +0.000 C 
ATOM     28  O   UNL     1      -9.890  55.791  48.419  0.00  0.00    +0.000 OA
BRANCH  27  29
ATOM     29  O   UNL     1     -11.848  54.776  47.801  0.00  0.00    +0.000 OA
BRANCH  29  30
ATOM     30  C   UNL     1     -11.814  55.170  46.425  0.00  0.00    +0.000 C 
ATOM     31  C   UNL     1     -11.176  54.071  45.601  0.00  0.00    +0.000 C 
ENDBRANCH  29  30
ENDBRANCH  27  29
ENDBRANCH   3  27
TORSDOF 6
ENDMDL
MODEL 7
REMARK VINA RESULT:      -6.9      2.409      3.495
REMARK  Name = 
REMARK  9 active torsions:
REMARK  status: ('A' for Active; 'I' for Inactive)
REMARK    1  A    between atoms: S_1  and  N_4
REMARK    2  A    between atoms: S_1  and  C_5
REMARK    3  A    between atoms: N_10  and  C_13
REMARK    4  A    between atoms: C_16  and  C_19
REMARK    5  A    between atoms: C_19  and  O_23
REMARK    6  A    between atoms: O_23  and  C_26
REMARK    7  A    between atoms: C_24  and  C_27
REMARK    8  A    between atoms: C_24  and  C_28
REMARK    9  A    between atoms: C_26  and  C_29
REMARK                            x       y       z     vdW  Elec       q    Type
REMARK                         _______ _______ _______ _____ _____    ______ ____
ROOT
ATOM      1  C   UNL     1      -9.846  54.930  50.961  0.00  0.00    +0.000 A 
ATOM      2  S   UNL     1     -10.127  54.907  52.637  0.00  0.00    +0.000 S 
ATOM      3  C   UNL     1      -9.142  53.830  50.505  0.00  0.00    +0.000 A 
ATOM      4  C   UNL     1      -9.554  53.303  52.755  0.00  0.00    +0.000 A 
ATOM      5  C   UNL     1      -9.056  52.834  51.550  0.00  0.00    +0.000 A 
ATOM      6  C   UNL     1      -9.605  52.513  54.039  0.00  0.00    +0.000 C 
ATOM      7  C   UNL     1      -8.448  51.468  51.426  0.00  0.00    +0.000 C 
ATOM      8  C   UNL     1      -8.623  51.302  53.991  0.00  0.00    +0.000 C 
ATOM      9  C   UNL     1      -8.764  50.576  52.628  0.00  0.00    +0.000 C 
ATOM     10  C   UNL     1      -8.959  50.288  55.099  0.00  0.00    +0.000 C 
ATOM     11  C   UNL     1      -7.175  51.783  54.210  0.00  0.00    +0.000 C 
ENDROOT
BRANCH   1  15
ATOM     12  N   UNL     1     -12.216  57.155  49.425  0.00  0.00    +0.000 N 
ATOM     13  C   UNL     1     -11.758  56.006  50.059  0.00  0.00    +0.000 C 
ATOM     14  O   UNL     1     -12.522  55.138  50.454  0.00  0.00    +0.000 OA
ATOM     15  N   UNL     1     -10.394  56.007  50.284  0.00  0.00    +0.000 N 
ATOM     16  H   UNL     1     -11.550  57.822  49.140  0.00  0.00    +0.000 HD
ATOM     17  H   UNL     1      -9.829  56.752  49.973  0.00  0.00    +0.000 HD
BRANCH  12  18
ATOM     18  S   UNL     1     -13.824  57.474  49.118  0.00  0.00    +0.000 S 
ATOM     19  O   UNL     1     -14.475  56.327  48.532  0.00  0.00    +0.000 OA
ATOM     20  O   UNL     1     -13.825  58.753  48.430  0.00  0.00    +0.000 OA
BRANCH  18  21
ATOM     21  C   UNL     1     -14.502  57.755  50.743  0.00  0.00    +0.000 A 
ATOM     22  C   UNL     1     -15.209  56.736  51.391  0.00  0.00    +0.000 A 
ATOM     23  C   UNL     1     -14.252  58.965  51.399  0.00  0.00    +0.000 A 
ATOM     24  C   UNL     1     -15.687  56.939  52.687  0.00  0.00    +0.000 A 
ATOM     25  C   UNL     1     -14.737  59.164  52.693  0.00  0.00    +0.000 A 
ATOM     26  C   UNL     1     -15.452  58.152  53.335  0.00  0.00    +0.000 A 
ENDBRANCH  18  21
ENDBRANCH  12  18
ENDBRANCH   1  15
BRANCH   3  27
ATOM     27  C   UNL     1      -8.597  53.744  49.148  0.00  0.00    +0.000 C 
ATOM     28  O   UNL     1      -9.302  53.672  48.148  0.00  0.00    +0.000 OA
BRANCH  27  29
ATOM     29  O   UNL     1      -7.238  53.762  49.136  0.00  0.00    +0.000 OA
BRANCH  29  30
ATOM     30  C   UNL     1      -6.601  55.044  49.108  0.00  0.00    +0.000 C 
ATOM     31  C   UNL     1      -5.122  54.880  49.387  0.00  0.00    +0.000 C 
ENDBRANCH  29  30
ENDBRANCH  27  29
ENDBRANCH   3  27
TORSDOF 6
ENDMDL
MODEL 8
REMARK VINA RESULT:      -6.8      1.877      2.715
REMARK  Name = 
REMARK  9 active torsions:
REMARK  status: ('A' for Active; 'I' for Inactive)
REMARK    1  A    between atoms: S_1  and  N_4
REMARK    2  A    between atoms: S_1  and  C_5
REMARK    3  A    between atoms: N_10  and  C_13
REMARK    4  A    between atoms: C_16  and  C_19
REMARK    5  A    between atoms: C_19  and  O_23
REMARK    6  A    between atoms: O_23  and  C_26
REMARK    7  A    between atoms: C_24  and  C_27
REMARK    8  A    between atoms: C_24  and  C_28
REMARK    9  A    between atoms: C_26  and  C_29
REMARK                            x       y       z     vdW  Elec       q    Type
REMARK                         _______ _______ _______ _____ _____    ______ ____
ROOT
ATOM      1  C   UNL     1     -10.697  54.029  50.552  0.00  0.00    +0.000 A 
ATOM      2  S   UNL     1      -9.766  54.933  51.648  0.00  0.00    +0.000 S 
ATOM      3  C   UNL     1      -9.941  53.371  49.599  0.00  0.00    +0.000 A 
ATOM      4  C   UNL     1      -8.319  54.255  51.046  0.00  0.00    +0.000 A 
ATOM      5  C   UNL     1      -8.541  53.433  49.953  0.00  0.00    +0.000 A 
ATOM      6  C   UNL     1      -6.970  54.535  51.661  0.00  0.00    +0.000 C 
ATOM      7  C   UNL     1      -7.410  52.769  49.223  0.00  0.00    +0.000 C 
ATOM      8  C   UNL     1      -5.819  54.188  50.669  0.00  0.00    +0.000 C 
ATOM      9  C   UNL     1      -6.100  52.813  50.011  0.00  0.00    +0.000 C 
ATOM     10  C   UNL     1      -4.475  54.086  51.413  0.00  0.00    +0.000 C 
ATOM     11  C   UNL     1      -5.688  55.292  49.600  0.00  0.00    +0.000 C 
ENDROOT
BRANCH   1  15
ATOM     12  N   UNL     1     -14.158  55.002  50.571  0.00  0.00    +0.000 N 
ATOM     13  C   UNL     1     -12.793  55.118  50.336  0.00  0.00    +0.000 C 
ATOM     14  O   UNL     1     -12.324  56.052  49.703  0.00  0.00    +0.000 OA
ATOM     15  N   UNL     1     -12.062  54.036  50.788  0.00  0.00    +0.000 N 
ATOM     16  H   UNL     1     -14.475  54.220  51.079  0.00  0.00    +0.000 HD
ATOM     17  H   UNL     1     -12.498  53.291  51.264  0.00  0.00    +0.000 HD
BRANCH  12  18
ATOM     18  S   UNL     1     -15.293  56.106  50.046  0.00  0.00    +0.000 S 
ATOM     19  O   UNL     1     -16.614  55.527  50.046  0.00  0.00    +0.000 OA
ATOM     20  O   UNL     1     -14.734  56.666  48.829  0.00  0.00    +0.000 OA
BRANCH  18  21
ATOM     21  C   UNL     1     -15.223  57.384  51.287  0.00  0.00    +0.000 A 
ATOM     22  C   UNL     1     -15.088  58.724  50.904  0.00  0.00    +0.000 A 
ATOM     23  C   UNL     1     -15.390  57.052  52.636  0.00  0.00    +0.000 A 
ATOM     24  C   UNL     1     -15.095  59.727  51.874  0.00  0.00    +0.000 A 
ATOM     25  C   UNL     1     -15.391  58.059  53.603  0.00  0.00    +0.000 A 
ATOM     26  C   UNL     1     -15.244  59.394  53.221  0.00  0.00    +0.000 A 
ENDBRANCH  18  21
ENDBRANCH  12  18
ENDBRANCH   1  15
BRANCH   3  27
ATOM     27  C   UNL     1     -10.534  52.716  48.430  0.00  0.00    +0.000 C 
ATOM     28  O   UNL     1     -11.016  51.590  48.466  0.00  0.00    +0.000 OA
BRANCH  27  29
ATOM     29  O   UNL     1     -10.492  53.504  47.322  0.00  0.00    +0.000 OA
BRANCH  29  30
ATOM     30  C   UNL     1     -11.742  53.970  46.803  0.00  0.00    +0.000 C 
ATOM     31  C   UNL     1     -11.630  55.441  46.462  0.00  0.00    +0.000 C 
ENDBRANCH  29  30
ENDBRANCH  27  29
ENDBRANCH   3  27
TORSDOF 6
ENDMDL
MODEL 9
REMARK VINA RESULT:      -6.7      2.785      8.399
REMARK  Name = 
REMARK  9 active torsions:
REMARK  status: ('A' for Active; 'I' for Inactive)
REMARK    1  A    between atoms: S_1  and  N_4
REMARK    2  A    between atoms: S_1  and  C_5
REMARK    3  A    between atoms: N_10  and  C_13
REMARK    4  A    between atoms: C_16  and  C_19
REMARK    5  A    between atoms: C_19  and  O_23
REMARK    6  A    between atoms: O_23  and  C_26
REMARK    7  A    between atoms: C_24  and  C_27
REMARK    8  A    between atoms: C_24  and  C_28
REMARK    9  A    between atoms: C_26  and  C_29
REMARK                            x       y       z     vdW  Elec       q    Type
REMARK                         _______ _______ _______ _____ _____    ______ ____
ROOT
ATOM      1  C   UNL     1     -10.880  54.523  50.736  0.00  0.00    +0.000 A 
ATOM      2  S   UNL     1     -11.628  55.230  52.089  0.00  0.00    +0.000 S 
ATOM      3  C   UNL     1     -11.491  54.846  49.538  0.00  0.00    +0.000 A 
ATOM      4  C   UNL     1     -12.619  56.198  51.091  0.00  0.00    +0.000 A 
ATOM      5  C   UNL     1     -12.454  55.905  49.747  0.00  0.00    +0.000 A 
ATOM      6  C   UNL     1     -13.551  57.248  51.642  0.00  0.00    +0.000 C 
ATOM      7  C   UNL     1     -13.261  56.592  48.685  0.00  0.00    +0.000 C 
ATOM      8  C   UNL     1     -14.640  57.635  50.594  0.00  0.00    +0.000 C 
ATOM      9  C   UNL     1     -13.975  57.840  49.209  0.00  0.00    +0.000 C 
ATOM     10  C   UNL     1     -15.322  58.958  50.987  0.00  0.00    +0.000 C 
ATOM     11  C   UNL     1     -15.726  56.542  50.527  0.00  0.00    +0.000 C 
ENDROOT
BRANCH   1  15
ATOM     12  N   UNL     1      -7.492  53.603  51.508  0.00  0.00    +0.000 N 
ATOM     13  C   UNL     1      -8.552  54.440  51.179  0.00  0.00    +0.000 C 
ATOM     14  O   UNL     1      -8.428  55.656  51.146  0.00  0.00    +0.000 OA
ATOM     15  N   UNL     1      -9.750  53.772  51.010  0.00  0.00    +0.000 N 
ATOM     16  H   UNL     1      -7.658  52.633  51.529  0.00  0.00    +0.000 HD
ATOM     17  H   UNL     1      -9.799  52.790  51.083  0.00  0.00    +0.000 HD
BRANCH  12  18
ATOM     18  S   UNL     1      -5.955  54.140  51.869  0.00  0.00    +0.000 S 
ATOM     19  O   UNL     1      -5.967  54.998  53.028  0.00  0.00    +0.000 OA
ATOM     20  O   UNL     1      -5.420  54.616  50.606  0.00  0.00    +0.000 OA
BRANCH  18  21
ATOM     21  C   UNL     1      -5.081  52.638  52.271  0.00  0.00    +0.000 A 
ATOM     22  C   UNL     1      -5.403  51.445  51.613  0.00  0.00    +0.000 A 
ATOM     23  C   UNL     1      -4.019  52.676  53.181  0.00  0.00    +0.000 A 
ATOM     24  C   UNL     1      -4.676  50.285  51.886  0.00  0.00    +0.000 A 
ATOM     25  C   UNL     1      -3.300  51.511  53.454  0.00  0.00    +0.000 A 
ATOM     26  C   UNL     1      -3.628  50.319  52.807  0.00  0.00    +0.000 A 
ENDBRANCH  18  21
ENDBRANCH  12  18
ENDBRANCH   1  15
BRANCH   3  27
ATOM     27  C   UNL     1     -11.160  54.183  48.274  0.00  0.00    +0.000 C 
ATOM     28  O   UNL     1     -12.004  53.694  47.534  0.00  0.00    +0.000 OA
BRANCH  27  29
ATOM     29  O   UNL     1      -9.822  54.185  48.027  0.00  0.00    +0.000 OA
BRANCH  29  30
ATOM     30  C   UNL     1      -9.261  55.383  47.480  0.00  0.00    +0.000 C 
ATOM     31  C   UNL     1      -8.565  55.064  46.173  0.00  0.00    +0.000 C 
ENDBRANCH  29  30
ENDBRANCH  27  29
ENDBRANCH   3  27
TORSDOF 6
ENDMDL
