MODEL 1
REMARK VINA RESULT:      -7.7      0.000      0.000
REMARK  Name = 
REMARK  9 active torsions:
REMARK  status: ('A' for Active; 'I' for Inactive)
REMARK    1  A    between atoms: S_1  and  N_4
REMARK    2  A    between atoms: S_1  and  C_5
REMARK    3  A    between atoms: N_10  and  C_13
REMARK    4  A    between atoms: C_16  and  C_19
REMARK    5  A    between atoms: C_19  and  O_23
REMARK    6  A    between atoms: O_23  and  C_26
REMARK    7  A    between atoms: C_24  and  C_27
REMARK    8  A    between atoms: C_24  and  C_28
REMARK    9  A    between atoms: C_26  and  C_29
REMARK                            x       y       z     vdW  Elec       q    Type
REMARK                         _______ _______ _______ _____ _____    ______ ____
ROOT
ATOM      1  C   UNL     1     -11.016  54.338  51.538  0.00  0.00    +0.000 A 
ATOM      2  S   UNL     1     -10.598  53.770  53.085  0.00  0.00    +0.000 S 
ATOM      3  C   UNL     1      -9.928  54.782  50.803  0.00  0.00    +0.000 A 
ATOM      4  C   UNL     1      -8.937  53.828  52.706  0.00  0.00    +0.000 A 
ATOM      5  C   UNL     1      -8.706  54.376  51.457  0.00  0.00    +0.000 A 
ATOM      6  C   UNL     1      -7.872  53.332  53.653  0.00  0.00    +0.000 C 
ATOM      7  C   UNL     1      -7.313  54.574  50.926  0.00  0.00    +0.000 C 
ATOM      8  C   UNL     1      -6.472  53.900  53.270  0.00  0.00    +0.000 C 
ATOM      9  C   UNL     1      -6.271  53.790  51.734  0.00  0.00    +0.000 C 
ATOM     10  C   UNL     1      -5.358  53.087  53.956  0.00  0.00    +0.000 C 
ATOM     11  C   UNL     1      -6.346  55.364  53.739  0.00  0.00    +0.000 C 
ENDROOT
BRANCH   1  15
ATOM     12  N   UNL     1     -14.494  55.218  51.268  0.00  0.00    +0.000 N 
ATOM     13  C   UNL     1     -13.144  55.361  51.555  0.00  0.00    +0.000 C 
ATOM     14  O   UNL     1     -12.702  56.413  52.005  0.00  0.00    +0.000 OA
ATOM     15  N   UNL     1     -12.364  54.271  51.235  0.00  0.00    +0.000 N 
ATOM     16  H   UNL     1     -14.834  54.345  50.967  0.00  0.00    +0.000 HD
ATOM     17  H   UNL     1     -12.753  53.475  50.807  0.00  0.00    +0.000 HD
BRANCH  12  18
ATOM     18  S   UNL     1     -15.559  56.508  51.425  0.00  0.00    +0.000 S 
ATOM     19  O   UNL     1     -15.698  56.806  52.838  0.00  0.00    +0.000 OA
ATOM     20  O   UNL     1     -16.733  56.118  50.658  0.00  0.00    +0.000 OA
BRANCH  18  21
ATOM     21  C   UNL     1     -14.752  57.871  50.554  0.00  0.00    +0.000 A 
ATOM     22  N   UNL     1     -14.584  59.003  51.282  0.00  0.00    +0.000 NA
ATOM     23  N   UNL     1     -14.409  57.662  49.267  0.00  0.00    +0.000 NA
ATOM     24  C   UNL     1     -13.982  60.004  50.615  0.00  0.00    +0.000 A 
ATOM     25  C   UNL     1     -13.849  58.722  48.658  0.00  0.00    +0.000 A 
ATOM     26  C   UNL     1     -13.601  59.922  49.291  0.00  0.00    +0.000 A 
ENDBRANCH  18  21
ENDBRANCH  12  18
ENDBRANCH   1  15
BRANCH   3  27
ATOM     27  C   UNL     1     -10.012  55.593  49.575  0.00  0.00    +0.000 C 
ATOM     28  O   UNL     1      -9.686  56.775  49.526  0.00  0.00    +0.000 OA
BRANCH  27  29
ATOM     29  O   UNL     1     -10.641  54.934  48.560  0.00  0.00    +0.000 OA
BRANCH  29  30
ATOM     30  C   UNL     1     -11.813  55.527  47.996  0.00  0.00    +0.000 C 
ATOM     31  C   UNL     1     -11.759  55.504  46.482  0.00  0.00    +0.000 C 
ENDBRANCH  29  30
ENDBRANCH  27  29
ENDBRANCH   3  27
TORSDOF 6
ENDMDL
MODEL 2
REMARK VINA RESULT:      -7.6      3.037      7.629
REMARK  Name = 
REMARK  9 active torsions:
REMARK  status: ('A' for Active; 'I' for Inactive)
REMARK    1  A    between atoms: S_1  and  N_4
REMARK    2  A    between atoms: S_1  and  C_5
REMARK    3  A    between atoms: N_10  and  C_13
REMARK    4  A    between atoms: C_16  and  C_19
REMARK    5  A    between atoms: C_19  and  O_23
REMARK    6  A    between atoms: O_23  and  C_26
REMARK    7  A    between atoms: C_24  and  C_27
REMARK    8  A    between atoms: C_24  and  C_28
REMARK    9  A    between atoms: C_26  and  C_29
REMARK                            x       y       z     vdW  Elec       q    Type
REMARK                         _______ _______ _______ _____ _____    ______ ____
ROOT
ATOM      1  C   UNL     1     -11.077  54.900  50.207  0.00  0.00    +0.000 A 
ATOM      2  S   UNL     1     -11.759  54.903  51.764  0.00  0.00    +0.000 S 
ATOM      3  C   UNL     1     -11.705  55.771  49.330  0.00  0.00    +0.000 A 
ATOM      4  C   UNL     1     -12.713  56.267  51.393  0.00  0.00    +0.000 A 
ATOM      5  C   UNL     1     -12.590  56.644  50.067  0.00  0.00    +0.000 A 
ATOM      6  C   UNL     1     -13.579  56.953  52.420  0.00  0.00    +0.000 C 
ATOM      7  C   UNL     1     -13.374  57.792  49.496  0.00  0.00    +0.000 C 
ATOM      8  C   UNL     1     -14.654  57.852  51.736  0.00  0.00    +0.000 C 
ATOM      9  C   UNL     1     -13.993  58.669  50.592  0.00  0.00    +0.000 C 
ATOM     10  C   UNL     1     -15.246  58.847  52.752  0.00  0.00    +0.000 C 
ATOM     11  C   UNL     1     -15.809  56.984  51.197  0.00  0.00    +0.000 C 
ENDROOT
BRANCH   1  15
ATOM     12  N   UNL     1      -7.705  53.656  50.066  0.00  0.00    +0.000 N 
ATOM     13  C   UNL     1      -8.745  54.547  50.293  0.00  0.00    +0.000 C 
ATOM     14  O   UNL     1      -8.529  55.668  50.741  0.00  0.00    +0.000 OA
ATOM     15  N   UNL     1     -10.003  54.046  50.040  0.00  0.00    +0.000 N 
ATOM     16  H   UNL     1      -7.896  52.786  49.649  0.00  0.00    +0.000 HD
ATOM     17  H   UNL     1     -10.132  53.113  49.752  0.00  0.00    +0.000 HD
BRANCH  12  18
ATOM     18  S   UNL     1      -6.124  54.037  50.491  0.00  0.00    +0.000 S 
ATOM     19  O   UNL     1      -5.838  55.374  50.007  0.00  0.00    +0.000 OA
ATOM     20  O   UNL     1      -5.329  52.917  50.008  0.00  0.00    +0.000 OA
BRANCH  18  21
ATOM     21  C   UNL     1      -6.116  53.988  52.297  0.00  0.00    +0.000 A 
ATOM     22  N   UNL     1      -6.330  52.766  52.844  0.00  0.00    +0.000 NA
ATOM     23  N   UNL     1      -5.922  55.156  52.944  0.00  0.00    +0.000 NA
ATOM     24  C   UNL     1      -6.320  52.753  54.189  0.00  0.00    +0.000 A 
ATOM     25  C   UNL     1      -5.967  55.067  54.285  0.00  0.00    +0.000 A 
ATOM     26  C   UNL     1      -6.152  53.882  54.965  0.00  0.00    +0.000 A 
ENDBRANCH  18  21
ENDBRANCH  12  18
ENDBRANCH   1  15
BRANCH   3  27
ATOM     27  C   UNL     1     -11.537  55.764  47.865  0.00  0.00    +0.000 C 
ATOM     28  O   UNL     1     -12.463  55.568  47.083  0.00  0.00    +0.000 OA
BRANCH  27  29
ATOM     29  O   UNL     1     -10.227  55.832  47.494  0.00  0.00    +0.000 OA
BRANCH  29  30
ATOM     30  C   UNL     1      -9.746  54.878  46.543  0.00  0.00    +0.000 C 
ATOM     31  C   UNL     1      -8.232  54.861  46.508  0.00  0.00    +0.000 C 
ENDBRANCH  29  30
ENDBRANCH  27  29
ENDBRANCH   3  27
TORSDOF 6
ENDMDL
MODEL 3
REMARK VINA RESULT:      -7.2      3.594      8.117
REMARK  Name = 
REMARK  9 active torsions:
REMARK  status: ('A' for Active; 'I' for Inactive)
REMARK    1  A    between atoms: S_1  and  N_4
REMARK    2  A    between atoms: S_1  and  C_5
REMARK    3  A    between atoms: N_10  and  C_13
REMARK    4  A    between atoms: C_16  and  C_19
REMARK    5  A    between atoms: C_19  and  O_23
REMARK    6  A    between atoms: O_23  and  C_26
REMARK    7  A    between atoms: C_24  and  C_27
REMARK    8  A    between atoms: C_24  and  C_28
REMARK    9  A    between atoms: C_26  and  C_29
REMARK                            x       y       z     vdW  Elec       q    Type
REMARK                         _______ _______ _______ _____ _____    ______ ____
ROOT
ATOM      1  C   UNL     1     -10.927  54.944  50.350  0.00  0.00    +0.000 A 
ATOM      2  S   UNL     1     -11.568  54.998  51.923  0.00  0.00    +0.000 S 
ATOM      3  C   UNL     1     -11.624  55.729  49.445  0.00  0.00    +0.000 A 
ATOM      4  C   UNL     1     -12.604  56.286  51.505  0.00  0.00    +0.000 A 
ATOM      5  C   UNL     1     -12.536  56.594  50.158  0.00  0.00    +0.000 A 
ATOM      6  C   UNL     1     -13.480  56.983  52.517  0.00  0.00    +0.000 C 
ATOM      7  C   UNL     1     -13.396  57.665  49.547  0.00  0.00    +0.000 C 
ATOM      8  C   UNL     1     -14.620  57.783  51.815  0.00  0.00    +0.000 C 
ATOM      9  C   UNL     1     -14.033  58.568  50.610  0.00  0.00    +0.000 C 
ATOM     10  C   UNL     1     -15.239  58.801  52.792  0.00  0.00    +0.000 C 
ATOM     11  C   UNL     1     -15.739  56.826  51.358  0.00  0.00    +0.000 C 
ENDROOT
BRANCH   1  15
ATOM     12  N   UNL     1      -7.498  53.895  50.062  0.00  0.00    +0.000 N 
ATOM     13  C   UNL     1      -8.576  54.745  50.263  0.00  0.00    +0.000 C 
ATOM     14  O   UNL     1      -8.404  55.929  50.531  0.00  0.00    +0.000 OA
ATOM     15  N   UNL     1      -9.812  54.139  50.200  0.00  0.00    +0.000 N 
ATOM     16  H   UNL     1      -7.661  52.964  49.787  0.00  0.00    +0.000 HD
ATOM     17  H   UNL     1      -9.897  53.169  50.055  0.00  0.00    +0.000 HD
BRANCH  12  18
ATOM     18  S   UNL     1      -5.918  54.424  50.279  0.00  0.00    +0.000 S 
ATOM     19  O   UNL     1      -5.677  54.548  51.704  0.00  0.00    +0.000 OA
ATOM     20  O   UNL     1      -5.800  55.601  49.430  0.00  0.00    +0.000 OA
BRANCH  18  21
ATOM     21  C   UNL     1      -4.899  53.115  49.563  0.00  0.00    +0.000 A 
ATOM     22  N   UNL     1      -4.477  52.169  50.438  0.00  0.00    +0.000 NA
ATOM     23  N   UNL     1      -4.629  53.195  48.245  0.00  0.00    +0.000 NA
ATOM     24  C   UNL     1      -3.719  51.204  49.884  0.00  0.00    +0.000 A 
ATOM     25  C   UNL     1      -3.834  52.218  47.775  0.00  0.00    +0.000 A 
ATOM     26  C   UNL     1      -3.356  51.184  48.553  0.00  0.00    +0.000 A 
ENDBRANCH  18  21
ENDBRANCH  12  18
ENDBRANCH   1  15
BRANCH   3  27
ATOM     27  C   UNL     1     -11.493  55.648  47.979  0.00  0.00    +0.000 C 
ATOM     28  O   UNL     1     -12.417  55.329  47.238  0.00  0.00    +0.000 OA
BRANCH  27  29
ATOM     29  O   UNL     1     -10.203  55.802  47.565  0.00  0.00    +0.000 OA
BRANCH  29  30
ATOM     30  C   UNL     1      -9.698  54.895  46.580  0.00  0.00    +0.000 C 
ATOM     31  C   UNL     1      -8.184  54.890  46.572  0.00  0.00    +0.000 C 
ENDBRANCH  29  30
ENDBRANCH  27  29
ENDBRANCH   3  27
TORSDOF 6
ENDMDL
MODEL 4
REMARK VINA RESULT:      -7.1      3.275      7.619
REMARK  Name = 
REMARK  9 active torsions:
REMARK  status: ('A' for Active; 'I' for Inactive)
REMARK    1  A    between atoms: S_1  and  N_4
REMARK    2  A    between atoms: S_1  and  C_5
REMARK    3  A    between atoms: N_10  and  C_13
REMARK    4  A    between atoms: C_16  and  C_19
REMARK    5  A    between atoms: C_19  and  O_23
REMARK    6  A    between atoms: O_23  and  C_26
REMARK    7  A    between atoms: C_24  and  C_27
REMARK    8  A    between atoms: C_24  and  C_28
REMARK    9  A    between atoms: C_26  and  C_29
REMARK                            x       y       z     vdW  Elec       q    Type
REMARK                         _______ _______ _______ _____ _____    ______ ____
ROOT
ATOM      1  C   UNL     1     -10.811  54.385  50.126  0.00  0.00    +0.000 A 
ATOM      2  S   UNL     1     -11.583  54.488  51.637  0.00  0.00    +0.000 S 
ATOM      3  C   UNL     1     -11.363  55.222  49.169  0.00  0.00    +0.000 A 
ATOM      4  C   UNL     1     -12.476  55.853  51.138  0.00  0.00    +0.000 A 
ATOM      5  C   UNL     1     -12.265  56.155  49.804  0.00  0.00    +0.000 A 
ATOM      6  C   UNL     1     -13.382  56.614  52.074  0.00  0.00    +0.000 C 
ATOM      7  C   UNL     1     -12.982  57.289  49.128  0.00  0.00    +0.000 C 
ATOM      8  C   UNL     1     -14.390  57.501  51.280  0.00  0.00    +0.000 C 
ATOM      9  C   UNL     1     -13.640  58.239  50.137  0.00  0.00    +0.000 C 
ATOM     10  C   UNL     1     -15.013  58.563  52.206  0.00  0.00    +0.000 C 
ATOM     11  C   UNL     1     -15.534  56.633  50.719  0.00  0.00    +0.000 C 
ENDROOT
BRANCH   1  15
ATOM     12  N   UNL     1      -7.467  53.062  50.209  0.00  0.00    +0.000 N 
ATOM     13  C   UNL     1      -8.492  53.990  50.324  0.00  0.00    +0.000 C 
ATOM     14  O   UNL     1      -8.265  55.141  50.683  0.00  0.00    +0.000 OA
ATOM     15  N   UNL     1      -9.753  53.497  50.070  0.00  0.00    +0.000 N 
ATOM     16  H   UNL     1      -7.666  52.164  49.859  0.00  0.00    +0.000 HD
ATOM     17  H   UNL     1      -9.895  52.546  49.856  0.00  0.00    +0.000 HD
BRANCH  12  18
ATOM     18  S   UNL     1      -5.893  53.443  50.655  0.00  0.00    +0.000 S 
ATOM     19  O   UNL     1      -5.515  54.666  49.972  0.00  0.00    +0.000 OA
ATOM     20  O   UNL     1      -5.132  52.226  50.413  0.00  0.00    +0.000 OA
BRANCH  18  21
ATOM     21  C   UNL     1      -5.978  53.703  52.442  0.00  0.00    +0.000 A 
ATOM     22  N   UNL     1      -5.302  54.784  52.901  0.00  0.00    +0.000 NA
ATOM     23  N   UNL     1      -6.677  52.802  53.162  0.00  0.00    +0.000 NA
ATOM     24  C   UNL     1      -5.379  54.958  54.233  0.00  0.00    +0.000 A 
ATOM     25  C   UNL     1      -6.673  53.021  54.489  0.00  0.00    +0.000 A 
ATOM     26  C   UNL     1      -6.046  54.097  55.081  0.00  0.00    +0.000 A 
ENDBRANCH  18  21
ENDBRANCH  12  18
ENDBRANCH   1  15
BRANCH   3  27
ATOM     27  C   UNL     1     -11.109  55.132  47.719  0.00  0.00    +0.000 C 
ATOM     28  O   UNL     1     -10.194  55.726  47.158  0.00  0.00    +0.000 OA
BRANCH  27  29
ATOM     29  O   UNL     1     -12.095  54.457  47.062  0.00  0.00    +0.000 OA
BRANCH  29  30
ATOM     30  C   UNL     1     -11.777  53.185  46.492  0.00  0.00    +0.000 C 
ATOM     31  C   UNL     1     -11.594  53.292  44.992  0.00  0.00    +0.000 C 
ENDBRANCH  29  30
ENDBRANCH  27  29
ENDBRANCH   3  27
TORSDOF 6
ENDMDL
MODEL 5
REMARK VINA RESULT:      -7.0      4.122      7.432
REMARK  Name = 
REMARK  9 active torsions:
REMARK  status: ('A' for Active; 'I' for Inactive)
REMARK    1  A    between atoms: S_1  and  N_4
REMARK    2  A    between atoms: S_1  and  C_5
REMARK    3  A    between atoms: N_10  and  C_13
REMARK    4  A    between atoms: C_16  and  C_19
REMARK    5  A    between atoms: C_19  and  O_23
REMARK    6  A    between atoms: O_23  and  C_26
REMARK    7  A    between atoms: C_24  and  C_27
REMARK    8  A    between atoms: C_24  and  C_28
REMARK    9  A    between atoms: C_26  and  C_29
REMARK                            x       y       z     vdW  Elec       q    Type
REMARK                         _______ _______ _______ _____ _____    ______ ____
ROOT
ATOM      1  C   UNL     1     -11.368  54.696  49.881  0.00  0.00    +0.000 A 
ATOM      2  S   UNL     1     -12.073  54.628  51.426  0.00  0.00    +0.000 S 
ATOM      3  C   UNL     1     -11.887  55.705  49.084  0.00  0.00    +0.000 A 
ATOM      4  C   UNL     1     -12.873  56.113  51.177  0.00  0.00    +0.000 A 
ATOM      5  C   UNL     1     -12.688  56.595  49.893  0.00  0.00    +0.000 A 
ATOM      6  C   UNL     1     -13.680  56.790  52.257  0.00  0.00    +0.000 C 
ATOM      7  C   UNL     1     -13.338  57.867  49.425  0.00  0.00    +0.000 C 
ATOM      8  C   UNL     1     -14.643  57.856  51.651  0.00  0.00    +0.000 C 
ATOM      9  C   UNL     1     -13.881  58.700  50.593  0.00  0.00    +0.000 C 
ATOM     10  C   UNL     1     -15.145  58.810  52.752  0.00  0.00    +0.000 C 
ATOM     11  C   UNL     1     -15.873  57.168  51.026  0.00  0.00    +0.000 C 
ENDROOT
BRANCH   1  15
ATOM     12  N   UNL     1      -9.735  51.679  48.799  0.00  0.00    +0.000 N 
ATOM     13  C   UNL     1     -10.752  52.608  48.968  0.00  0.00    +0.000 C 
ATOM     14  O   UNL     1     -11.865  52.419  48.490  0.00  0.00    +0.000 OA
ATOM     15  N   UNL     1     -10.386  53.751  49.644  0.00  0.00    +0.000 N 
ATOM     16  H   UNL     1      -8.870  51.823  49.245  0.00  0.00    +0.000 HD
ATOM     17  H   UNL     1      -9.459  53.891  49.945  0.00  0.00    +0.000 HD
BRANCH  12  18
ATOM     18  S   UNL     1      -9.954  50.311  47.847  0.00  0.00    +0.000 S 
ATOM     19  O   UNL     1     -11.254  49.749  48.160  0.00  0.00    +0.000 OA
ATOM     20  O   UNL     1      -8.758  49.510  48.066  0.00  0.00    +0.000 OA
BRANCH  18  21
ATOM     21  C   UNL     1      -9.909  50.929  46.149  0.00  0.00    +0.000 A 
ATOM     22  N   UNL     1      -8.669  51.103  45.630  0.00  0.00    +0.000 NA
ATOM     23  N   UNL     1     -11.093  51.183  45.555  0.00  0.00    +0.000 NA
ATOM     24  C   UNL     1      -8.659  51.563  44.366  0.00  0.00    +0.000 A 
ATOM     25  C   UNL     1     -10.998  51.679  44.309  0.00  0.00    +0.000 A 
ATOM     26  C   UNL     1      -9.800  51.879  43.657  0.00  0.00    +0.000 A 
ENDBRANCH  18  21
ENDBRANCH  12  18
ENDBRANCH   1  15
BRANCH   3  27
ATOM     27  C   UNL     1     -11.696  55.815  47.627  0.00  0.00    +0.000 C 
ATOM     28  O   UNL     1     -12.624  55.813  46.824  0.00  0.00    +0.000 OA
BRANCH  27  29
ATOM     29  O   UNL     1     -10.381  55.749  47.271  0.00  0.00    +0.000 OA
BRANCH  29  30
ATOM     30  C   UNL     1     -10.003  54.809  46.261  0.00  0.00    +0.000 C 
ATOM     31  C   UNL     1      -8.499  54.770  46.090  0.00  0.00    +0.000 C 
ENDBRANCH  29  30
ENDBRANCH  27  29
ENDBRANCH   3  27
TORSDOF 6
ENDMDL
MODEL 6
REMARK VINA RESULT:      -6.8      2.328      2.969
REMARK  Name = 
REMARK  9 active torsions:
REMARK  status: ('A' for Active; 'I' for Inactive)
REMARK    1  A    between atoms: S_1  and  N_4
REMARK    2  A    between atoms: S_1  and  C_5
REMARK    3  A    between atoms: N_10  and  C_13
REMARK    4  A    between atoms: C_16  and  C_19
REMARK    5  A    between atoms: C_19  and  O_23
REMARK    6  A    between atoms: O_23  and  C_26
REMARK    7  A    between atoms: C_24  and  C_27
REMARK    8  A    between atoms: C_24  and  C_28
REMARK    9  A    between atoms: C_26  and  C_29
REMARK                            x       y       z     vdW  Elec       q    Type
REMARK                         _______ _______ _______ _____ _____    ______ ____
ROOT
ATOM      1  C   UNL     1      -8.431  55.796  49.902  0.00  0.00    +0.000 A 
ATOM      2  S   UNL     1      -7.863  56.158  51.463  0.00  0.00    +0.000 S 
ATOM      3  C   UNL     1      -7.753  54.747  49.300  0.00  0.00    +0.000 A 
ATOM      4  C   UNL     1      -6.904  54.748  51.490  0.00  0.00    +0.000 A 
ATOM      5  C   UNL     1      -6.937  54.073  50.283  0.00  0.00    +0.000 A 
ATOM      6  C   UNL     1      -6.124  54.322  52.709  0.00  0.00    +0.000 C 
ATOM      7  C   UNL     1      -6.129  52.826  50.053  0.00  0.00    +0.000 C 
ATOM      8  C   UNL     1      -5.016  53.292  52.333  0.00  0.00    +0.000 C 
ATOM      9  C   UNL     1      -5.604  52.229  51.365  0.00  0.00    +0.000 C 
ATOM     10  C   UNL     1      -4.513  52.562  53.594  0.00  0.00    +0.000 C 
ATOM     11  C   UNL     1      -3.813  54.015  51.694  0.00  0.00    +0.000 C 
ENDROOT
BRANCH   1  15
ATOM     12  N   UNL     1     -11.754  56.884  49.058  0.00  0.00    +0.000 N 
ATOM     13  C   UNL     1     -10.750  56.064  49.554  0.00  0.00    +0.000 C 
ATOM     14  O   UNL     1     -11.016  54.989  50.079  0.00  0.00    +0.000 OA
ATOM     15  N   UNL     1      -9.479  56.585  49.463  0.00  0.00    +0.000 N 
ATOM     16  H   UNL     1     -11.512  57.713  48.585  0.00  0.00    +0.000 HD
ATOM     17  H   UNL     1      -9.321  57.487  49.100  0.00  0.00    +0.000 HD
BRANCH  12  18
ATOM     18  S   UNL     1     -13.376  56.488  49.248  0.00  0.00    +0.000 S 
ATOM     19  O   UNL     1     -13.461  55.070  49.545  0.00  0.00    +0.000 OA
ATOM     20  O   UNL     1     -14.029  57.008  48.055  0.00  0.00    +0.000 OA
BRANCH  18  21
ATOM     21  C   UNL     1     -13.921  57.477  50.659  0.00  0.00    +0.000 A 
ATOM     22  N   UNL     1     -13.701  56.919  51.875  0.00  0.00    +0.000 NA
ATOM     23  N   UNL     1     -14.513  58.659  50.391  0.00  0.00    +0.000 NA
ATOM     24  C   UNL     1     -14.115  57.672  52.911  0.00  0.00    +0.000 A 
ATOM     25  C   UNL     1     -14.934  59.333  51.475  0.00  0.00    +0.000 A 
ATOM     26  C   UNL     1     -14.750  58.889  52.768  0.00  0.00    +0.000 A 
ENDBRANCH  18  21
ENDBRANCH  12  18
ENDBRANCH   1  15
BRANCH   3  27
ATOM     27  C   UNL     1      -7.815  54.413  47.866  0.00  0.00    +0.000 C 
ATOM     28  O   UNL     1      -6.886  54.610  47.089  0.00  0.00    +0.000 OA
BRANCH  27  29
ATOM     29  O   UNL     1      -9.062  54.023  47.478  0.00  0.00    +0.000 OA
BRANCH  29  30
ATOM     30  C   UNL     1      -9.548  54.479  46.212  0.00  0.00    +0.000 C 
ATOM     31  C   UNL     1     -11.058  54.598  46.219  0.00  0.00    +0.000 C 
ENDBRANCH  29  30
ENDBRANCH  27  29
ENDBRANCH   3  27
TORSDOF 6
ENDMDL
MODEL 7
REMARK VINA RESULT:      -6.6      4.205      7.787
REMARK  Name = 
REMARK  9 active torsions:
REMARK  status: ('A' for Active; 'I' for Inactive)
REMARK    1  A    between atoms: S_1  and  N_4
REMARK    2  A    between atoms: S_1  and  C_5
REMARK    3  A    between atoms: N_10  and  C_13
REMARK    4  A    between atoms: C_16  and  C_19
REMARK    5  A    between atoms: C_19  and  O_23
REMARK    6  A    between atoms: O_23  and  C_26
REMARK    7  A    between atoms: C_24  and  C_27
REMARK    8  A    between atoms: C_24  and  C_28
REMARK    9  A    between atoms: C_26  and  C_29
REMARK                            x       y       z     vdW  Elec       q    Type
REMARK                         _______ _______ _______ _____ _____    ______ ____
ROOT
ATOM      1  C   UNL     1     -11.772  55.975  47.695  0.00  0.00    +0.000 A 
ATOM      2  S   UNL     1     -13.398  56.467  47.620  0.00  0.00    +0.000 S 
ATOM      3  C   UNL     1     -11.235  56.046  48.971  0.00  0.00    +0.000 A 
ATOM      4  C   UNL     1     -13.511  56.507  49.320  0.00  0.00    +0.000 A 
ATOM      5  C   UNL     1     -12.295  56.254  49.930  0.00  0.00    +0.000 A 
ATOM      6  C   UNL     1     -14.807  56.791  50.039  0.00  0.00    +0.000 C 
ATOM      7  C   UNL     1     -12.140  56.284  51.425  0.00  0.00    +0.000 C 
ATOM      8  C   UNL     1     -14.547  57.207  51.520  0.00  0.00    +0.000 C 
ATOM      9  C   UNL     1     -13.493  56.254  52.147  0.00  0.00    +0.000 C 
ATOM     10  C   UNL     1     -15.844  57.092  52.343  0.00  0.00    +0.000 C 
ATOM     11  C   UNL     1     -14.074  58.673  51.585  0.00  0.00    +0.000 C 
ENDROOT
BRANCH   1  15
ATOM     12  N   UNL     1     -10.612  53.880  45.011  0.00  0.00    +0.000 N 
ATOM     13  C   UNL     1     -11.212  54.224  46.214  0.00  0.00    +0.000 C 
ATOM     14  O   UNL     1     -11.733  53.372  46.926  0.00  0.00    +0.000 OA
ATOM     15  N   UNL     1     -11.226  55.574  46.489  0.00  0.00    +0.000 N 
ATOM     16  H   UNL     1     -10.147  54.571  44.487  0.00  0.00    +0.000 HD
ATOM     17  H   UNL     1     -10.860  56.228  45.851  0.00  0.00    +0.000 HD
BRANCH  12  18
ATOM     18  S   UNL     1     -10.664  52.303  44.431  0.00  0.00    +0.000 S 
ATOM     19  O   UNL     1     -10.199  52.314  43.057  0.00  0.00    +0.000 OA
ATOM     20  O   UNL     1     -12.013  51.842  44.725  0.00  0.00    +0.000 OA
BRANCH  18  21
ATOM     21  C   UNL     1      -9.520  51.393  45.493  0.00  0.00    +0.000 A 
ATOM     22  N   UNL     1      -8.209  51.693  45.322  0.00  0.00    +0.000 NA
ATOM     23  N   UNL     1     -10.052  50.488  46.340  0.00  0.00    +0.000 NA
ATOM     24  C   UNL     1      -7.375  51.004  46.121  0.00  0.00    +0.000 A 
ATOM     25  C   UNL     1      -9.152  49.812  47.075  0.00  0.00    +0.000 A 
ATOM     26  C   UNL     1      -7.793  50.039  47.015  0.00  0.00    +0.000 A 
ENDBRANCH  18  21
ENDBRANCH  12  18
ENDBRANCH   1  15
BRANCH   3  27
ATOM     27  C   UNL     1      -9.797  55.977  49.288  0.00  0.00    +0.000 C 
ATOM     28  O   UNL     1      -9.133  56.956  49.616  0.00  0.00    +0.000 OA
BRANCH  27  29
ATOM     29  O   UNL     1      -9.265  54.752  49.016  0.00  0.00    +0.000 OA
BRANCH  29  30
ATOM     30  C   UNL     1      -7.879  54.683  48.665  0.00  0.00    +0.000 C 
ATOM     31  C   UNL     1      -7.692  54.796  47.166  0.00  0.00    +0.000 C 
ENDBRANCH  29  30
ENDBRANCH  27  29
ENDBRANCH   3  27
TORSDOF 6
ENDMDL
MODEL 8
REMARK VINA RESULT:      -6.6      2.978      4.608
REMARK  Name = 
REMARK  9 active torsions:
REMARK  status: ('A' for Active; 'I' for Inactive)
REMARK    1  A    between atoms: S_1  and  N_4
REMARK    2  A    between atoms: S_1  and  C_5
REMARK    3  A    between atoms: N_10  and  C_13
REMARK    4  A    between atoms: C_16  and  C_19
REMARK    5  A    between atoms: C_19  and  O_23
REMARK    6  A    between atoms: O_23  and  C_26
REMARK    7  A    between atoms: C_24  and  C_27
REMARK    8  A    between atoms: C_24  and  C_28
REMARK    9  A    between atoms: C_26  and  C_29
REMARK                            x       y       z     vdW  Elec       q    Type
REMARK                         _______ _______ _______ _____ _____    ______ ____
ROOT
ATOM      1  C   UNL     1      -8.367  55.264  49.397  0.00  0.00    +0.000 A 
ATOM      2  S   UNL     1      -7.875  54.879  47.816  0.00  0.00    +0.000 S 
ATOM      3  C   UNL     1      -7.672  54.568  50.374  0.00  0.00    +0.000 A 
ATOM      4  C   UNL     1      -6.534  54.002  48.398  0.00  0.00    +0.000 A 
ATOM      5  C   UNL     1      -6.528  53.916  49.780  0.00  0.00    +0.000 A 
ATOM      6  C   UNL     1      -5.497  53.403  47.481  0.00  0.00    +0.000 C 
ATOM      7  C   UNL     1      -5.467  53.148  50.518  0.00  0.00    +0.000 C 
ATOM      8  C   UNL     1      -4.664  52.308  48.215  0.00  0.00    +0.000 C 
ATOM      9  C   UNL     1      -4.263  52.822  49.625  0.00  0.00    +0.000 C 
ATOM     10  C   UNL     1      -3.372  52.005  47.433  0.00  0.00    +0.000 C 
ATOM     11  C   UNL     1      -5.475  51.001  48.313  0.00  0.00    +0.000 C 
ENDROOT
BRANCH   1  15
ATOM     12  N   UNL     1     -11.636  56.765  49.403  0.00  0.00    +0.000 N 
ATOM     13  C   UNL     1     -10.673  55.767  49.352  0.00  0.00    +0.000 C 
ATOM     14  O   UNL     1     -10.992  54.587  49.255  0.00  0.00    +0.000 OA
ATOM     15  N   UNL     1      -9.375  56.208  49.483  0.00  0.00    +0.000 N 
ATOM     16  H   UNL     1     -11.355  57.708  49.418  0.00  0.00    +0.000 HD
ATOM     17  H   UNL     1      -9.171  57.159  49.633  0.00  0.00    +0.000 HD
BRANCH  12  18
ATOM     18  S   UNL     1     -13.275  56.394  49.439  0.00  0.00    +0.000 S 
ATOM     19  O   UNL     1     -13.410  54.988  49.771  0.00  0.00    +0.000 OA
ATOM     20  O   UNL     1     -13.795  56.881  48.170  0.00  0.00    +0.000 OA
BRANCH  18  21
ATOM     21  C   UNL     1     -13.946  57.435  50.755  0.00  0.00    +0.000 A 
ATOM     22  N   UNL     1     -14.451  58.626  50.348  0.00  0.00    +0.000 NA
ATOM     23  N   UNL     1     -13.872  56.961  52.015  0.00  0.00    +0.000 NA
ATOM     24  C   UNL     1     -14.945  59.385  51.342  0.00  0.00    +0.000 A 
ATOM     25  C   UNL     1     -14.349  57.794  52.956  0.00  0.00    +0.000 A 
ATOM     26  C   UNL     1     -14.911  59.021  52.674  0.00  0.00    +0.000 A 
ENDBRANCH  18  21
ENDBRANCH  12  18
ENDBRANCH   1  15
BRANCH   3  27
ATOM     27  C   UNL     1      -8.074  54.465  51.788  0.00  0.00    +0.000 C 
ATOM     28  O   UNL     1      -8.886  53.641  52.198  0.00  0.00    +0.000 OA
BRANCH  27  29
ATOM     29  O   UNL     1      -7.576  55.485  52.544  0.00  0.00    +0.000 OA
BRANCH  29  30
ATOM     30  C   UNL     1      -7.725  55.406  53.964  0.00  0.00    +0.000 C 
ATOM     31  C   UNL     1      -6.513  54.762  54.603  0.00  0.00    +0.000 C 
ENDBRANCH  29  30
ENDBRANCH  27  29
ENDBRANCH   3  27
TORSDOF 6
ENDMDL
MODEL 9
REMARK VINA RESULT:      -6.5      3.691      5.691
REMARK  Name = 
REMARK  9 active torsions:
REMARK  status: ('A' for Active; 'I' for Inactive)
REMARK    1  A    between atoms: S_1  and  N_4
REMARK    2  A    between atoms: S_1  and  C_5
REMARK    3  A    between atoms: N_10  and  C_13
REMARK    4  A    between atoms: C_16  and  C_19
REMARK    5  A    between atoms: C_19  and  O_23
REMARK    6  A    between atoms: O_23  and  C_26
REMARK    7  A    between atoms: C_24  and  C_27
REMARK    8  A    between atoms: C_24  and  C_28
REMARK    9  A    between atoms: C_26  and  C_29
REMARK                            x       y       z     vdW  Elec       q    Type
REMARK                         _______ _______ _______ _____ _____    ______ ____
ROOT
ATOM      1  C   UNL     1     -10.904  53.157  48.014  0.00  0.00    +0.000 A 
ATOM      2  S   UNL     1     -11.825  52.118  47.033  0.00  0.00    +0.000 S 
ATOM      3  C   UNL     1      -9.554  53.156  47.700  0.00  0.00    +0.000 A 
ATOM      4  C   UNL     1     -10.505  51.865  45.983  0.00  0.00    +0.000 A 
ATOM      5  C   UNL     1      -9.352  52.479  46.439  0.00  0.00    +0.000 A 
ATOM      6  C   UNL     1     -10.622  51.057  44.715  0.00  0.00    +0.000 C 
ATOM      7  C   UNL     1      -8.047  52.355  45.704  0.00  0.00    +0.000 C 
ATOM      8  C   UNL     1      -9.218  50.616  44.200  0.00  0.00    +0.000 C 
ATOM      9  C   UNL     1      -8.237  51.817  44.280  0.00  0.00    +0.000 C 
ATOM     10  C   UNL     1      -9.304  50.166  42.729  0.00  0.00    +0.000 C 
ATOM     11  C   UNL     1      -8.699  49.424  45.029  0.00  0.00    +0.000 C 
ENDROOT
BRANCH   1  15
ATOM     12  N   UNL     1     -12.794  55.754  49.634  0.00  0.00    +0.000 N 
ATOM     13  C   UNL     1     -12.118  55.088  48.621  0.00  0.00    +0.000 C 
ATOM     14  O   UNL     1     -12.036  55.569  47.496  0.00  0.00    +0.000 OA
ATOM     15  N   UNL     1     -11.625  53.850  48.970  0.00  0.00    +0.000 N 
ATOM     16  H   UNL     1     -12.793  55.378  50.544  0.00  0.00    +0.000 HD
ATOM     17  H   UNL     1     -11.779  53.473  49.866  0.00  0.00    +0.000 HD
BRANCH  12  18
ATOM     18  S   UNL     1     -13.613  57.191  49.337  0.00  0.00    +0.000 S 
ATOM     19  O   UNL     1     -14.650  56.923  48.359  0.00  0.00    +0.000 OA
ATOM     20  O   UNL     1     -12.569  58.157  49.027  0.00  0.00    +0.000 OA
BRANCH  18  21
ATOM     21  C   UNL     1     -14.332  57.640  50.933  0.00  0.00    +0.000 A 
ATOM     22  N   UNL     1     -14.936  56.627  51.601  0.00  0.00    +0.000 NA
ATOM     23  N   UNL     1     -14.230  58.930  51.314  0.00  0.00    +0.000 NA
ATOM     24  C   UNL     1     -15.464  56.983  52.786  0.00  0.00    +0.000 A 
ATOM     25  C   UNL     1     -14.817  59.215  52.489  0.00  0.00    +0.000 A 
ATOM     26  C   UNL     1     -15.443  58.272  53.277  0.00  0.00    +0.000 A 
ENDBRANCH  18  21
ENDBRANCH  12  18
ENDBRANCH   1  15
BRANCH   3  27
ATOM     27  C   UNL     1      -8.487  53.709  48.553  0.00  0.00    +0.000 C 
ATOM     28  O   UNL     1      -7.982  53.091  49.485  0.00  0.00    +0.000 OA
BRANCH  27  29
ATOM     29  O   UNL     1      -8.250  55.027  48.296  0.00  0.00    +0.000 OA
BRANCH  29  30
ATOM     30  C   UNL     1      -8.716  55.993  49.243  0.00  0.00    +0.000 C 
ATOM     31  C   UNL     1      -7.627  56.353  50.232  0.00  0.00    +0.000 C 
ENDBRANCH  29  30
ENDBRANCH  27  29
ENDBRANCH   3  27
TORSDOF 6
ENDMDL
