MODEL 1
REMARK VINA RESULT:      -7.3      0.000      0.000
REMARK  Name = 
REMARK  10 active torsions:
REMARK  status: ('A' for Active; 'I' for Inactive)
REMARK    1  A    between atoms: S_1  and  N_4
REMARK    2  A    between atoms: S_1  and  C_5
REMARK    3  A    between atoms: N_10  and  C_13
REMARK    4  A    between atoms: C_14  and  C_17
REMARK    5  A    between atoms: C_16  and  C_20
REMARK    6  A    between atoms: C_20  and  O_24
REMARK    7  A    between atoms: O_24  and  C_27
REMARK    8  A    between atoms: C_25  and  C_28
REMARK    9  A    between atoms: C_25  and  C_29
REMARK   10  A    between atoms: C_27  and  C_30
REMARK                            x       y       z     vdW  Elec       q    Type
REMARK                         _______ _______ _______ _____ _____    ______ ____
ROOT
ATOM      1  N   UNL     1      -9.823  51.562  48.740  0.00  0.00    +0.000 N 
ATOM      2  C   UNL     1     -10.815  52.523  48.867  0.00  0.00    +0.000 C 
ATOM      3  O   UNL     1     -11.897  52.403  48.304  0.00  0.00    +0.000 OA
ATOM      4  N   UNL     1     -10.450  53.616  49.630  0.00  0.00    +0.000 N 
ATOM      5  H   UNL     1      -9.002  51.650  49.276  0.00  0.00    +0.000 HD
ATOM      6  H   UNL     1      -9.541  53.695  50.001  0.00  0.00    +0.000 HD
ENDROOT
BRANCH   4   7
ATOM      7  C   UNL     1     -11.400  54.597  49.857  0.00  0.00    +0.000 A 
ATOM      8  S   UNL     1     -12.164  54.518  51.373  0.00  0.00    +0.000 S 
ATOM      9  C   UNL     1     -11.843  55.647  49.069  0.00  0.00    +0.000 A 
ATOM     10  C   UNL     1     -12.884  56.046  51.138  0.00  0.00    +0.000 A 
ATOM     11  C   UNL     1     -12.630  56.554  49.876  0.00  0.00    +0.000 A 
ATOM     12  C   UNL     1     -13.696  56.733  52.209  0.00  0.00    +0.000 C 
ATOM     13  C   UNL     1     -13.198  57.869  49.424  0.00  0.00    +0.000 C 
ATOM     14  C   UNL     1     -14.577  57.869  51.605  0.00  0.00    +0.000 C 
ATOM     15  C   UNL     1     -13.733  58.699  50.598  0.00  0.00    +0.000 C 
ATOM     16  C   UNL     1     -15.063  58.817  52.718  0.00  0.00    +0.000 C 
ATOM     17  C   UNL     1     -15.821  57.270  50.919  0.00  0.00    +0.000 C 
BRANCH   9  18
ATOM     18  C   UNL     1     -11.599  55.786  47.620  0.00  0.00    +0.000 C 
ATOM     19  O   UNL     1     -12.495  55.829  46.788  0.00  0.00    +0.000 OA
BRANCH  18  20
ATOM     20  O   UNL     1     -10.273  55.703  47.313  0.00  0.00    +0.000 OA
BRANCH  20  21
ATOM     21  C   UNL     1      -9.877  54.803  46.274  0.00  0.00    +0.000 C 
ATOM     22  C   UNL     1      -8.399  54.939  45.971  0.00  0.00    +0.000 C 
ENDBRANCH  20  21
ENDBRANCH  18  20
ENDBRANCH   9  18
ENDBRANCH   4   7
BRANCH   1  23
ATOM     23  S   UNL     1      -9.979  50.261  47.703  0.00  0.00    +0.000 S 
ATOM     24  O   UNL     1     -11.326  49.739  47.805  0.00  0.00    +0.000 OA
ATOM     25  O   UNL     1      -8.838  49.413  47.974  0.00  0.00    +0.000 OA
BRANCH  23  26
ATOM     26  C   UNL     1      -9.758  50.972  46.065  0.00  0.00    +0.000 A 
ATOM     27  N   UNL     1      -8.459  51.164  45.695  0.00  0.00    +0.000 NA
ATOM     28  C   UNL     1     -10.861  51.285  45.285  0.00  0.00    +0.000 A 
ATOM     29  C   UNL     1      -8.277  51.672  44.454  0.00  0.00    +0.000 A 
ATOM     30  C   UNL     1     -10.624  51.820  44.021  0.00  0.00    +0.000 A 
ATOM     31  C   UNL     1      -9.310  52.010  43.581  0.00  0.00    +0.000 A 
ATOM     32  C   UNL     1      -9.035  52.566  42.219  0.00  0.00    +0.000 C 
ENDBRANCH  23  26
ENDBRANCH   1  23
TORSDOF 6
ENDMDL
MODEL 2
REMARK VINA RESULT:      -7.1      1.955      2.788
REMARK  Name = 
REMARK  10 active torsions:
REMARK  status: ('A' for Active; 'I' for Inactive)
REMARK    1  A    between atoms: S_1  and  N_4
REMARK    2  A    between atoms: S_1  and  C_5
REMARK    3  A    between atoms: N_10  and  C_13
REMARK    4  A    between atoms: C_14  and  C_17
REMARK    5  A    between atoms: C_16  and  C_20
REMARK    6  A    between atoms: C_20  and  O_24
REMARK    7  A    between atoms: O_24  and  C_27
REMARK    8  A    between atoms: C_25  and  C_28
REMARK    9  A    between atoms: C_25  and  C_29
REMARK   10  A    between atoms: C_27  and  C_30
REMARK                            x       y       z     vdW  Elec       q    Type
REMARK                         _______ _______ _______ _____ _____    ______ ____
ROOT
ATOM      1  N   UNL     1      -8.042  53.264  49.512  0.00  0.00    +0.000 N 
ATOM      2  C   UNL     1      -9.114  54.135  49.634  0.00  0.00    +0.000 C 
ATOM      3  O   UNL     1      -9.189  55.155  48.958  0.00  0.00    +0.000 OA
ATOM      4  N   UNL     1     -10.033  53.771  50.599  0.00  0.00    +0.000 N 
ATOM      5  H   UNL     1      -8.061  52.412  50.007  0.00  0.00    +0.000 HD
ATOM      6  H   UNL     1      -9.888  52.978  51.165  0.00  0.00    +0.000 HD
ENDROOT
BRANCH   4   7
ATOM      7  C   UNL     1     -11.164  54.554  50.749  0.00  0.00    +0.000 A 
ATOM      8  S   UNL     1     -11.363  55.241  52.291  0.00  0.00    +0.000 S 
ATOM      9  C   UNL     1     -12.174  54.889  49.861  0.00  0.00    +0.000 A 
ATOM     10  C   UNL     1     -12.629  56.238  51.732  0.00  0.00    +0.000 A 
ATOM     11  C   UNL     1     -12.964  55.967  50.417  0.00  0.00    +0.000 A 
ATOM     12  C   UNL     1     -13.282  57.283  52.603  0.00  0.00    +0.000 C 
ATOM     13  C   UNL     1     -14.082  56.690  49.721  0.00  0.00    +0.000 C 
ATOM     14  C   UNL     1     -14.654  57.729  52.012  0.00  0.00    +0.000 C 
ATOM     15  C   UNL     1     -14.512  57.951  50.481  0.00  0.00    +0.000 C 
ATOM     16  C   UNL     1     -15.104  59.058  52.649  0.00  0.00    +0.000 C 
ATOM     17  C   UNL     1     -15.733  56.671  52.318  0.00  0.00    +0.000 C 
BRANCH   9  18
ATOM     18  C   UNL     1     -12.437  54.213  48.576  0.00  0.00    +0.000 C 
ATOM     19  O   UNL     1     -12.484  52.996  48.455  0.00  0.00    +0.000 OA
BRANCH  18  20
ATOM     20  O   UNL     1     -12.464  55.088  47.531  0.00  0.00    +0.000 OA
BRANCH  20  21
ATOM     21  C   UNL     1     -11.371  55.069  46.608  0.00  0.00    +0.000 C 
ATOM     22  C   UNL     1     -11.691  54.203  45.407  0.00  0.00    +0.000 C 
ENDBRANCH  20  21
ENDBRANCH  18  20
ENDBRANCH   9  18
ENDBRANCH   4   7
BRANCH   1  23
ATOM     23  S   UNL     1      -6.721  53.615  48.552  0.00  0.00    +0.000 S 
ATOM     24  O   UNL     1      -5.705  52.606  48.765  0.00  0.00    +0.000 OA
ATOM     25  O   UNL     1      -6.432  55.013  48.790  0.00  0.00    +0.000 OA
BRANCH  23  26
ATOM     26  C   UNL     1      -7.343  53.462  46.871  0.00  0.00    +0.000 A 
ATOM     27  N   UNL     1      -7.648  52.189  46.486  0.00  0.00    +0.000 NA
ATOM     28  C   UNL     1      -7.479  54.586  46.071  0.00  0.00    +0.000 A 
ATOM     29  C   UNL     1      -8.144  52.061  45.235  0.00  0.00    +0.000 A 
ATOM     30  C   UNL     1      -7.978  54.404  44.783  0.00  0.00    +0.000 A 
ATOM     31  C   UNL     1      -8.334  53.122  44.351  0.00  0.00    +0.000 A 
ATOM     32  C   UNL     1      -8.890  52.909  42.977  0.00  0.00    +0.000 C 
ENDBRANCH  23  26
ENDBRANCH   1  23
TORSDOF 6
ENDMDL
MODEL 3
REMARK VINA RESULT:      -7.0      3.235      4.940
REMARK  Name = 
REMARK  10 active torsions:
REMARK  status: ('A' for Active; 'I' for Inactive)
REMARK    1  A    between atoms: S_1  and  N_4
REMARK    2  A    between atoms: S_1  and  C_5
REMARK    3  A    between atoms: N_10  and  C_13
REMARK    4  A    between atoms: C_14  and  C_17
REMARK    5  A    between atoms: C_16  and  C_20
REMARK    6  A    between atoms: C_20  and  O_24
REMARK    7  A    between atoms: O_24  and  C_27
REMARK    8  A    between atoms: C_25  and  C_28
REMARK    9  A    between atoms: C_25  and  C_29
REMARK   10  A    between atoms: C_27  and  C_30
REMARK                            x       y       z     vdW  Elec       q    Type
REMARK                         _______ _______ _______ _____ _____    ______ ____
ROOT
ATOM      1  N   UNL     1      -8.475  53.442  48.723  0.00  0.00    +0.000 N 
ATOM      2  C   UNL     1      -9.382  54.363  49.226  0.00  0.00    +0.000 C 
ATOM      3  O   UNL     1      -9.010  55.396  49.771  0.00  0.00    +0.000 OA
ATOM      4  N   UNL     1     -10.705  53.983  49.096  0.00  0.00    +0.000 N 
ATOM      5  H   UNL     1      -8.812  52.669  48.214  0.00  0.00    +0.000 HD
ATOM      6  H   UNL     1     -10.946  53.108  48.714  0.00  0.00    +0.000 HD
ENDROOT
BRANCH   4   7
ATOM      7  C   UNL     1     -11.680  54.869  49.520  0.00  0.00    +0.000 A 
ATOM      8  S   UNL     1     -12.153  54.692  51.144  0.00  0.00    +0.000 S 
ATOM      9  C   UNL     1     -12.346  55.888  48.859  0.00  0.00    +0.000 A 
ATOM     10  C   UNL     1     -13.033  56.152  51.092  0.00  0.00    +0.000 A 
ATOM     11  C   UNL     1     -13.053  56.704  49.823  0.00  0.00    +0.000 A 
ATOM     12  C   UNL     1     -13.697  56.742  52.312  0.00  0.00    +0.000 C 
ATOM     13  C   UNL     1     -13.805  57.970  49.523  0.00  0.00    +0.000 C 
ATOM     14  C   UNL     1     -14.767  57.803  51.911  0.00  0.00    +0.000 C 
ATOM     15  C   UNL     1     -14.191  58.725  50.801  0.00  0.00    +0.000 C 
ATOM     16  C   UNL     1     -15.128  58.682  53.124  0.00  0.00    +0.000 C 
ATOM     17  C   UNL     1     -16.056  57.106  51.435  0.00  0.00    +0.000 C 
BRANCH   9  18
ATOM     18  C   UNL     1     -12.377  56.075  47.396  0.00  0.00    +0.000 C 
ATOM     19  O   UNL     1     -13.310  56.603  46.805  0.00  0.00    +0.000 OA
BRANCH  18  20
ATOM     20  O   UNL     1     -11.330  55.459  46.777  0.00  0.00    +0.000 OA
BRANCH  20  21
ATOM     21  C   UNL     1     -11.618  54.535  45.723  0.00  0.00    +0.000 C 
ATOM     22  C   UNL     1     -10.412  53.674  45.411  0.00  0.00    +0.000 C 
ENDBRANCH  20  21
ENDBRANCH  18  20
ENDBRANCH   9  18
ENDBRANCH   4   7
BRANCH   1  23
ATOM     23  S   UNL     1      -6.828  53.606  48.953  0.00  0.00    +0.000 S 
ATOM     24  O   UNL     1      -6.412  54.902  48.458  0.00  0.00    +0.000 OA
ATOM     25  O   UNL     1      -6.243  52.393  48.425  0.00  0.00    +0.000 OA
BRANCH  23  26
ATOM     26  C   UNL     1      -6.628  53.580  50.741  0.00  0.00    +0.000 A 
ATOM     27  N   UNL     1      -6.016  54.681  51.265  0.00  0.00    +0.000 NA
ATOM     28  C   UNL     1      -7.077  52.495  51.478  0.00  0.00    +0.000 A 
ATOM     29  C   UNL     1      -5.883  54.688  52.611  0.00  0.00    +0.000 A 
ATOM     30  C   UNL     1      -6.904  52.539  52.860  0.00  0.00    +0.000 A 
ATOM     31  C   UNL     1      -6.309  53.659  53.450  0.00  0.00    +0.000 A 
ATOM     32  C   UNL     1      -6.132  53.734  54.935  0.00  0.00    +0.000 C 
ENDBRANCH  23  26
ENDBRANCH   1  23
TORSDOF 6
ENDMDL
MODEL 4
REMARK VINA RESULT:      -7.0      3.812      5.615
REMARK  Name = 
REMARK  10 active torsions:
REMARK  status: ('A' for Active; 'I' for Inactive)
REMARK    1  A    between atoms: S_1  and  N_4
REMARK    2  A    between atoms: S_1  and  C_5
REMARK    3  A    between atoms: N_10  and  C_13
REMARK    4  A    between atoms: C_14  and  C_17
REMARK    5  A    between atoms: C_16  and  C_20
REMARK    6  A    between atoms: C_20  and  O_24
REMARK    7  A    between atoms: O_24  and  C_27
REMARK    8  A    between atoms: C_25  and  C_28
REMARK    9  A    between atoms: C_25  and  C_29
REMARK   10  A    between atoms: C_27  and  C_30
REMARK                            x       y       z     vdW  Elec       q    Type
REMARK                         _______ _______ _______ _____ _____    ______ ____
ROOT
ATOM      1  N   UNL     1      -7.903  53.257  50.449  0.00  0.00    +0.000 N 
ATOM      2  C   UNL     1      -8.930  54.152  50.705  0.00  0.00    +0.000 C 
ATOM      3  O   UNL     1      -8.824  55.017  51.567  0.00  0.00    +0.000 OA
ATOM      4  N   UNL     1     -10.066  53.943  49.947  0.00  0.00    +0.000 N 
ATOM      5  H   UNL     1      -7.990  52.634  49.691  0.00  0.00    +0.000 HD
ATOM      6  H   UNL     1     -10.124  53.187  49.318  0.00  0.00    +0.000 HD
ENDROOT
BRANCH   4   7
ATOM      7  C   UNL     1     -11.121  54.826  50.097  0.00  0.00    +0.000 A 
ATOM      8  S   UNL     1     -11.870  54.797  51.623  0.00  0.00    +0.000 S 
ATOM      9  C   UNL     1     -11.681  55.745  49.224  0.00  0.00    +0.000 A 
ATOM     10  C   UNL     1     -12.759  56.207  51.261  0.00  0.00    +0.000 A 
ATOM     11  C   UNL     1     -12.566  56.626  49.957  0.00  0.00    +0.000 A 
ATOM     12  C   UNL     1     -13.642  56.890  52.277  0.00  0.00    +0.000 C 
ATOM     13  C   UNL     1     -13.280  57.823  49.397  0.00  0.00    +0.000 C 
ATOM     14  C   UNL     1     -14.647  57.861  51.584  0.00  0.00    +0.000 C 
ATOM     15  C   UNL     1     -13.904  58.688  50.499  0.00  0.00    +0.000 C 
ATOM     16  C   UNL     1     -15.237  58.843  52.615  0.00  0.00    +0.000 C 
ATOM     17  C   UNL     1     -15.816  57.066  50.968  0.00  0.00    +0.000 C 
BRANCH   9  18
ATOM     18  C   UNL     1     -11.456  55.781  47.766  0.00  0.00    +0.000 C 
ATOM     19  O   UNL     1     -12.361  55.732  46.944  0.00  0.00    +0.000 OA
BRANCH  18  20
ATOM     20  O   UNL     1     -10.131  55.719  47.450  0.00  0.00    +0.000 OA
BRANCH  20  21
ATOM     21  C   UNL     1      -9.724  54.801  46.431  0.00  0.00    +0.000 C 
ATOM     22  C   UNL     1      -8.237  54.908  46.166  0.00  0.00    +0.000 C 
ENDBRANCH  20  21
ENDBRANCH  18  20
ENDBRANCH   9  18
ENDBRANCH   4   7
BRANCH   1  23
ATOM     23  S   UNL     1      -6.521  53.203  51.388  0.00  0.00    +0.000 S 
ATOM     24  O   UNL     1      -6.140  54.555  51.738  0.00  0.00    +0.000 OA
ATOM     25  O   UNL     1      -5.604  52.340  50.673  0.00  0.00    +0.000 OA
BRANCH  23  26
ATOM     26  C   UNL     1      -7.035  52.342  52.881  0.00  0.00    +0.000 A 
ATOM     27  N   UNL     1      -8.208  51.654  52.771  0.00  0.00    +0.000 NA
ATOM     28  C   UNL     1      -6.260  52.410  54.028  0.00  0.00    +0.000 A 
ATOM     29  C   UNL     1      -8.593  50.978  53.878  0.00  0.00    +0.000 A 
ATOM     30  C   UNL     1      -6.704  51.712  55.149  0.00  0.00    +0.000 A 
ATOM     31  C   UNL     1      -7.886  50.967  55.079  0.00  0.00    +0.000 A 
ATOM     32  C   UNL     1      -8.370  50.193  56.266  0.00  0.00    +0.000 C 
ENDBRANCH  23  26
ENDBRANCH   1  23
TORSDOF 6
ENDMDL
MODEL 5
REMARK VINA RESULT:      -6.5      2.378      8.698
REMARK  Name = 
REMARK  10 active torsions:
REMARK  status: ('A' for Active; 'I' for Inactive)
REMARK    1  A    between atoms: S_1  and  N_4
REMARK    2  A    between atoms: S_1  and  C_5
REMARK    3  A    between atoms: N_10  and  C_13
REMARK    4  A    between atoms: C_14  and  C_17
REMARK    5  A    between atoms: C_16  and  C_20
REMARK    6  A    between atoms: C_20  and  O_24
REMARK    7  A    between atoms: O_24  and  C_27
REMARK    8  A    between atoms: C_25  and  C_28
REMARK    9  A    between atoms: C_25  and  C_29
REMARK   10  A    between atoms: C_27  and  C_30
REMARK                            x       y       z     vdW  Elec       q    Type
REMARK                         _______ _______ _______ _____ _____    ______ ____
ROOT
ATOM      1  N   UNL     1     -13.030  55.612  49.183  0.00  0.00    +0.000 N 
ATOM      2  C   UNL     1     -12.291  54.998  48.183  0.00  0.00    +0.000 C 
ATOM      3  O   UNL     1     -11.929  55.614  47.186  0.00  0.00    +0.000 OA
ATOM      4  N   UNL     1     -12.057  53.653  48.396  0.00  0.00    +0.000 N 
ATOM      5  H   UNL     1     -13.227  55.110  50.008  0.00  0.00    +0.000 HD
ATOM      6  H   UNL     1     -12.433  53.191  49.180  0.00  0.00    +0.000 HD
ENDROOT
BRANCH   4   7
ATOM      7  C   UNL     1     -11.278  52.975  47.474  0.00  0.00    +0.000 A 
ATOM      8  S   UNL     1     -12.149  52.107  46.300  0.00  0.00    +0.000 S 
ATOM      9  C   UNL     1      -9.904  52.876  47.328  0.00  0.00    +0.000 A 
ATOM     10  C   UNL     1     -10.731  51.825  45.395  0.00  0.00    +0.000 A 
ATOM     11  C   UNL     1      -9.599  52.292  46.040  0.00  0.00    +0.000 A 
ATOM     12  C   UNL     1     -10.751  51.141  44.050  0.00  0.00    +0.000 C 
ATOM     13  C   UNL     1      -8.226  52.117  45.454  0.00  0.00    +0.000 C 
ATOM     14  C   UNL     1      -9.331  50.630  43.658  0.00  0.00    +0.000 C 
ATOM     15  C   UNL     1      -8.279  51.730  43.971  0.00  0.00    +0.000 C 
ATOM     16  C   UNL     1      -9.270  50.324  42.149  0.00  0.00    +0.000 C 
ATOM     17  C   UNL     1      -9.007  49.327  44.416  0.00  0.00    +0.000 C 
BRANCH   9  18
ATOM     18  C   UNL     1      -8.910  53.252  48.352  0.00  0.00    +0.000 C 
ATOM     19  O   UNL     1      -8.900  52.786  49.484  0.00  0.00    +0.000 OA
BRANCH  18  20
ATOM     20  O   UNL     1      -8.114  54.280  47.941  0.00  0.00    +0.000 OA
BRANCH  20  21
ATOM     21  C   UNL     1      -8.579  55.617  48.147  0.00  0.00    +0.000 C 
ATOM     22  C   UNL     1      -8.683  55.934  49.625  0.00  0.00    +0.000 C 
ENDBRANCH  20  21
ENDBRANCH  18  20
ENDBRANCH   9  18
ENDBRANCH   4   7
BRANCH   1  23
ATOM     23  S   UNL     1     -13.595  57.177  49.032  0.00  0.00    +0.000 S 
ATOM     24  O   UNL     1     -14.677  57.194  48.070  0.00  0.00    +0.000 OA
ATOM     25  O   UNL     1     -12.417  57.994  48.830  0.00  0.00    +0.000 OA
BRANCH  23  26
ATOM     26  C   UNL     1     -14.261  57.565  50.658  0.00  0.00    +0.000 A 
ATOM     27  N   UNL     1     -14.036  58.843  51.079  0.00  0.00    +0.000 NA
ATOM     28  C   UNL     1     -14.939  56.598  51.384  0.00  0.00    +0.000 A 
ATOM     29  C   UNL     1     -14.555  59.158  52.287  0.00  0.00    +0.000 A 
ATOM     30  C   UNL     1     -15.442  56.963  52.631  0.00  0.00    +0.000 A 
ATOM     31  C   UNL     1     -15.264  58.271  53.096  0.00  0.00    +0.000 A 
ATOM     32  C   UNL     1     -15.814  58.688  54.424  0.00  0.00    +0.000 C 
ENDBRANCH  23  26
ENDBRANCH   1  23
TORSDOF 6
ENDMDL
MODEL 6
REMARK VINA RESULT:      -6.5      2.391      3.366
REMARK  Name = 
REMARK  10 active torsions:
REMARK  status: ('A' for Active; 'I' for Inactive)
REMARK    1  A    between atoms: S_1  and  N_4
REMARK    2  A    between atoms: S_1  and  C_5
REMARK    3  A    between atoms: N_10  and  C_13
REMARK    4  A    between atoms: C_14  and  C_17
REMARK    5  A    between atoms: C_16  and  C_20
REMARK    6  A    between atoms: C_20  and  O_24
REMARK    7  A    between atoms: O_24  and  C_27
REMARK    8  A    between atoms: C_25  and  C_28
REMARK    9  A    between atoms: C_25  and  C_29
REMARK   10  A    between atoms: C_27  and  C_30
REMARK                            x       y       z     vdW  Elec       q    Type
REMARK                         _______ _______ _______ _____ _____    ______ ____
ROOT
ATOM      1  N   UNL     1     -10.773  54.013  45.080  0.00  0.00    +0.000 N 
ATOM      2  C   UNL     1     -11.344  54.333  46.303  0.00  0.00    +0.000 C 
ATOM      3  O   UNL     1     -11.776  53.465  47.053  0.00  0.00    +0.000 OA
ATOM      4  N   UNL     1     -11.419  55.689  46.555  0.00  0.00    +0.000 N 
ATOM      5  H   UNL     1     -10.359  54.729  44.545  0.00  0.00    +0.000 HD
ATOM      6  H   UNL     1     -11.122  56.347  45.885  0.00  0.00    +0.000 HD
ENDROOT
BRANCH   4   7
ATOM      7  C   UNL     1     -11.923  56.096  47.778  0.00  0.00    +0.000 A 
ATOM      8  S   UNL     1     -13.548  56.598  47.753  0.00  0.00    +0.000 S 
ATOM      9  C   UNL     1     -11.343  56.166  49.034  0.00  0.00    +0.000 A 
ATOM     10  C   UNL     1     -13.607  56.635  49.457  0.00  0.00    +0.000 A 
ATOM     11  C   UNL     1     -12.374  56.376  50.029  0.00  0.00    +0.000 A 
ATOM     12  C   UNL     1     -14.879  56.922  50.217  0.00  0.00    +0.000 C 
ATOM     13  C   UNL     1     -12.172  56.398  51.517  0.00  0.00    +0.000 C 
ATOM     14  C   UNL     1     -14.574  57.321  51.693  0.00  0.00    +0.000 C 
ATOM     15  C   UNL     1     -13.503  56.361  52.279  0.00  0.00    +0.000 C 
ATOM     16  C   UNL     1     -15.847  57.200  52.553  0.00  0.00    +0.000 C 
ATOM     17  C   UNL     1     -14.098  58.786  51.760  0.00  0.00    +0.000 C 
BRANCH   9  18
ATOM     18  C   UNL     1      -9.895  56.097  49.308  0.00  0.00    +0.000 C 
ATOM     19  O   UNL     1      -9.227  57.065  49.645  0.00  0.00    +0.000 OA
BRANCH  18  20
ATOM     20  O   UNL     1      -9.371  54.877  48.994  0.00  0.00    +0.000 OA
BRANCH  20  21
ATOM     21  C   UNL     1      -9.220  53.918  50.045  0.00  0.00    +0.000 C 
ATOM     22  C   UNL     1      -9.689  52.548  49.600  0.00  0.00    +0.000 C 
ENDBRANCH  20  21
ENDBRANCH  18  20
ENDBRANCH   9  18
ENDBRANCH   4   7
BRANCH   1  23
ATOM     23  S   UNL     1     -10.766  52.450  44.488  0.00  0.00    +0.000 S 
ATOM     24  O   UNL     1     -10.222  52.460  43.146  0.00  0.00    +0.000 OA
ATOM     25  O   UNL     1     -12.096  51.937  44.741  0.00  0.00    +0.000 OA
BRANCH  23  26
ATOM     26  C   UNL     1      -9.624  51.574  45.568  0.00  0.00    +0.000 A 
ATOM     27  N   UNL     1      -8.402  52.164  45.709  0.00  0.00    +0.000 NA
ATOM     28  C   UNL     1     -10.011  50.392  46.180  0.00  0.00    +0.000 A 
ATOM     29  C   UNL     1      -7.543  51.531  46.540  0.00  0.00    +0.000 A 
ATOM     30  C   UNL     1      -9.087  49.767  47.015  0.00  0.00    +0.000 A 
ATOM     31  C   UNL     1      -7.830  50.346  47.216  0.00  0.00    +0.000 A 
ATOM     32  C   UNL     1      -6.830  49.700  48.125  0.00  0.00    +0.000 C 
ENDBRANCH  23  26
ENDBRANCH   1  23
TORSDOF 6
ENDMDL
MODEL 7
REMARK VINA RESULT:      -6.3      2.943      4.782
REMARK  Name = 
REMARK  10 active torsions:
REMARK  status: ('A' for Active; 'I' for Inactive)
REMARK    1  A    between atoms: S_1  and  N_4
REMARK    2  A    between atoms: S_1  and  C_5
REMARK    3  A    between atoms: N_10  and  C_13
REMARK    4  A    between atoms: C_14  and  C_17
REMARK    5  A    between atoms: C_16  and  C_20
REMARK    6  A    between atoms: C_20  and  O_24
REMARK    7  A    between atoms: O_24  and  C_27
REMARK    8  A    between atoms: C_25  and  C_28
REMARK    9  A    between atoms: C_25  and  C_29
REMARK   10  A    between atoms: C_27  and  C_30
REMARK                            x       y       z     vdW  Elec       q    Type
REMARK                         _______ _______ _______ _____ _____    ______ ____
ROOT
ATOM      1  N   UNL     1      -8.828  52.834  49.732  0.00  0.00    +0.000 N 
ATOM      2  C   UNL     1     -10.044  53.410  50.066  0.00  0.00    +0.000 C 
ATOM      3  O   UNL     1     -10.951  52.749  50.559  0.00  0.00    +0.000 OA
ATOM      4  N   UNL     1     -10.141  54.752  49.750  0.00  0.00    +0.000 N 
ATOM      5  H   UNL     1      -8.094  53.413  49.420  0.00  0.00    +0.000 HD
ATOM      6  H   UNL     1      -9.406  55.219  49.288  0.00  0.00    +0.000 HD
ENDROOT
BRANCH   4   7
ATOM      7  C   UNL     1     -11.300  55.421  50.101  0.00  0.00    +0.000 A 
ATOM      8  S   UNL     1     -11.593  55.521  51.773  0.00  0.00    +0.000 S 
ATOM      9  C   UNL     1     -12.275  56.036  49.333  0.00  0.00    +0.000 A 
ATOM     10  C   UNL     1     -12.859  56.637  51.529  0.00  0.00    +0.000 A 
ATOM     11  C   UNL     1     -13.123  56.842  50.186  0.00  0.00    +0.000 A 
ATOM     12  C   UNL     1     -13.583  57.303  52.673  0.00  0.00    +0.000 C 
ATOM     13  C   UNL     1     -14.227  57.751  49.727  0.00  0.00    +0.000 C 
ATOM     14  C   UNL     1     -14.938  57.913  52.201  0.00  0.00    +0.000 C 
ATOM     15  C   UNL     1     -14.730  58.660  50.855  0.00  0.00    +0.000 C 
ATOM     16  C   UNL     1     -15.457  58.929  53.237  0.00  0.00    +0.000 C 
ATOM     17  C   UNL     1     -15.999  56.804  52.057  0.00  0.00    +0.000 C 
BRANCH   9  18
ATOM     18  C   UNL     1     -12.456  55.851  47.880  0.00  0.00    +0.000 C 
ATOM     19  O   UNL     1     -13.038  56.657  47.167  0.00  0.00    +0.000 OA
BRANCH  18  20
ATOM     20  O   UNL     1     -12.041  54.620  47.464  0.00  0.00    +0.000 OA
BRANCH  20  21
ATOM     21  C   UNL     1     -11.601  54.481  46.109  0.00  0.00    +0.000 C 
ATOM     22  C   UNL     1     -10.126  54.141  46.050  0.00  0.00    +0.000 C 
ENDBRANCH  20  21
ENDBRANCH  18  20
ENDBRANCH   9  18
ENDBRANCH   4   7
BRANCH   1  23
ATOM     23  S   UNL     1      -8.569  51.187  49.841  0.00  0.00    +0.000 S 
ATOM     24  O   UNL     1      -7.235  50.889  49.364  0.00  0.00    +0.000 OA
ATOM     25  O   UNL     1      -9.726  50.574  49.224  0.00  0.00    +0.000 OA
BRANCH  23  26
ATOM     26  C   UNL     1      -8.642  50.845  51.606  0.00  0.00    +0.000 A 
ATOM     27  N   UNL     1      -8.148  51.836  52.403  0.00  0.00    +0.000 NA
ATOM     28  C   UNL     1      -9.167  49.646  52.064  0.00  0.00    +0.000 A 
ATOM     29  C   UNL     1      -8.222  51.605  53.733  0.00  0.00    +0.000 A 
ATOM     30  C   UNL     1      -9.208  49.445  53.442  0.00  0.00    +0.000 A 
ATOM     31  C   UNL     1      -8.741  50.444  54.303  0.00  0.00    +0.000 A 
ATOM     32  C   UNL     1      -8.794  50.255  55.788  0.00  0.00    +0.000 C 
ENDBRANCH  23  26
ENDBRANCH   1  23
TORSDOF 6
ENDMDL
MODEL 8
REMARK VINA RESULT:      -6.1      2.894      4.133
REMARK  Name = 
REMARK  10 active torsions:
REMARK  status: ('A' for Active; 'I' for Inactive)
REMARK    1  A    between atoms: S_1  and  N_4
REMARK    2  A    between atoms: S_1  and  C_5
REMARK    3  A    between atoms: N_10  and  C_13
REMARK    4  A    between atoms: C_14  and  C_17
REMARK    5  A    between atoms: C_16  and  C_20
REMARK    6  A    between atoms: C_20  and  O_24
REMARK    7  A    between atoms: O_24  and  C_27
REMARK    8  A    between atoms: C_25  and  C_28
REMARK    9  A    between atoms: C_25  and  C_29
REMARK   10  A    between atoms: C_27  and  C_30
REMARK                            x       y       z     vdW  Elec       q    Type
REMARK                         _______ _______ _______ _____ _____    ______ ____
ROOT
ATOM      1  N   UNL     1      -9.882  53.192  45.988  0.00  0.00    +0.000 N 
ATOM      2  C   UNL     1     -10.247  54.283  46.762  0.00  0.00    +0.000 C 
ATOM      3  O   UNL     1      -9.500  55.244  46.906  0.00  0.00    +0.000 OA
ATOM      4  N   UNL     1     -11.480  54.156  47.373  0.00  0.00    +0.000 N 
ATOM      5  H   UNL     1     -10.543  52.480  45.824  0.00  0.00    +0.000 HD
ATOM      6  H   UNL     1     -12.010  53.331  47.281  0.00  0.00    +0.000 HD
ENDROOT
BRANCH   4   7
ATOM      7  C   UNL     1     -11.949  55.224  48.119  0.00  0.00    +0.000 A 
ATOM      8  S   UNL     1     -12.767  56.418  47.227  0.00  0.00    +0.000 S 
ATOM      9  C   UNL     1     -11.878  55.499  49.475  0.00  0.00    +0.000 A 
ATOM     10  C   UNL     1     -13.305  57.177  48.656  0.00  0.00    +0.000 A 
ATOM     11  C   UNL     1     -12.775  56.590  49.791  0.00  0.00    +0.000 A 
ATOM     12  C   UNL     1     -14.252  58.353  48.642  0.00  0.00    +0.000 C 
ATOM     13  C   UNL     1     -13.072  57.116  51.167  0.00  0.00    +0.000 C 
ATOM     14  C   UNL     1     -14.231  59.107  50.006  0.00  0.00    +0.000 C 
ATOM     15  C   UNL     1     -14.267  58.078  51.168  0.00  0.00    +0.000 C 
ATOM     16  C   UNL     1     -15.470  60.016  50.133  0.00  0.00    +0.000 C 
ATOM     17  C   UNL     1     -12.979  60.002  50.100  0.00  0.00    +0.000 C 
BRANCH   9  18
ATOM     18  C   UNL     1     -10.984  54.823  50.435  0.00  0.00    +0.000 C 
ATOM     19  O   UNL     1     -11.320  53.851  51.098  0.00  0.00    +0.000 OA
BRANCH  18  20
ATOM     20  O   UNL     1      -9.811  55.498  50.606  0.00  0.00    +0.000 OA
BRANCH  20  21
ATOM     21  C   UNL     1      -8.593  54.824  50.275  0.00  0.00    +0.000 C 
ATOM     22  C   UNL     1      -7.509  55.814  49.902  0.00  0.00    +0.000 C 
ENDBRANCH  20  21
ENDBRANCH  18  20
ENDBRANCH   9  18
ENDBRANCH   4   7
BRANCH   1  23
ATOM     23  S   UNL     1      -8.355  53.049  45.325  0.00  0.00    +0.000 S 
ATOM     24  O   UNL     1      -8.045  54.262  44.597  0.00  0.00    +0.000 OA
ATOM     25  O   UNL     1      -8.344  51.765  44.656  0.00  0.00    +0.000 OA
BRANCH  23  26
ATOM     26  C   UNL     1      -7.263  52.935  46.750  0.00  0.00    +0.000 A 
ATOM     27  N   UNL     1      -7.624  51.999  47.675  0.00  0.00    +0.000 NA
ATOM     28  C   UNL     1      -6.156  53.764  46.849  0.00  0.00    +0.000 A 
ATOM     29  C   UNL     1      -6.796  51.882  48.738  0.00  0.00    +0.000 A 
ATOM     30  C   UNL     1      -5.342  53.619  47.970  0.00  0.00    +0.000 A 
ATOM     31  C   UNL     1      -5.651  52.653  48.934  0.00  0.00    +0.000 A 
ATOM     32  C   UNL     1      -4.778  52.469  50.136  0.00  0.00    +0.000 C 
ENDBRANCH  23  26
ENDBRANCH   1  23
TORSDOF 6
ENDMDL
MODEL 9
REMARK VINA RESULT:      -6.1      4.016      8.985
REMARK  Name = 
REMARK  10 active torsions:
REMARK  status: ('A' for Active; 'I' for Inactive)
REMARK    1  A    between atoms: S_1  and  N_4
REMARK    2  A    between atoms: S_1  and  C_5
REMARK    3  A    between atoms: N_10  and  C_13
REMARK    4  A    between atoms: C_14  and  C_17
REMARK    5  A    between atoms: C_16  and  C_20
REMARK    6  A    between atoms: C_20  and  O_24
REMARK    7  A    between atoms: O_24  and  C_27
REMARK    8  A    between atoms: C_25  and  C_28
REMARK    9  A    between atoms: C_25  and  C_29
REMARK   10  A    between atoms: C_27  and  C_30
REMARK                            x       y       z     vdW  Elec       q    Type
REMARK                         _______ _______ _______ _____ _____    ______ ____
ROOT
ATOM      1  N   UNL     1     -11.566  55.351  50.597  0.00  0.00    +0.000 N 
ATOM      2  C   UNL     1     -10.368  54.868  50.093  0.00  0.00    +0.000 C 
ATOM      3  O   UNL     1      -9.960  55.199  48.985  0.00  0.00    +0.000 OA
ATOM      4  N   UNL     1      -9.727  53.967  50.922  0.00  0.00    +0.000 N 
ATOM      5  H   UNL     1     -11.817  55.133  51.524  0.00  0.00    +0.000 HD
ATOM      6  H   UNL     1     -10.135  53.681  51.772  0.00  0.00    +0.000 HD
ENDROOT
BRANCH   4   7
ATOM      7  C   UNL     1      -8.495  53.478  50.523  0.00  0.00    +0.000 A 
ATOM      8  S   UNL     1      -8.520  51.898  49.895  0.00  0.00    +0.000 S 
ATOM      9  C   UNL     1      -7.233  54.048  50.536  0.00  0.00    +0.000 A 
ATOM     10  C   UNL     1      -6.910  52.044  49.351  0.00  0.00    +0.000 A 
ATOM     11  C   UNL     1      -6.332  53.239  49.742  0.00  0.00    +0.000 A 
ATOM     12  C   UNL     1      -6.229  50.969  48.538  0.00  0.00    +0.000 C 
ATOM     13  C   UNL     1      -4.904  53.571  49.416  0.00  0.00    +0.000 C 
ATOM     14  C   UNL     1      -4.681  51.151  48.552  0.00  0.00    +0.000 C 
ATOM     15  C   UNL     1      -4.332  52.649  48.332  0.00  0.00    +0.000 C 
ATOM     16  C   UNL     1      -4.037  50.337  47.412  0.00  0.00    +0.000 C 
ATOM     17  C   UNL     1      -4.097  50.639  49.883  0.00  0.00    +0.000 C 
BRANCH   9  18
ATOM     18  C   UNL     1      -6.853  55.258  51.290  0.00  0.00    +0.000 C 
ATOM     19  O   UNL     1      -7.056  56.395  50.885  0.00  0.00    +0.000 OA
BRANCH  18  20
ATOM     20  O   UNL     1      -6.120  54.961  52.402  0.00  0.00    +0.000 OA
BRANCH  20  21
ATOM     21  C   UNL     1      -6.806  54.423  53.536  0.00  0.00    +0.000 C 
ATOM     22  C   UNL     1      -7.719  55.459  54.160  0.00  0.00    +0.000 C 
ENDBRANCH  20  21
ENDBRANCH  18  20
ENDBRANCH   9  18
ENDBRANCH   4   7
BRANCH   1  23
ATOM     23  S   UNL     1     -12.597  56.292  49.678  0.00  0.00    +0.000 S 
ATOM     24  O   UNL     1     -13.522  55.426  48.977  0.00  0.00    +0.000 OA
ATOM     25  O   UNL     1     -11.740  57.200  48.946  0.00  0.00    +0.000 OA
BRANCH  23  26
ATOM     26  C   UNL     1     -13.513  57.256  50.889  0.00  0.00    +0.000 A 
ATOM     27  N   UNL     1     -14.093  58.390  50.399  0.00  0.00    +0.000 NA
ATOM     28  C   UNL     1     -13.587  56.833  52.208  0.00  0.00    +0.000 A 
ATOM     29  C   UNL     1     -14.809  59.111  51.292  0.00  0.00    +0.000 A 
ATOM     30  C   UNL     1     -14.321  57.616  53.095  0.00  0.00    +0.000 A 
ATOM     31  C   UNL     1     -14.960  58.773  52.636  0.00  0.00    +0.000 A 
ATOM     32  C   UNL     1     -15.770  59.617  53.571  0.00  0.00    +0.000 C 
ENDBRANCH  23  26
ENDBRANCH   1  23
TORSDOF 6
ENDMDL
