MODEL 1
REMARK VINA RESULT:      -7.6      0.000      0.000
REMARK  Name = 
REMARK  9 active torsions:
REMARK  status: ('A' for Active; 'I' for Inactive)
REMARK    1  A    between atoms: S_1  and  N_4
REMARK    2  A    between atoms: S_1  and  N_5
REMARK    3  A    between atoms: N_12  and  C_14
REMARK    4  A    between atoms: C_16  and  C_19
REMARK    5  A    between atoms: C_19  and  O_23
REMARK    6  A    between atoms: O_23  and  C_26
REMARK    7  A    between atoms: C_24  and  C_27
REMARK    8  A    between atoms: C_24  and  C_28
REMARK    9  A    between atoms: C_26  and  C_29
REMARK                            x       y       z     vdW  Elec       q    Type
REMARK                         _______ _______ _______ _____ _____    ______ ____
ROOT
ATOM      1  C   UNL     1     -11.109  53.651  47.858  0.00  0.00    +0.000 A 
ATOM      2  S   UNL     1     -11.712  52.766  46.532  0.00  0.00    +0.000 S 
ATOM      3  C   UNL     1      -9.796  54.070  47.681  0.00  0.00    +0.000 A 
ATOM      4  C   UNL     1     -10.336  53.127  45.591  0.00  0.00    +0.000 A 
ATOM      5  C   UNL     1      -9.384  53.829  46.310  0.00  0.00    +0.000 A 
ATOM      6  C   UNL     1     -10.205  52.703  44.148  0.00  0.00    +0.000 C 
ATOM      7  C   UNL     1      -8.055  54.195  45.705  0.00  0.00    +0.000 C 
ATOM      8  C   UNL     1      -8.715  52.722  43.686  0.00  0.00    +0.000 C 
ATOM      9  C   UNL     1      -8.040  54.031  44.178  0.00  0.00    +0.000 C 
ATOM     10  C   UNL     1      -8.629  52.683  42.147  0.00  0.00    +0.000 C 
ATOM     11  C   UNL     1      -7.975  51.481  44.224  0.00  0.00    +0.000 C 
ENDROOT
BRANCH   1  15
ATOM     12  N   UNL     1     -13.708  55.002  50.004  0.00  0.00    +0.000 N 
ATOM     13  C   UNL     1     -12.793  54.949  48.926  0.00  0.00    +0.000 C 
ATOM     14  O   UNL     1     -12.741  55.826  48.069  0.00  0.00    +0.000 OA
ATOM     15  N   UNL     1     -12.017  53.809  48.901  0.00  0.00    +0.000 N 
ATOM     16  H   UNL     1     -13.770  54.274  50.662  0.00  0.00    +0.000 HD
ATOM     17  H   UNL     1     -12.103  53.125  49.604  0.00  0.00    +0.000 HD
BRANCH  12  18
ATOM     18  S   UNL     1     -14.680  56.361  50.106  0.00  0.00    +0.000 S 
ATOM     19  O   UNL     1     -14.730  56.949  48.791  0.00  0.00    +0.000 OA
ATOM     20  O   UNL     1     -15.862  56.059  50.871  0.00  0.00    +0.000 OA
BRANCH  18  21
ATOM     21  N   UNL     1     -13.722  57.395  51.054  0.00  0.00    +0.000 NA
ATOM     22  C   UNL     1     -13.873  57.303  52.544  0.00  0.00    +0.000 C 
ATOM     23  C   UNL     1     -13.839  58.849  50.649  0.00  0.00    +0.000 C 
ATOM     24  C   UNL     1     -15.114  58.045  53.066  0.00  0.00    +0.000 C 
ATOM     25  C   UNL     1     -15.123  59.484  51.197  0.00  0.00    +0.000 C 
ATOM     26  O   UNL     1     -15.143  59.411  52.629  0.00  0.00    +0.000 OA
ENDBRANCH  18  21
ENDBRANCH  12  18
ENDBRANCH   1  15
BRANCH   3  27
ATOM     27  C   UNL     1      -8.921  54.608  48.738  0.00  0.00    +0.000 C 
ATOM     28  O   UNL     1      -7.954  54.009  49.187  0.00  0.00    +0.000 OA
BRANCH  27  29
ATOM     29  O   UNL     1      -9.411  55.769  49.273  0.00  0.00    +0.000 OA
BRANCH  29  30
ATOM     30  C   UNL     1      -9.153  56.020  50.656  0.00  0.00    +0.000 C 
ATOM     31  C   UNL     1     -10.168  55.320  51.534  0.00  0.00    +0.000 C 
ENDBRANCH  29  30
ENDBRANCH  27  29
ENDBRANCH   3  27
TORSDOF 6
ENDMDL
MODEL 2
REMARK VINA RESULT:      -7.4      3.615      8.497
REMARK  Name = 
REMARK  9 active torsions:
REMARK  status: ('A' for Active; 'I' for Inactive)
REMARK    1  A    between atoms: S_1  and  N_4
REMARK    2  A    between atoms: S_1  and  N_5
REMARK    3  A    between atoms: N_12  and  C_14
REMARK    4  A    between atoms: C_16  and  C_19
REMARK    5  A    between atoms: C_19  and  O_23
REMARK    6  A    between atoms: O_23  and  C_26
REMARK    7  A    between atoms: C_24  and  C_27
REMARK    8  A    between atoms: C_24  and  C_28
REMARK    9  A    between atoms: C_26  and  C_29
REMARK                            x       y       z     vdW  Elec       q    Type
REMARK                         _______ _______ _______ _____ _____    ______ ____
ROOT
ATOM      1  C   UNL     1     -10.959  55.092  50.344  0.00  0.00    +0.000 A 
ATOM      2  S   UNL     1     -11.633  55.187  51.907  0.00  0.00    +0.000 S 
ATOM      3  C   UNL     1     -11.633  55.870  49.412  0.00  0.00    +0.000 A 
ATOM      4  C   UNL     1     -12.680  56.450  51.441  0.00  0.00    +0.000 A 
ATOM      5  C   UNL     1     -12.589  56.729  50.088  0.00  0.00    +0.000 A 
ATOM      6  C   UNL     1     -13.593  57.150  52.417  0.00  0.00    +0.000 C 
ATOM      7  C   UNL     1     -13.472  57.759  49.437  0.00  0.00    +0.000 C 
ATOM      8  C   UNL     1     -14.751  57.891  51.680  0.00  0.00    +0.000 C 
ATOM      9  C   UNL     1     -14.174  58.662  50.462  0.00  0.00    +0.000 C 
ATOM     10  C   UNL     1     -15.424  58.909  52.622  0.00  0.00    +0.000 C 
ATOM     11  C   UNL     1     -15.830  56.883  51.236  0.00  0.00    +0.000 C 
ENDROOT
BRANCH   1  15
ATOM     12  N   UNL     1      -7.558  53.826  50.483  0.00  0.00    +0.000 N 
ATOM     13  C   UNL     1      -8.614  54.763  50.578  0.00  0.00    +0.000 C 
ATOM     14  O   UNL     1      -8.434  55.912  50.969  0.00  0.00    +0.000 OA
ATOM     15  N   UNL     1      -9.852  54.253  50.248  0.00  0.00    +0.000 N 
ATOM     16  H   UNL     1      -7.719  52.895  50.208  0.00  0.00    +0.000 HD
ATOM     17  H   UNL     1      -9.950  53.319  49.952  0.00  0.00    +0.000 HD
BRANCH  12  18
ATOM     18  S   UNL     1      -6.022  54.374  50.860  0.00  0.00    +0.000 S 
ATOM     19  O   UNL     1      -5.554  55.139  49.732  0.00  0.00    +0.000 OA
ATOM     20  O   UNL     1      -6.002  54.879  52.209  0.00  0.00    +0.000 OA
BRANCH  18  21
ATOM     21  N   UNL     1      -5.133  52.926  50.856  0.00  0.00    +0.000 NA
ATOM     22  C   UNL     1      -5.853  51.672  51.257  0.00  0.00    +0.000 C 
ATOM     23  C   UNL     1      -3.848  53.017  51.651  0.00  0.00    +0.000 C 
ATOM     24  C   UNL     1      -5.998  51.528  52.780  0.00  0.00    +0.000 C 
ATOM     25  C   UNL     1      -4.108  52.889  53.157  0.00  0.00    +0.000 C 
ATOM     26  O   UNL     1      -4.733  51.632  53.449  0.00  0.00    +0.000 OA
ENDBRANCH  18  21
ENDBRANCH  12  18
ENDBRANCH   1  15
BRANCH   3  27
ATOM     27  C   UNL     1     -11.465  55.789  47.950  0.00  0.00    +0.000 C 
ATOM     28  O   UNL     1     -12.394  55.642  47.168  0.00  0.00    +0.000 OA
BRANCH  27  29
ATOM     29  O   UNL     1     -10.147  55.727  47.583  0.00  0.00    +0.000 OA
BRANCH  29  30
ATOM     30  C   UNL     1      -9.771  54.724  46.638  0.00  0.00    +0.000 C 
ATOM     31  C   UNL     1      -8.394  54.999  46.072  0.00  0.00    +0.000 C 
ENDBRANCH  29  30
ENDBRANCH  27  29
ENDBRANCH   3  27
TORSDOF 6
ENDMDL
MODEL 3
REMARK VINA RESULT:      -7.1      3.630      5.843
REMARK  Name = 
REMARK  9 active torsions:
REMARK  status: ('A' for Active; 'I' for Inactive)
REMARK    1  A    between atoms: S_1  and  N_4
REMARK    2  A    between atoms: S_1  and  N_5
REMARK    3  A    between atoms: N_12  and  C_14
REMARK    4  A    between atoms: C_16  and  C_19
REMARK    5  A    between atoms: C_19  and  O_23
REMARK    6  A    between atoms: O_23  and  C_26
REMARK    7  A    between atoms: C_24  and  C_27
REMARK    8  A    between atoms: C_24  and  C_28
REMARK    9  A    between atoms: C_26  and  C_29
REMARK                            x       y       z     vdW  Elec       q    Type
REMARK                         _______ _______ _______ _____ _____    ______ ____
ROOT
ATOM      1  C   UNL     1      -8.546  54.892  47.362  0.00  0.00    +0.000 A 
ATOM      2  S   UNL     1      -7.376  53.968  46.536  0.00  0.00    +0.000 S 
ATOM      3  C   UNL     1      -9.830  54.719  46.861  0.00  0.00    +0.000 A 
ATOM      4  C   UNL     1      -8.574  53.131  45.657  0.00  0.00    +0.000 A 
ATOM      5  C   UNL     1      -9.844  53.617  45.916  0.00  0.00    +0.000 A 
ATOM      6  C   UNL     1      -8.247  52.003  44.708  0.00  0.00    +0.000 C 
ATOM      7  C   UNL     1     -11.053  53.078  45.199  0.00  0.00    +0.000 C 
ATOM      8  C   UNL     1      -9.413  51.751  43.704  0.00  0.00    +0.000 C 
ATOM      9  C   UNL     1     -10.763  51.756  44.472  0.00  0.00    +0.000 C 
ATOM     10  C   UNL     1      -9.250  50.377  43.024  0.00  0.00    +0.000 C 
ATOM     11  C   UNL     1      -9.403  52.824  42.596  0.00  0.00    +0.000 C 
ENDROOT
BRANCH   1  15
ATOM     12  N   UNL     1      -7.573  56.045  50.665  0.00  0.00    +0.000 N 
ATOM     13  C   UNL     1      -8.154  55.202  49.689  0.00  0.00    +0.000 C 
ATOM     14  O   UNL     1      -8.672  54.128  49.978  0.00  0.00    +0.000 OA
ATOM     15  N   UNL     1      -8.034  55.670  48.397  0.00  0.00    +0.000 N 
ATOM     16  H   UNL     1      -7.124  56.885  50.419  0.00  0.00    +0.000 HD
ATOM     17  H   UNL     1      -7.598  56.534  48.211  0.00  0.00    +0.000 HD
BRANCH  12  18
ATOM     18  S   UNL     1      -7.686  55.548  52.259  0.00  0.00    +0.000 S 
ATOM     19  O   UNL     1      -7.131  56.600  53.073  0.00  0.00    +0.000 OA
ATOM     20  O   UNL     1      -8.985  54.976  52.502  0.00  0.00    +0.000 OA
BRANCH  18  21
ATOM     21  N   UNL     1      -6.563  54.273  52.299  0.00  0.00    +0.000 NA
ATOM     22  C   UNL     1      -7.082  52.907  52.637  0.00  0.00    +0.000 C 
ATOM     23  C   UNL     1      -5.367  54.563  53.180  0.00  0.00    +0.000 C 
ATOM     24  C   UNL     1      -7.299  52.707  54.146  0.00  0.00    +0.000 C 
ATOM     25  C   UNL     1      -5.698  54.361  54.664  0.00  0.00    +0.000 C 
ATOM     26  O   UNL     1      -6.116  53.009  54.899  0.00  0.00    +0.000 OA
ENDBRANCH  18  21
ENDBRANCH  12  18
ENDBRANCH   1  15
BRANCH   3  27
ATOM     27  C   UNL     1     -10.992  55.569  47.177  0.00  0.00    +0.000 C 
ATOM     28  O   UNL     1     -11.756  56.015  46.331  0.00  0.00    +0.000 OA
BRANCH  27  29
ATOM     29  O   UNL     1     -11.019  55.939  48.495  0.00  0.00    +0.000 OA
BRANCH  29  30
ATOM     30  C   UNL     1     -12.193  55.621  49.245  0.00  0.00    +0.000 C 
ATOM     31  C   UNL     1     -12.295  54.131  49.492  0.00  0.00    +0.000 C 
ENDBRANCH  29  30
ENDBRANCH  27  29
ENDBRANCH   3  27
TORSDOF 6
ENDMDL
MODEL 4
REMARK VINA RESULT:      -6.8      2.783      4.679
REMARK  Name = 
REMARK  9 active torsions:
REMARK  status: ('A' for Active; 'I' for Inactive)
REMARK    1  A    between atoms: S_1  and  N_4
REMARK    2  A    between atoms: S_1  and  N_5
REMARK    3  A    between atoms: N_12  and  C_14
REMARK    4  A    between atoms: C_16  and  C_19
REMARK    5  A    between atoms: C_19  and  O_23
REMARK    6  A    between atoms: O_23  and  C_26
REMARK    7  A    between atoms: C_24  and  C_27
REMARK    8  A    between atoms: C_24  and  C_28
REMARK    9  A    between atoms: C_26  and  C_29
REMARK                            x       y       z     vdW  Elec       q    Type
REMARK                         _______ _______ _______ _____ _____    ______ ____
ROOT
ATOM      1  C   UNL     1      -9.961  54.740  50.754  0.00  0.00    +0.000 A 
ATOM      2  S   UNL     1      -8.742  55.545  51.632  0.00  0.00    +0.000 S 
ATOM      3  C   UNL     1      -9.468  53.730  49.938  0.00  0.00    +0.000 A 
ATOM      4  C   UNL     1      -7.562  54.415  51.140  0.00  0.00    +0.000 A 
ATOM      5  C   UNL     1      -8.067  53.493  50.240  0.00  0.00    +0.000 A 
ATOM      6  C   UNL     1      -6.139  54.456  51.644  0.00  0.00    +0.000 C 
ATOM      7  C   UNL     1      -7.189  52.443  49.614  0.00  0.00    +0.000 C 
ATOM      8  C   UNL     1      -5.184  53.657  50.706  0.00  0.00    +0.000 C 
ATOM      9  C   UNL     1      -5.841  52.299  50.337  0.00  0.00    +0.000 C 
ATOM     10  C   UNL     1      -3.847  53.368  51.419  0.00  0.00    +0.000 C 
ATOM     11  C   UNL     1      -4.868  54.480  49.441  0.00  0.00    +0.000 C 
ENDROOT
BRANCH   1  15
ATOM     12  N   UNL     1     -13.092  56.547  50.413  0.00  0.00    +0.000 N 
ATOM     13  C   UNL     1     -11.769  56.147  50.112  0.00  0.00    +0.000 C 
ATOM     14  O   UNL     1     -11.170  56.562  49.124  0.00  0.00    +0.000 OA
ATOM     15  N   UNL     1     -11.246  55.219  50.988  0.00  0.00    +0.000 N 
ATOM     16  H   UNL     1     -13.579  56.176  51.184  0.00  0.00    +0.000 HD
ATOM     17  H   UNL     1     -11.770  54.904  51.761  0.00  0.00    +0.000 HD
BRANCH  12  18
ATOM     18  S   UNL     1     -13.792  57.677  49.397  0.00  0.00    +0.000 S 
ATOM     19  O   UNL     1     -12.948  58.845  49.415  0.00  0.00    +0.000 OA
ATOM     20  O   UNL     1     -14.219  57.041  48.178  0.00  0.00    +0.000 OA
BRANCH  18  21
ATOM     21  N   UNL     1     -15.195  58.091  50.262  0.00  0.00    +0.000 NA
ATOM     22  C   UNL     1     -15.129  59.300  51.148  0.00  0.00    +0.000 C 
ATOM     23  C   UNL     1     -15.760  56.938  51.064  0.00  0.00    +0.000 C 
ATOM     24  C   UNL     1     -14.435  59.018  52.491  0.00  0.00    +0.000 C 
ATOM     25  C   UNL     1     -14.980  56.725  52.368  0.00  0.00    +0.000 C 
ATOM     26  O   UNL     1     -15.033  57.909  53.177  0.00  0.00    +0.000 OA
ENDBRANCH  18  21
ENDBRANCH  12  18
ENDBRANCH   1  15
BRANCH   3  27
ATOM     27  C   UNL     1     -10.223  53.048  48.871  0.00  0.00    +0.000 C 
ATOM     28  O   UNL     1     -10.692  51.924  48.985  0.00  0.00    +0.000 OA
BRANCH  27  29
ATOM     29  O   UNL     1     -10.193  53.743  47.692  0.00  0.00    +0.000 OA
BRANCH  29  30
ATOM     30  C   UNL     1     -11.320  53.616  46.822  0.00  0.00    +0.000 C 
ATOM     31  C   UNL     1     -10.895  53.677  45.370  0.00  0.00    +0.000 C 
ENDBRANCH  29  30
ENDBRANCH  27  29
ENDBRANCH   3  27
TORSDOF 6
ENDMDL
MODEL 5
REMARK VINA RESULT:      -6.7      1.702      2.162
REMARK  Name = 
REMARK  9 active torsions:
REMARK  status: ('A' for Active; 'I' for Inactive)
REMARK    1  A    between atoms: S_1  and  N_4
REMARK    2  A    between atoms: S_1  and  N_5
REMARK    3  A    between atoms: N_12  and  C_14
REMARK    4  A    between atoms: C_16  and  C_19
REMARK    5  A    between atoms: C_19  and  O_23
REMARK    6  A    between atoms: O_23  and  C_26
REMARK    7  A    between atoms: C_24  and  C_27
REMARK    8  A    between atoms: C_24  and  C_28
REMARK    9  A    between atoms: C_26  and  C_29
REMARK                            x       y       z     vdW  Elec       q    Type
REMARK                         _______ _______ _______ _____ _____    ______ ____
ROOT
ATOM      1  C   UNL     1     -10.672  55.023  47.161  0.00  0.00    +0.000 A 
ATOM      2  S   UNL     1     -11.783  54.381  46.039  0.00  0.00    +0.000 S 
ATOM      3  C   UNL     1      -9.394  54.496  47.025  0.00  0.00    +0.000 A 
ATOM      4  C   UNL     1     -10.545  53.576  45.187  0.00  0.00    +0.000 A 
ATOM      5  C   UNL     1      -9.314  53.712  45.805  0.00  0.00    +0.000 A 
ATOM      6  C   UNL     1     -10.802  52.806  43.914  0.00  0.00    +0.000 C 
ATOM      7  C   UNL     1      -8.085  53.025  45.271  0.00  0.00    +0.000 C 
ATOM      8  C   UNL     1      -9.650  51.798  43.619  0.00  0.00    +0.000 C 
ATOM      9  C   UNL     1      -8.283  52.499  43.841  0.00  0.00    +0.000 C 
ATOM     10  C   UNL     1      -9.715  51.320  42.154  0.00  0.00    +0.000 C 
ATOM     11  C   UNL     1      -9.786  50.554  44.520  0.00  0.00    +0.000 C 
ENDROOT
BRANCH   1  15
ATOM     12  N   UNL     1     -12.401  56.533  49.975  0.00  0.00    +0.000 N 
ATOM     13  C   UNL     1     -11.918  55.506  49.131  0.00  0.00    +0.000 C 
ATOM     14  O   UNL     1     -12.074  54.318  49.393  0.00  0.00    +0.000 OA
ATOM     15  N   UNL     1     -11.217  55.961  48.033  0.00  0.00    +0.000 N 
ATOM     16  H   UNL     1     -12.235  57.483  49.778  0.00  0.00    +0.000 HD
ATOM     17  H   UNL     1     -11.106  56.926  47.870  0.00  0.00    +0.000 HD
BRANCH  12  18
ATOM     18  S   UNL     1     -13.269  56.059  51.325  0.00  0.00    +0.000 S 
ATOM     19  O   UNL     1     -13.507  54.643  51.202  0.00  0.00    +0.000 OA
ATOM     20  O   UNL     1     -12.699  56.655  52.506  0.00  0.00    +0.000 OA
BRANCH  18  21
ATOM     21  N   UNL     1     -14.765  56.819  51.054  0.00  0.00    +0.000 NA
ATOM     22  C   UNL     1     -14.747  58.153  50.369  0.00  0.00    +0.000 C 
ATOM     23  C   UNL     1     -15.608  56.932  52.306  0.00  0.00    +0.000 C 
ATOM     24  C   UNL     1     -14.382  59.306  51.318  0.00  0.00    +0.000 C 
ATOM     25  C   UNL     1     -15.143  58.094  53.194  0.00  0.00    +0.000 C 
ATOM     26  O   UNL     1     -15.229  59.333  52.476  0.00  0.00    +0.000 OA
ENDBRANCH  18  21
ENDBRANCH  12  18
ENDBRANCH   1  15
BRANCH   3  27
ATOM     27  C   UNL     1      -8.301  54.643  48.002  0.00  0.00    +0.000 C 
ATOM     28  O   UNL     1      -7.173  55.014  47.707  0.00  0.00    +0.000 OA
BRANCH  27  29
ATOM     29  O   UNL     1      -8.643  54.159  49.236  0.00  0.00    +0.000 OA
BRANCH  29  30
ATOM     30  C   UNL     1      -8.889  52.756  49.351  0.00  0.00    +0.000 C 
ATOM     31  C   UNL     1      -7.597  51.991  49.547  0.00  0.00    +0.000 C 
ENDBRANCH  29  30
ENDBRANCH  27  29
ENDBRANCH   3  27
TORSDOF 6
ENDMDL
MODEL 6
REMARK VINA RESULT:      -6.6      3.617      8.313
REMARK  Name = 
REMARK  9 active torsions:
REMARK  status: ('A' for Active; 'I' for Inactive)
REMARK    1  A    between atoms: S_1  and  N_4
REMARK    2  A    between atoms: S_1  and  N_5
REMARK    3  A    between atoms: N_12  and  C_14
REMARK    4  A    between atoms: C_16  and  C_19
REMARK    5  A    between atoms: C_19  and  O_23
REMARK    6  A    between atoms: O_23  and  C_26
REMARK    7  A    between atoms: C_24  and  C_27
REMARK    8  A    between atoms: C_24  and  C_28
REMARK    9  A    between atoms: C_26  and  C_29
REMARK                            x       y       z     vdW  Elec       q    Type
REMARK                         _______ _______ _______ _____ _____    ______ ____
ROOT
ATOM      1  C   UNL     1      -8.717  52.921  50.255  0.00  0.00    +0.000 A 
ATOM      2  S   UNL     1      -7.042  52.656  50.422  0.00  0.00    +0.000 S 
ATOM      3  C   UNL     1      -9.263  53.639  51.311  0.00  0.00    +0.000 A 
ATOM      4  C   UNL     1      -6.954  53.697  51.770  0.00  0.00    +0.000 A 
ATOM      5  C   UNL     1      -8.200  54.163  52.151  0.00  0.00    +0.000 A 
ATOM      6  C   UNL     1      -5.649  54.039  52.449  0.00  0.00    +0.000 C 
ATOM      7  C   UNL     1      -8.376  55.041  53.361  0.00  0.00    +0.000 C 
ATOM      8  C   UNL     1      -5.886  54.585  53.890  0.00  0.00    +0.000 C 
ATOM      9  C   UNL     1      -7.045  55.619  53.864  0.00  0.00    +0.000 C 
ATOM     10  C   UNL     1      -4.620  55.292  54.413  0.00  0.00    +0.000 C 
ATOM     11  C   UNL     1      -6.203  53.425  54.855  0.00  0.00    +0.000 C 
ENDROOT
BRANCH   1  15
ATOM     12  N   UNL     1      -9.846  52.498  46.830  0.00  0.00    +0.000 N 
ATOM     13  C   UNL     1      -9.298  53.150  47.959  0.00  0.00    +0.000 C 
ATOM     14  O   UNL     1      -8.845  54.289  47.899  0.00  0.00    +0.000 OA
ATOM     15  N   UNL     1      -9.271  52.376  49.100  0.00  0.00    +0.000 N 
ATOM     16  H   UNL     1     -10.169  51.569  46.878  0.00  0.00    +0.000 HD
ATOM     17  H   UNL     1      -9.634  51.460  49.097  0.00  0.00    +0.000 HD
BRANCH  12  18
ATOM     18  S   UNL     1      -9.920  53.377  45.408  0.00  0.00    +0.000 S 
ATOM     19  O   UNL     1     -11.097  54.206  45.481  0.00  0.00    +0.000 OA
ATOM     20  O   UNL     1      -8.617  53.898  45.088  0.00  0.00    +0.000 OA
BRANCH  18  21
ATOM     21  N   UNL     1     -10.265  52.161  44.272  0.00  0.00    +0.000 NA
ATOM     22  C   UNL     1      -9.686  50.799  44.521  0.00  0.00    +0.000 C 
ATOM     23  C   UNL     1      -9.940  52.568  42.851  0.00  0.00    +0.000 C 
ATOM     24  C   UNL     1      -8.206  50.697  44.118  0.00  0.00    +0.000 C 
ATOM     25  C   UNL     1      -8.437  52.456  42.563  0.00  0.00    +0.000 C 
ATOM     26  O   UNL     1      -7.993  51.106  42.760  0.00  0.00    +0.000 OA
ENDBRANCH  18  21
ENDBRANCH  12  18
ENDBRANCH   1  15
BRANCH   3  27
ATOM     27  C   UNL     1     -10.703  53.789  51.589  0.00  0.00    +0.000 C 
ATOM     28  O   UNL     1     -11.263  53.286  52.553  0.00  0.00    +0.000 OA
BRANCH  27  29
ATOM     29  O   UNL     1     -11.366  54.408  50.564  0.00  0.00    +0.000 OA
BRANCH  29  30
ATOM     30  C   UNL     1     -11.093  55.793  50.342  0.00  0.00    +0.000 C 
ATOM     31  C   UNL     1     -11.572  56.230  48.974  0.00  0.00    +0.000 C 
ENDBRANCH  29  30
ENDBRANCH  27  29
ENDBRANCH   3  27
TORSDOF 6
ENDMDL
MODEL 7
REMARK VINA RESULT:      -6.5      3.417      8.460
REMARK  Name = 
REMARK  9 active torsions:
REMARK  status: ('A' for Active; 'I' for Inactive)
REMARK    1  A    between atoms: S_1  and  N_4
REMARK    2  A    between atoms: S_1  and  N_5
REMARK    3  A    between atoms: N_12  and  C_14
REMARK    4  A    between atoms: C_16  and  C_19
REMARK    5  A    between atoms: C_19  and  O_23
REMARK    6  A    between atoms: O_23  and  C_26
REMARK    7  A    between atoms: C_24  and  C_27
REMARK    8  A    between atoms: C_24  and  C_28
REMARK    9  A    between atoms: C_26  and  C_29
REMARK                            x       y       z     vdW  Elec       q    Type
REMARK                         _______ _______ _______ _____ _____    ______ ____
ROOT
ATOM      1  C   UNL     1     -11.197  54.314  50.681  0.00  0.00    +0.000 A 
ATOM      2  S   UNL     1     -11.706  55.267  51.999  0.00  0.00    +0.000 S 
ATOM      3  C   UNL     1     -11.906  54.573  49.515  0.00  0.00    +0.000 A 
ATOM      4  C   UNL     1     -12.709  56.217  50.998  0.00  0.00    +0.000 A 
ATOM      5  C   UNL     1     -12.732  55.754  49.694  0.00  0.00    +0.000 A 
ATOM      6  C   UNL     1     -13.474  57.412  51.514  0.00  0.00    +0.000 C 
ATOM      7  C   UNL     1     -13.606  56.393  48.648  0.00  0.00    +0.000 C 
ATOM      8  C   UNL     1     -14.647  57.790  50.558  0.00  0.00    +0.000 C 
ATOM      9  C   UNL     1     -14.143  57.763  49.090  0.00  0.00    +0.000 C 
ATOM     10  C   UNL     1     -15.156  59.212  50.868  0.00  0.00    +0.000 C 
ATOM     11  C   UNL     1     -15.828  56.819  50.756  0.00  0.00    +0.000 C 
ENDROOT
BRANCH   1  15
ATOM     12  N   UNL     1      -7.908  52.790  50.899  0.00  0.00    +0.000 N 
ATOM     13  C   UNL     1      -8.897  53.726  50.515  0.00  0.00    +0.000 C 
ATOM     14  O   UNL     1      -8.627  54.734  49.869  0.00  0.00    +0.000 OA
ATOM     15  N   UNL     1     -10.162  53.432  50.978  0.00  0.00    +0.000 N 
ATOM     16  H   UNL     1      -8.128  52.007  51.452  0.00  0.00    +0.000 HD
ATOM     17  H   UNL     1     -10.330  52.617  51.506  0.00  0.00    +0.000 HD
BRANCH  12  18
ATOM     18  S   UNL     1      -6.347  53.076  50.367  0.00  0.00    +0.000 S 
ATOM     19  O   UNL     1      -6.107  54.491  50.495  0.00  0.00    +0.000 OA
ATOM     20  O   UNL     1      -5.457  52.081  50.909  0.00  0.00    +0.000 OA
BRANCH  18  21
ATOM     21  N   UNL     1      -6.490  52.764  48.703  0.00  0.00    +0.000 NA
ATOM     22  C   UNL     1      -6.270  51.354  48.243  0.00  0.00    +0.000 C 
ATOM     23  C   UNL     1      -5.642  53.685  47.852  0.00  0.00    +0.000 C 
ATOM     24  C   UNL     1      -4.781  50.985  48.140  0.00  0.00    +0.000 C 
ATOM     25  C   UNL     1      -4.172  53.245  47.841  0.00  0.00    +0.000 C 
ATOM     26  O   UNL     1      -4.057  51.913  47.321  0.00  0.00    +0.000 OA
ENDBRANCH  18  21
ENDBRANCH  12  18
ENDBRANCH   1  15
BRANCH   3  27
ATOM     27  C   UNL     1     -11.888  53.738  48.300  0.00  0.00    +0.000 C 
ATOM     28  O   UNL     1     -12.440  52.648  48.219  0.00  0.00    +0.000 OA
BRANCH  27  29
ATOM     29  O   UNL     1     -11.050  54.239  47.341  0.00  0.00    +0.000 OA
BRANCH  29  30
ATOM     30  C   UNL     1     -11.634  54.647  46.102  0.00  0.00    +0.000 C 
ATOM     31  C   UNL     1     -11.325  53.654  45.001  0.00  0.00    +0.000 C 
ENDBRANCH  29  30
ENDBRANCH  27  29
ENDBRANCH   3  27
TORSDOF 6
ENDMDL
MODEL 8
REMARK VINA RESULT:      -6.4      3.766      5.858
REMARK  Name = 
REMARK  9 active torsions:
REMARK  status: ('A' for Active; 'I' for Inactive)
REMARK    1  A    between atoms: S_1  and  N_4
REMARK    2  A    between atoms: S_1  and  N_5
REMARK    3  A    between atoms: N_12  and  C_14
REMARK    4  A    between atoms: C_16  and  C_19
REMARK    5  A    between atoms: C_19  and  O_23
REMARK    6  A    between atoms: O_23  and  C_26
REMARK    7  A    between atoms: C_24  and  C_27
REMARK    8  A    between atoms: C_24  and  C_28
REMARK    9  A    between atoms: C_26  and  C_29
REMARK                            x       y       z     vdW  Elec       q    Type
REMARK                         _______ _______ _______ _____ _____    ______ ____
ROOT
ATOM      1  C   UNL     1     -11.600  52.563  49.073  0.00  0.00    +0.000 A 
ATOM      2  S   UNL     1     -10.989  51.190  48.268  0.00  0.00    +0.000 S 
ATOM      3  C   UNL     1     -11.662  53.688  48.262  0.00  0.00    +0.000 A 
ATOM      4  C   UNL     1     -11.025  51.988  46.761  0.00  0.00    +0.000 A 
ATOM      5  C   UNL     1     -11.403  53.315  46.882  0.00  0.00    +0.000 A 
ATOM      6  C   UNL     1     -10.669  51.297  45.467  0.00  0.00    +0.000 C 
ATOM      7  C   UNL     1     -11.435  54.235  45.692  0.00  0.00    +0.000 C 
ATOM      8  C   UNL     1     -10.317  52.328  44.352  0.00  0.00    +0.000 C 
ATOM      9  C   UNL     1     -11.365  53.473  44.360  0.00  0.00    +0.000 C 
ATOM     10  C   UNL     1     -10.349  51.654  42.965  0.00  0.00    +0.000 C 
ATOM     11  C   UNL     1      -8.893  52.880  44.567  0.00  0.00    +0.000 C 
ENDROOT
BRANCH   1  15
ATOM     12  N   UNL     1     -11.415  52.360  52.695  0.00  0.00    +0.000 N 
ATOM     13  C   UNL     1     -10.972  52.577  51.369  0.00  0.00    +0.000 C 
ATOM     14  O   UNL     1      -9.843  52.987  51.116  0.00  0.00    +0.000 OA
ATOM     15  N   UNL     1     -11.932  52.343  50.407  0.00  0.00    +0.000 N 
ATOM     16  H   UNL     1     -12.335  52.071  52.889  0.00  0.00    +0.000 HD
ATOM     17  H   UNL     1     -12.831  52.027  50.658  0.00  0.00    +0.000 HD
BRANCH  12  18
ATOM     18  S   UNL     1     -10.302  52.617  53.918  0.00  0.00    +0.000 S 
ATOM     19  O   UNL     1      -9.701  53.905  53.683  0.00  0.00    +0.000 OA
ATOM     20  O   UNL     1     -10.874  52.241  55.185  0.00  0.00    +0.000 OA
BRANCH  18  21
ATOM     21  N   UNL     1      -9.112  51.462  53.545  0.00  0.00    +0.000 NA
ATOM     22  C   UNL     1      -8.985  50.281  54.461  0.00  0.00    +0.000 C 
ATOM     23  C   UNL     1      -7.739  52.067  53.349  0.00  0.00    +0.000 C 
ATOM     24  C   UNL     1      -8.207  50.605  55.748  0.00  0.00    +0.000 C 
ATOM     25  C   UNL     1      -7.063  52.377  54.691  0.00  0.00    +0.000 C 
ATOM     26  O   UNL     1      -6.923  51.177  55.465  0.00  0.00    +0.000 OA
ENDBRANCH  18  21
ENDBRANCH  12  18
ENDBRANCH   1  15
BRANCH   3  27
ATOM     27  C   UNL     1     -11.882  55.068  48.730  0.00  0.00    +0.000 C 
ATOM     28  O   UNL     1     -11.074  55.692  49.405  0.00  0.00    +0.000 OA
BRANCH  27  29
ATOM     29  O   UNL     1     -13.152  55.507  48.469  0.00  0.00    +0.000 OA
BRANCH  29  30
ATOM     30  C   UNL     1     -13.402  56.909  48.575  0.00  0.00    +0.000 C 
ATOM     31  C   UNL     1     -14.034  57.447  47.309  0.00  0.00    +0.000 C 
ENDBRANCH  29  30
ENDBRANCH  27  29
ENDBRANCH   3  27
TORSDOF 6
ENDMDL
MODEL 9
REMARK VINA RESULT:      -6.3      3.662      5.710
REMARK  Name = 
REMARK  9 active torsions:
REMARK  status: ('A' for Active; 'I' for Inactive)
REMARK    1  A    between atoms: S_1  and  N_4
REMARK    2  A    between atoms: S_1  and  N_5
REMARK    3  A    between atoms: N_12  and  C_14
REMARK    4  A    between atoms: C_16  and  C_19
REMARK    5  A    between atoms: C_19  and  O_23
REMARK    6  A    between atoms: O_23  and  C_26
REMARK    7  A    between atoms: C_24  and  C_27
REMARK    8  A    between atoms: C_24  and  C_28
REMARK    9  A    between atoms: C_26  and  C_29
REMARK                            x       y       z     vdW  Elec       q    Type
REMARK                         _______ _______ _______ _____ _____    ______ ____
ROOT
ATOM      1  C   UNL     1      -8.758  53.604  47.666  0.00  0.00    +0.000 A 
ATOM      2  S   UNL     1      -7.562  52.727  46.826  0.00  0.00    +0.000 S 
ATOM      3  C   UNL     1      -9.912  53.805  46.919  0.00  0.00    +0.000 A 
ATOM      4  C   UNL     1      -8.634  52.381  45.545  0.00  0.00    +0.000 A 
ATOM      5  C   UNL     1      -9.858  53.007  45.707  0.00  0.00    +0.000 A 
ATOM      6  C   UNL     1      -8.252  51.497  44.383  0.00  0.00    +0.000 C 
ATOM      7  C   UNL     1     -10.937  52.904  44.663  0.00  0.00    +0.000 C 
ATOM      8  C   UNL     1      -9.191  51.732  43.160  0.00  0.00    +0.000 C 
ATOM      9  C   UNL     1     -10.664  51.786  43.646  0.00  0.00    +0.000 C 
ATOM     10  C   UNL     1      -9.057  50.576  42.149  0.00  0.00    +0.000 C 
ATOM     11  C   UNL     1      -8.801  53.034  42.432  0.00  0.00    +0.000 C 
ENDROOT
BRANCH   1  15
ATOM     12  N   UNL     1      -8.180  53.548  51.251  0.00  0.00    +0.000 N 
ATOM     13  C   UNL     1      -8.617  53.091  49.986  0.00  0.00    +0.000 C 
ATOM     14  O   UNL     1      -9.107  51.976  49.828  0.00  0.00    +0.000 OA
ATOM     15  N   UNL     1      -8.392  53.980  48.956  0.00  0.00    +0.000 N 
ATOM     16  H   UNL     1      -7.751  54.427  51.361  0.00  0.00    +0.000 HD
ATOM     17  H   UNL     1      -7.984  54.859  49.129  0.00  0.00    +0.000 HD
BRANCH  12  18
ATOM     18  S   UNL     1      -8.427  52.526  52.553  0.00  0.00    +0.000 S 
ATOM     19  O   UNL     1      -9.847  52.307  52.659  0.00  0.00    +0.000 OA
ATOM     20  O   UNL     1      -7.471  51.450  52.517  0.00  0.00    +0.000 OA
BRANCH  18  21
ATOM     21  N   UNL     1      -8.002  53.528  53.859  0.00  0.00    +0.000 NA
ATOM     22  C   UNL     1      -8.010  55.010  53.623  0.00  0.00    +0.000 C 
ATOM     23  C   UNL     1      -6.679  53.149  54.491  0.00  0.00    +0.000 C 
ATOM     24  C   UNL     1      -6.752  55.504  52.890  0.00  0.00    +0.000 C 
ATOM     25  C   UNL     1      -5.493  53.666  53.667  0.00  0.00    +0.000 C 
ATOM     26  O   UNL     1      -5.550  55.095  53.557  0.00  0.00    +0.000 OA
ENDBRANCH  18  21
ENDBRANCH  12  18
ENDBRANCH   1  15
BRANCH   3  27
ATOM     27  C   UNL     1     -10.997  54.743  47.259  0.00  0.00    +0.000 C 
ATOM     28  O   UNL     1     -11.278  55.727  46.588  0.00  0.00    +0.000 OA
BRANCH  27  29
ATOM     29  O   UNL     1     -11.538  54.484  48.490  0.00  0.00    +0.000 OA
BRANCH  29  30
ATOM     30  C   UNL     1     -11.939  55.602  49.284  0.00  0.00    +0.000 C 
ATOM     31  C   UNL     1     -11.156  55.659  50.578  0.00  0.00    +0.000 C 
ENDBRANCH  29  30
ENDBRANCH  27  29
ENDBRANCH   3  27
TORSDOF 6
ENDMDL
