MODEL 1
REMARK VINA RESULT:      -7.3      0.000      0.000
REMARK  Name = 
REMARK  10 active torsions:
REMARK  status: ('A' for Active; 'I' for Inactive)
REMARK    1  A    between atoms: S_1  and  N_4
REMARK    2  A    between atoms: S_1  and  C_5
REMARK    3  A    between atoms: N_10  and  C_13
REMARK    4  A    between atoms: C_14  and  C_17
REMARK    5  A    between atoms: C_16  and  C_20
REMARK    6  A    between atoms: C_20  and  O_24
REMARK    7  A    between atoms: O_24  and  C_27
REMARK    8  A    between atoms: C_25  and  C_28
REMARK    9  A    between atoms: C_25  and  C_29
REMARK   10  A    between atoms: C_27  and  C_30
REMARK                            x       y       z     vdW  Elec       q    Type
REMARK                         _______ _______ _______ _____ _____    ______ ____
ROOT
ATOM      1  N   UNL     1      -9.645  51.733  48.777  0.00  0.00    +0.000 N 
ATOM      2  C   UNL     1     -10.726  52.568  49.013  0.00  0.00    +0.000 C 
ATOM      3  O   UNL     1     -11.824  52.346  48.519  0.00  0.00    +0.000 OA
ATOM      4  N   UNL     1     -10.405  53.698  49.741  0.00  0.00    +0.000 N 
ATOM      5  H   UNL     1      -8.793  51.943  49.223  0.00  0.00    +0.000 HD
ATOM      6  H   UNL     1      -9.496  53.825  50.100  0.00  0.00    +0.000 HD
ENDROOT
BRANCH   4   7
ATOM      7  C   UNL     1     -11.391  54.645  49.953  0.00  0.00    +0.000 A 
ATOM      8  S   UNL     1     -12.094  54.620  51.500  0.00  0.00    +0.000 S 
ATOM      9  C   UNL     1     -11.880  55.653  49.143  0.00  0.00    +0.000 A 
ATOM     10  C   UNL     1     -12.863  56.117  51.223  0.00  0.00    +0.000 A 
ATOM     11  C   UNL     1     -12.671  56.572  49.929  0.00  0.00    +0.000 A 
ATOM     12  C   UNL     1     -13.651  56.838  52.288  0.00  0.00    +0.000 C 
ATOM     13  C   UNL     1     -13.296  57.846  49.438  0.00  0.00    +0.000 C 
ATOM     14  C   UNL     1     -14.602  57.902  51.658  0.00  0.00    +0.000 C 
ATOM     15  C   UNL     1     -13.833  58.710  50.582  0.00  0.00    +0.000 C 
ATOM     16  C   UNL     1     -15.092  58.894  52.729  0.00  0.00    +0.000 C 
ATOM     17  C   UNL     1     -15.839  57.211  51.046  0.00  0.00    +0.000 C 
BRANCH   9  18
ATOM     18  C   UNL     1     -11.587  55.729  47.709  0.00  0.00    +0.000 C 
ATOM     19  O   UNL     1     -12.458  55.823  46.850  0.00  0.00    +0.000 OA
BRANCH  18  20
ATOM     20  O   UNL     1     -10.251  55.692  47.455  0.00  0.00    +0.000 OA
BRANCH  20  21
ATOM     21  C   UNL     1      -9.823  54.900  46.343  0.00  0.00    +0.000 C 
ATOM     22  C   UNL     1      -8.311  54.915  46.262  0.00  0.00    +0.000 C 
ENDBRANCH  20  21
ENDBRANCH  18  20
ENDBRANCH   9  18
ENDBRANCH   4   7
BRANCH   1  23
ATOM     23  S   UNL     1      -9.700  50.395  47.783  0.00  0.00    +0.000 S 
ATOM     24  O   UNL     1     -10.977  49.744  47.938  0.00  0.00    +0.000 OA
ATOM     25  O   UNL     1      -8.467  49.677  48.045  0.00  0.00    +0.000 OA
BRANCH  23  26
ATOM     26  C   UNL     1      -9.568  51.052  46.134  0.00  0.00    +0.000 A 
ATOM     27  C   UNL     1     -10.723  51.392  45.424  0.00  0.00    +0.000 A 
ATOM     28  C   UNL     1      -8.306  51.258  45.569  0.00  0.00    +0.000 A 
ATOM     29  C   UNL     1     -10.612  51.909  44.129  0.00  0.00    +0.000 A 
ATOM     30  C   UNL     1      -8.202  51.781  44.277  0.00  0.00    +0.000 A 
ATOM     31  C   UNL     1      -9.352  52.100  43.543  0.00  0.00    +0.000 A 
ATOM     32  C   UNL     1      -9.214  52.631  42.145  0.00  0.00    +0.000 C 
ENDBRANCH  23  26
ENDBRANCH   1  23
TORSDOF 6
ENDMDL
MODEL 2
REMARK VINA RESULT:      -7.0      3.515      5.374
REMARK  Name = 
REMARK  10 active torsions:
REMARK  status: ('A' for Active; 'I' for Inactive)
REMARK    1  A    between atoms: S_1  and  N_4
REMARK    2  A    between atoms: S_1  and  C_5
REMARK    3  A    between atoms: N_10  and  C_13
REMARK    4  A    between atoms: C_14  and  C_17
REMARK    5  A    between atoms: C_16  and  C_20
REMARK    6  A    between atoms: C_20  and  O_24
REMARK    7  A    between atoms: O_24  and  C_27
REMARK    8  A    between atoms: C_25  and  C_28
REMARK    9  A    between atoms: C_25  and  C_29
REMARK   10  A    between atoms: C_27  and  C_30
REMARK                            x       y       z     vdW  Elec       q    Type
REMARK                         _______ _______ _______ _____ _____    ______ ____
ROOT
ATOM      1  N   UNL     1      -8.323  52.768  50.151  0.00  0.00    +0.000 N 
ATOM      2  C   UNL     1      -9.202  53.821  50.357  0.00  0.00    +0.000 C 
ATOM      3  O   UNL     1      -8.949  54.717  51.150  0.00  0.00    +0.000 OA
ATOM      4  N   UNL     1     -10.399  53.682  49.679  0.00  0.00    +0.000 N 
ATOM      5  H   UNL     1      -8.563  52.089  49.479  0.00  0.00    +0.000 HD
ATOM      6  H   UNL     1     -10.546  52.928  49.064  0.00  0.00    +0.000 HD
ENDROOT
BRANCH   4   7
ATOM      7  C   UNL     1     -11.384  54.631  49.888  0.00  0.00    +0.000 A 
ATOM      8  S   UNL     1     -12.104  54.597  51.427  0.00  0.00    +0.000 S 
ATOM      9  C   UNL     1     -11.859  55.648  49.081  0.00  0.00    +0.000 A 
ATOM     10  C   UNL     1     -12.863  56.100  51.154  0.00  0.00    +0.000 A 
ATOM     11  C   UNL     1     -12.655  56.564  49.866  0.00  0.00    +0.000 A 
ATOM     12  C   UNL     1     -13.660  56.816  52.216  0.00  0.00    +0.000 C 
ATOM     13  C   UNL     1     -13.269  57.845  49.379  0.00  0.00    +0.000 C 
ATOM     14  C   UNL     1     -14.599  57.888  51.584  0.00  0.00    +0.000 C 
ATOM     15  C   UNL     1     -13.815  58.702  50.523  0.00  0.00    +0.000 C 
ATOM     16  C   UNL     1     -15.096  58.874  52.657  0.00  0.00    +0.000 C 
ATOM     17  C   UNL     1     -15.832  57.208  50.954  0.00  0.00    +0.000 C 
BRANCH   9  18
ATOM     18  C   UNL     1     -11.551  55.735  47.651  0.00  0.00    +0.000 C 
ATOM     19  O   UNL     1     -12.411  55.849  46.784  0.00  0.00    +0.000 OA
BRANCH  18  20
ATOM     20  O   UNL     1     -10.213  55.681  47.410  0.00  0.00    +0.000 OA
BRANCH  20  21
ATOM     21  C   UNL     1      -9.776  54.815  46.358  0.00  0.00    +0.000 C 
ATOM     22  C   UNL     1      -8.266  54.865  46.255  0.00  0.00    +0.000 C 
ENDBRANCH  20  21
ENDBRANCH  18  20
ENDBRANCH   9  18
ENDBRANCH   4   7
BRANCH   1  23
ATOM     23  S   UNL     1      -6.884  52.582  50.972  0.00  0.00    +0.000 S 
ATOM     24  O   UNL     1      -6.285  53.878  51.177  0.00  0.00    +0.000 OA
ATOM     25  O   UNL     1      -6.169  51.543  50.255  0.00  0.00    +0.000 OA
BRANCH  23  26
ATOM     26  C   UNL     1      -7.347  51.889  52.545  0.00  0.00    +0.000 A 
ATOM     27  C   UNL     1      -6.622  52.219  53.693  0.00  0.00    +0.000 A 
ATOM     28  C   UNL     1      -8.459  51.045  52.630  0.00  0.00    +0.000 A 
ATOM     29  C   UNL     1      -6.994  51.673  54.927  0.00  0.00    +0.000 A 
ATOM     30  C   UNL     1      -8.827  50.508  53.866  0.00  0.00    +0.000 A 
ATOM     31  C   UNL     1      -8.093  50.808  55.021  0.00  0.00    +0.000 A 
ATOM     32  C   UNL     1      -8.492  50.192  56.332  0.00  0.00    +0.000 C 
ENDBRANCH  23  26
ENDBRANCH   1  23
TORSDOF 6
ENDMDL
MODEL 3
REMARK VINA RESULT:      -6.9      3.568      5.117
REMARK  Name = 
REMARK  10 active torsions:
REMARK  status: ('A' for Active; 'I' for Inactive)
REMARK    1  A    between atoms: S_1  and  N_4
REMARK    2  A    between atoms: S_1  and  C_5
REMARK    3  A    between atoms: N_10  and  C_13
REMARK    4  A    between atoms: C_14  and  C_17
REMARK    5  A    between atoms: C_16  and  C_20
REMARK    6  A    between atoms: C_20  and  O_24
REMARK    7  A    between atoms: O_24  and  C_27
REMARK    8  A    between atoms: C_25  and  C_28
REMARK    9  A    between atoms: C_25  and  C_29
REMARK   10  A    between atoms: C_27  and  C_30
REMARK                            x       y       z     vdW  Elec       q    Type
REMARK                         _______ _______ _______ _____ _____    ______ ____
ROOT
ATOM      1  N   UNL     1      -8.118  53.193  49.293  0.00  0.00    +0.000 N 
ATOM      2  C   UNL     1      -9.120  54.146  49.389  0.00  0.00    +0.000 C 
ATOM      3  O   UNL     1      -8.883  55.339  49.249  0.00  0.00    +0.000 OA
ATOM      4  N   UNL     1     -10.345  53.626  49.766  0.00  0.00    +0.000 N 
ATOM      5  H   UNL     1      -8.371  52.246  49.385  0.00  0.00    +0.000 HD
ATOM      6  H   UNL     1     -10.468  52.655  49.876  0.00  0.00    +0.000 HD
ENDROOT
BRANCH   4   7
ATOM      7  C   UNL     1     -11.392  54.504  49.982  0.00  0.00    +0.000 A 
ATOM      8  S   UNL     1     -11.841  54.705  51.608  0.00  0.00    +0.000 S 
ATOM      9  C   UNL     1     -12.114  55.298  49.109  0.00  0.00    +0.000 A 
ATOM     10  C   UNL     1     -12.815  56.051  51.219  0.00  0.00    +0.000 A 
ATOM     11  C   UNL     1     -12.878  56.273  49.853  0.00  0.00    +0.000 A 
ATOM     12  C   UNL     1     -13.509  56.885  52.267  0.00  0.00    +0.000 C 
ATOM     13  C   UNL     1     -13.717  57.373  49.270  0.00  0.00    +0.000 C 
ATOM     14  C   UNL     1     -14.664  57.724  51.639  0.00  0.00    +0.000 C 
ATOM     15  C   UNL     1     -14.170  58.383  50.326  0.00  0.00    +0.000 C 
ATOM     16  C   UNL     1     -15.097  58.850  52.596  0.00  0.00    +0.000 C 
ATOM     17  C   UNL     1     -15.890  56.825  51.375  0.00  0.00    +0.000 C 
BRANCH   9  18
ATOM     18  C   UNL     1     -12.056  55.132  47.654  0.00  0.00    +0.000 C 
ATOM     19  O   UNL     1     -11.973  56.075  46.874  0.00  0.00    +0.000 OA
BRANCH  18  20
ATOM     20  O   UNL     1     -12.097  53.824  47.284  0.00  0.00    +0.000 OA
BRANCH  20  21
ATOM     21  C   UNL     1     -11.102  53.379  46.358  0.00  0.00    +0.000 C 
ATOM     22  C   UNL     1     -11.723  53.213  44.987  0.00  0.00    +0.000 C 
ENDBRANCH  20  21
ENDBRANCH  18  20
ENDBRANCH   9  18
ENDBRANCH   4   7
BRANCH   1  23
ATOM     23  S   UNL     1      -6.511  53.553  49.030  0.00  0.00    +0.000 S 
ATOM     24  O   UNL     1      -6.421  54.708  48.172  0.00  0.00    +0.000 OA
ATOM     25  O   UNL     1      -5.898  52.296  48.646  0.00  0.00    +0.000 OA
BRANCH  23  26
ATOM     26  C   UNL     1      -5.871  53.962  50.640  0.00  0.00    +0.000 A 
ATOM     27  C   UNL     1      -6.747  54.320  51.669  0.00  0.00    +0.000 A 
ATOM     28  C   UNL     1      -4.495  53.887  50.878  0.00  0.00    +0.000 A 
ATOM     29  C   UNL     1      -6.237  54.638  52.932  0.00  0.00    +0.000 A 
ATOM     30  C   UNL     1      -3.994  54.200  52.144  0.00  0.00    +0.000 A 
ATOM     31  C   UNL     1      -4.857  54.589  53.178  0.00  0.00    +0.000 A 
ATOM     32  C   UNL     1      -4.289  54.950  54.520  0.00  0.00    +0.000 C 
ENDBRANCH  23  26
ENDBRANCH   1  23
TORSDOF 6
ENDMDL
MODEL 4
REMARK VINA RESULT:      -6.8      3.767      7.699
REMARK  Name = 
REMARK  10 active torsions:
REMARK  status: ('A' for Active; 'I' for Inactive)
REMARK    1  A    between atoms: S_1  and  N_4
REMARK    2  A    between atoms: S_1  and  C_5
REMARK    3  A    between atoms: N_10  and  C_13
REMARK    4  A    between atoms: C_14  and  C_17
REMARK    5  A    between atoms: C_16  and  C_20
REMARK    6  A    between atoms: C_20  and  O_24
REMARK    7  A    between atoms: O_24  and  C_27
REMARK    8  A    between atoms: C_25  and  C_28
REMARK    9  A    between atoms: C_25  and  C_29
REMARK   10  A    between atoms: C_27  and  C_30
REMARK                            x       y       z     vdW  Elec       q    Type
REMARK                         _______ _______ _______ _____ _____    ______ ____
ROOT
ATOM      1  N   UNL     1     -14.420  55.052  51.219  0.00  0.00    +0.000 N 
ATOM      2  C   UNL     1     -13.113  55.212  51.655  0.00  0.00    +0.000 C 
ATOM      3  O   UNL     1     -12.743  56.245  52.197  0.00  0.00    +0.000 OA
ATOM      4  N   UNL     1     -12.283  54.161  51.313  0.00  0.00    +0.000 N 
ATOM      5  H   UNL     1     -14.671  54.189  50.817  0.00  0.00    +0.000 HD
ATOM      6  H   UNL     1     -12.641  53.361  50.864  0.00  0.00    +0.000 HD
ENDROOT
BRANCH   4   7
ATOM      7  C   UNL     1     -10.937  54.262  51.618  0.00  0.00    +0.000 A 
ATOM      8  S   UNL     1     -10.482  53.582  53.108  0.00  0.00    +0.000 S 
ATOM      9  C   UNL     1      -9.873  54.776  50.900  0.00  0.00    +0.000 A 
ATOM     10  C   UNL     1      -8.828  53.707  52.710  0.00  0.00    +0.000 A 
ATOM     11  C   UNL     1      -8.629  54.358  51.504  0.00  0.00    +0.000 A 
ATOM     12  C   UNL     1      -7.734  53.158  53.591  0.00  0.00    +0.000 C 
ATOM     13  C   UNL     1      -7.251  54.630  50.972  0.00  0.00    +0.000 C 
ATOM     14  C   UNL     1      -6.357  53.800  53.240  0.00  0.00    +0.000 C 
ATOM     15  C   UNL     1      -6.174  53.824  51.701  0.00  0.00    +0.000 C 
ATOM     16  C   UNL     1      -5.205  52.971  53.836  0.00  0.00    +0.000 C 
ATOM     17  C   UNL     1      -6.272  55.225  53.825  0.00  0.00    +0.000 C 
BRANCH   9  18
ATOM     18  C   UNL     1     -10.050  55.602  49.703  0.00  0.00    +0.000 C 
ATOM     19  O   UNL     1      -9.618  56.746  49.607  0.00  0.00    +0.000 OA
BRANCH  18  20
ATOM     20  O   UNL     1     -10.737  54.950  48.726  0.00  0.00    +0.000 OA
BRANCH  20  21
ATOM     21  C   UNL     1     -11.612  55.736  47.912  0.00  0.00    +0.000 C 
ATOM     22  C   UNL     1     -11.600  55.203  46.494  0.00  0.00    +0.000 C 
ENDBRANCH  20  21
ENDBRANCH  18  20
ENDBRANCH   9  18
ENDBRANCH   4   7
BRANCH   1  23
ATOM     23  S   UNL     1     -15.592  56.232  51.336  0.00  0.00    +0.000 S 
ATOM     24  O   UNL     1     -15.934  56.423  52.724  0.00  0.00    +0.000 OA
ATOM     25  O   UNL     1     -16.606  55.856  50.370  0.00  0.00    +0.000 OA
BRANCH  23  26
ATOM     26  C   UNL     1     -14.813  57.705  50.711  0.00  0.00    +0.000 A 
ATOM     27  C   UNL     1     -14.310  57.729  49.407  0.00  0.00    +0.000 A 
ATOM     28  C   UNL     1     -14.739  58.846  51.517  0.00  0.00    +0.000 A 
ATOM     29  C   UNL     1     -13.701  58.892  48.922  0.00  0.00    +0.000 A 
ATOM     30  C   UNL     1     -14.135  60.005  51.023  0.00  0.00    +0.000 A 
ATOM     31  C   UNL     1     -13.601  60.035  49.728  0.00  0.00    +0.000 A 
ATOM     32  C   UNL     1     -12.929  61.283  49.233  0.00  0.00    +0.000 C 
ENDBRANCH  23  26
ENDBRANCH   1  23
TORSDOF 6
ENDMDL
MODEL 5
REMARK VINA RESULT:      -6.8      1.856      2.767
REMARK  Name = 
REMARK  10 active torsions:
REMARK  status: ('A' for Active; 'I' for Inactive)
REMARK    1  A    between atoms: S_1  and  N_4
REMARK    2  A    between atoms: S_1  and  C_5
REMARK    3  A    between atoms: N_10  and  C_13
REMARK    4  A    between atoms: C_14  and  C_17
REMARK    5  A    between atoms: C_16  and  C_20
REMARK    6  A    between atoms: C_20  and  O_24
REMARK    7  A    between atoms: O_24  and  C_27
REMARK    8  A    between atoms: C_25  and  C_28
REMARK    9  A    between atoms: C_25  and  C_29
REMARK   10  A    between atoms: C_27  and  C_30
REMARK                            x       y       z     vdW  Elec       q    Type
REMARK                         _______ _______ _______ _____ _____    ______ ____
ROOT
ATOM      1  N   UNL     1      -8.130  53.414  49.497  0.00  0.00    +0.000 N 
ATOM      2  C   UNL     1      -9.269  54.205  49.539  0.00  0.00    +0.000 C 
ATOM      3  O   UNL     1      -9.393  55.184  48.815  0.00  0.00    +0.000 OA
ATOM      4  N   UNL     1     -10.158  53.844  50.535  0.00  0.00    +0.000 N 
ATOM      5  H   UNL     1      -8.097  52.621  50.080  0.00  0.00    +0.000 HD
ATOM      6  H   UNL     1      -9.993  53.051  51.094  0.00  0.00    +0.000 HD
ENDROOT
BRANCH   4   7
ATOM      7  C   UNL     1     -11.283  54.626  50.724  0.00  0.00    +0.000 A 
ATOM      8  S   UNL     1     -11.468  55.257  52.291  0.00  0.00    +0.000 S 
ATOM      9  C   UNL     1     -12.270  55.035  49.845  0.00  0.00    +0.000 A 
ATOM     10  C   UNL     1     -12.707  56.308  51.768  0.00  0.00    +0.000 A 
ATOM     11  C   UNL     1     -13.045  56.099  50.442  0.00  0.00    +0.000 A 
ATOM     12  C   UNL     1     -13.338  57.337  52.673  0.00  0.00    +0.000 C 
ATOM     13  C   UNL     1     -14.146  56.873  49.776  0.00  0.00    +0.000 C 
ATOM     14  C   UNL     1     -14.710  57.815  52.105  0.00  0.00    +0.000 C 
ATOM     15  C   UNL     1     -14.571  58.098  50.588  0.00  0.00    +0.000 C 
ATOM     16  C   UNL     1     -15.151  59.123  52.788  0.00  0.00    +0.000 C 
ATOM     17  C   UNL     1     -15.794  56.750  52.369  0.00  0.00    +0.000 C 
BRANCH   9  18
ATOM     18  C   UNL     1     -12.440  54.445  48.515  0.00  0.00    +0.000 C 
ATOM     19  O   UNL     1     -12.480  55.112  47.485  0.00  0.00    +0.000 OA
BRANCH  18  20
ATOM     20  O   UNL     1     -12.538  53.089  48.562  0.00  0.00    +0.000 OA
BRANCH  20  21
ATOM     21  C   UNL     1     -11.953  52.357  47.482  0.00  0.00    +0.000 C 
ATOM     22  C   UNL     1     -11.037  51.285  48.033  0.00  0.00    +0.000 C 
ENDBRANCH  20  21
ENDBRANCH  18  20
ENDBRANCH   9  18
ENDBRANCH   4   7
BRANCH   1  23
ATOM     23  S   UNL     1      -6.816  53.724  48.520  0.00  0.00    +0.000 S 
ATOM     24  O   UNL     1      -5.782  52.757  48.797  0.00  0.00    +0.000 OA
ATOM     25  O   UNL     1      -6.559  55.144  48.668  0.00  0.00    +0.000 OA
BRANCH  23  26
ATOM     26  C   UNL     1      -7.419  53.484  46.862  0.00  0.00    +0.000 A 
ATOM     27  C   UNL     1      -7.525  54.575  45.994  0.00  0.00    +0.000 A 
ATOM     28  C   UNL     1      -7.751  52.199  46.424  0.00  0.00    +0.000 A 
ATOM     29  C   UNL     1      -7.998  54.379  44.692  0.00  0.00    +0.000 A 
ATOM     30  C   UNL     1      -8.217  52.010  45.120  0.00  0.00    +0.000 A 
ATOM     31  C   UNL     1      -8.355  53.098  44.248  0.00  0.00    +0.000 A 
ATOM     32  C   UNL     1      -8.887  52.872  42.862  0.00  0.00    +0.000 C 
ENDBRANCH  23  26
ENDBRANCH   1  23
TORSDOF 6
ENDMDL
MODEL 6
REMARK VINA RESULT:      -6.7      3.682      8.155
REMARK  Name = 
REMARK  10 active torsions:
REMARK  status: ('A' for Active; 'I' for Inactive)
REMARK    1  A    between atoms: S_1  and  N_4
REMARK    2  A    between atoms: S_1  and  C_5
REMARK    3  A    between atoms: N_10  and  C_13
REMARK    4  A    between atoms: C_14  and  C_17
REMARK    5  A    between atoms: C_16  and  C_20
REMARK    6  A    between atoms: C_20  and  O_24
REMARK    7  A    between atoms: O_24  and  C_27
REMARK    8  A    between atoms: C_25  and  C_28
REMARK    9  A    between atoms: C_25  and  C_29
REMARK   10  A    between atoms: C_27  and  C_30
REMARK                            x       y       z     vdW  Elec       q    Type
REMARK                         _______ _______ _______ _____ _____    ______ ____
ROOT
ATOM      1  N   UNL     1     -11.676  56.725  48.898  0.00  0.00    +0.000 N 
ATOM      2  C   UNL     1     -10.677  55.857  49.313  0.00  0.00    +0.000 C 
ATOM      3  O   UNL     1     -10.935  54.729  49.710  0.00  0.00    +0.000 OA
ATOM      4  N   UNL     1      -9.420  56.432  49.339  0.00  0.00    +0.000 N 
ATOM      5  H   UNL     1     -11.408  57.610  48.560  0.00  0.00    +0.000 HD
ATOM      6  H   UNL     1      -9.279  57.353  49.017  0.00  0.00    +0.000 HD
ENDROOT
BRANCH   4   7
ATOM      7  C   UNL     1      -8.365  55.682  49.826  0.00  0.00    +0.000 A 
ATOM      8  S   UNL     1      -7.976  55.959  51.457  0.00  0.00    +0.000 S 
ATOM      9  C   UNL     1      -7.593  54.698  49.236  0.00  0.00    +0.000 A 
ATOM     10  C   UNL     1      -6.962  54.587  51.494  0.00  0.00    +0.000 A 
ATOM     11  C   UNL     1      -6.840  53.993  50.249  0.00  0.00    +0.000 A 
ATOM     12  C   UNL     1      -6.292  54.102  52.756  0.00  0.00    +0.000 C 
ATOM     13  C   UNL     1      -5.958  52.799  50.025  0.00  0.00    +0.000 C 
ATOM     14  C   UNL     1      -5.097  53.155  52.427  0.00  0.00    +0.000 C 
ATOM     15  C   UNL     1      -5.526  52.140  51.337  0.00  0.00    +0.000 C 
ATOM     16  C   UNL     1      -4.680  52.356  53.675  0.00  0.00    +0.000 C 
ATOM     17  C   UNL     1      -3.880  53.980  51.960  0.00  0.00    +0.000 C 
BRANCH   9  18
ATOM     18  C   UNL     1      -7.598  54.447  47.792  0.00  0.00    +0.000 C 
ATOM     19  O   UNL     1      -6.615  54.618  47.078  0.00  0.00    +0.000 OA
BRANCH  18  20
ATOM     20  O   UNL     1      -8.805  54.001  47.352  0.00  0.00    +0.000 OA
BRANCH  20  21
ATOM     21  C   UNL     1      -9.277  54.525  46.108  0.00  0.00    +0.000 C 
ATOM     22  C   UNL     1     -10.776  54.331  46.011  0.00  0.00    +0.000 C 
ENDBRANCH  20  21
ENDBRANCH  18  20
ENDBRANCH   9  18
ENDBRANCH   4   7
BRANCH   1  23
ATOM     23  S   UNL     1     -13.302  56.359  48.936  0.00  0.00    +0.000 S 
ATOM     24  O   UNL     1     -13.463  54.946  49.175  0.00  0.00    +0.000 OA
ATOM     25  O   UNL     1     -13.857  56.975  47.746  0.00  0.00    +0.000 OA
BRANCH  23  26
ATOM     26  C   UNL     1     -13.937  57.270  50.326  0.00  0.00    +0.000 A 
ATOM     27  C   UNL     1     -13.935  56.692  51.599  0.00  0.00    +0.000 A 
ATOM     28  C   UNL     1     -14.404  58.576  50.145  0.00  0.00    +0.000 A 
ATOM     29  C   UNL     1     -14.434  57.415  52.688  0.00  0.00    +0.000 A 
ATOM     30  C   UNL     1     -14.895  59.294  51.239  0.00  0.00    +0.000 A 
ATOM     31  C   UNL     1     -14.925  58.717  52.515  0.00  0.00    +0.000 A 
ATOM     32  C   UNL     1     -15.487  59.499  53.667  0.00  0.00    +0.000 C 
ENDBRANCH  23  26
ENDBRANCH   1  23
TORSDOF 6
ENDMDL
MODEL 7
REMARK VINA RESULT:      -6.7      3.721      8.150
REMARK  Name = 
REMARK  10 active torsions:
REMARK  status: ('A' for Active; 'I' for Inactive)
REMARK    1  A    between atoms: S_1  and  N_4
REMARK    2  A    between atoms: S_1  and  C_5
REMARK    3  A    between atoms: N_10  and  C_13
REMARK    4  A    between atoms: C_14  and  C_17
REMARK    5  A    between atoms: C_16  and  C_20
REMARK    6  A    between atoms: C_20  and  O_24
REMARK    7  A    between atoms: O_24  and  C_27
REMARK    8  A    between atoms: C_25  and  C_28
REMARK    9  A    between atoms: C_25  and  C_29
REMARK   10  A    between atoms: C_27  and  C_30
REMARK                            x       y       z     vdW  Elec       q    Type
REMARK                         _______ _______ _______ _____ _____    ______ ____
ROOT
ATOM      1  N   UNL     1     -11.543  56.856  49.235  0.00  0.00    +0.000 N 
ATOM      2  C   UNL     1     -10.740  55.889  49.820  0.00  0.00    +0.000 C 
ATOM      3  O   UNL     1     -11.198  54.816  50.191  0.00  0.00    +0.000 OA
ATOM      4  N   UNL     1      -9.439  56.306  50.037  0.00  0.00    +0.000 N 
ATOM      5  H   UNL     1     -11.116  57.688  48.929  0.00  0.00    +0.000 HD
ATOM      6  H   UNL     1      -9.135  57.190  49.726  0.00  0.00    +0.000 HD
ENDROOT
BRANCH   4   7
ATOM      7  C   UNL     1      -8.578  55.451  50.700  0.00  0.00    +0.000 A 
ATOM      8  S   UNL     1      -8.659  55.517  52.396  0.00  0.00    +0.000 S 
ATOM      9  C   UNL     1      -7.688  54.503  50.228  0.00  0.00    +0.000 A 
ATOM     10  C   UNL     1      -7.720  54.100  52.541  0.00  0.00    +0.000 A 
ATOM     11  C   UNL     1      -7.263  53.649  51.314  0.00  0.00    +0.000 A 
ATOM     12  C   UNL     1      -7.442  53.439  53.868  0.00  0.00    +0.000 C 
ATOM     13  C   UNL     1      -6.374  52.445  51.197  0.00  0.00    +0.000 C 
ATOM     14  C   UNL     1      -6.219  52.476  53.767  0.00  0.00    +0.000 C 
ATOM     15  C   UNL     1      -6.340  51.617  52.483  0.00  0.00    +0.000 C 
ATOM     16  C   UNL     1      -6.184  51.517  54.972  0.00  0.00    +0.000 C 
ATOM     17  C   UNL     1      -4.905  53.286  53.764  0.00  0.00    +0.000 C 
BRANCH   9  18
ATOM     18  C   UNL     1      -7.289  54.422  48.821  0.00  0.00    +0.000 C 
ATOM     19  O   UNL     1      -6.143  54.625  48.435  0.00  0.00    +0.000 OA
BRANCH  18  20
ATOM     20  O   UNL     1      -8.331  54.091  48.010  0.00  0.00    +0.000 OA
BRANCH  20  21
ATOM     21  C   UNL     1      -8.551  54.917  46.864  0.00  0.00    +0.000 C 
ATOM     22  C   UNL     1      -9.988  54.776  46.406  0.00  0.00    +0.000 C 
ENDBRANCH  20  21
ENDBRANCH  18  20
ENDBRANCH   9  18
ENDBRANCH   4   7
BRANCH   1  23
ATOM     23  S   UNL     1     -13.189  56.693  49.019  0.00  0.00    +0.000 S 
ATOM     24  O   UNL     1     -13.530  55.293  49.025  0.00  0.00    +0.000 OA
ATOM     25  O   UNL     1     -13.505  57.526  47.874  0.00  0.00    +0.000 OA
BRANCH  23  26
ATOM     26  C   UNL     1     -13.911  57.484  50.441  0.00  0.00    +0.000 A 
ATOM     27  C   UNL     1     -13.891  56.841  51.682  0.00  0.00    +0.000 A 
ATOM     28  C   UNL     1     -14.464  58.762  50.317  0.00  0.00    +0.000 A 
ATOM     29  C   UNL     1     -14.459  57.469  52.795  0.00  0.00    +0.000 A 
ATOM     30  C   UNL     1     -15.024  59.386  51.435  0.00  0.00    +0.000 A 
ATOM     31  C   UNL     1     -15.037  58.742  52.679  0.00  0.00    +0.000 A 
ATOM     32  C   UNL     1     -15.673  59.421  53.858  0.00  0.00    +0.000 C 
ENDBRANCH  23  26
ENDBRANCH   1  23
TORSDOF 6
ENDMDL
MODEL 8
REMARK VINA RESULT:      -6.6      2.075      8.761
REMARK  Name = 
REMARK  10 active torsions:
REMARK  status: ('A' for Active; 'I' for Inactive)
REMARK    1  A    between atoms: S_1  and  N_4
REMARK    2  A    between atoms: S_1  and  C_5
REMARK    3  A    between atoms: N_10  and  C_13
REMARK    4  A    between atoms: C_14  and  C_17
REMARK    5  A    between atoms: C_16  and  C_20
REMARK    6  A    between atoms: C_20  and  O_24
REMARK    7  A    between atoms: O_24  and  C_27
REMARK    8  A    between atoms: C_25  and  C_28
REMARK    9  A    between atoms: C_25  and  C_29
REMARK   10  A    between atoms: C_27  and  C_30
REMARK                            x       y       z     vdW  Elec       q    Type
REMARK                         _______ _______ _______ _____ _____    ______ ____
ROOT
ATOM      1  N   UNL     1     -12.917  55.826  49.207  0.00  0.00    +0.000 N 
ATOM      2  C   UNL     1     -12.136  55.213  48.239  0.00  0.00    +0.000 C 
ATOM      3  O   UNL     1     -11.852  55.781  47.193  0.00  0.00    +0.000 OA
ATOM      4  N   UNL     1     -11.829  53.896  48.528  0.00  0.00    +0.000 N 
ATOM      5  H   UNL     1     -13.089  55.334  50.042  0.00  0.00    +0.000 HD
ATOM      6  H   UNL     1     -12.099  53.492  49.384  0.00  0.00    +0.000 HD
ENDROOT
BRANCH   4   7
ATOM      7  C   UNL     1     -11.132  53.163  47.584  0.00  0.00    +0.000 A 
ATOM      8  S   UNL     1     -12.089  52.441  46.380  0.00  0.00    +0.000 S 
ATOM      9  C   UNL     1      -9.776  52.951  47.411  0.00  0.00    +0.000 A 
ATOM     10  C   UNL     1     -10.711  52.063  45.449  0.00  0.00    +0.000 A 
ATOM     11  C   UNL     1      -9.534  52.388  46.102  0.00  0.00    +0.000 A 
ATOM     12  C   UNL     1     -10.800  51.449  44.074  0.00  0.00    +0.000 C 
ATOM     13  C   UNL     1      -8.190  52.100  45.497  0.00  0.00    +0.000 C 
ATOM     14  C   UNL     1      -9.444  50.797  43.663  0.00  0.00    +0.000 C 
ATOM     15  C   UNL     1      -8.281  51.762  44.008  0.00  0.00    +0.000 C 
ATOM     16  C   UNL     1      -9.405  50.538  42.146  0.00  0.00    +0.000 C 
ATOM     17  C   UNL     1      -9.266  49.444  44.383  0.00  0.00    +0.000 C 
BRANCH   9  18
ATOM     18  C   UNL     1      -8.784  53.285  48.436  0.00  0.00    +0.000 C 
ATOM     19  O   UNL     1      -8.165  52.438  49.071  0.00  0.00    +0.000 OA
BRANCH  18  20
ATOM     20  O   UNL     1      -8.633  54.628  48.586  0.00  0.00    +0.000 OA
BRANCH  20  21
ATOM     21  C   UNL     1      -8.557  55.128  49.924  0.00  0.00    +0.000 C 
ATOM     22  C   UNL     1      -9.102  56.541  49.968  0.00  0.00    +0.000 C 
ENDBRANCH  20  21
ENDBRANCH  18  20
ENDBRANCH   9  18
ENDBRANCH   4   7
BRANCH   1  23
ATOM     23  S   UNL     1     -13.581  57.347  49.042  0.00  0.00    +0.000 S 
ATOM     24  O   UNL     1     -14.642  57.296  48.068  0.00  0.00    +0.000 OA
ATOM     25  O   UNL     1     -12.450  58.236  48.857  0.00  0.00    +0.000 OA
BRANCH  23  26
ATOM     26  C   UNL     1     -14.265  57.717  50.643  0.00  0.00    +0.000 A 
ATOM     27  C   UNL     1     -14.697  56.679  51.474  0.00  0.00    +0.000 A 
ATOM     28  C   UNL     1     -14.334  59.044  51.077  0.00  0.00    +0.000 A 
ATOM     29  C   UNL     1     -15.232  56.978  52.732  0.00  0.00    +0.000 A 
ATOM     30  C   UNL     1     -14.864  59.334  52.337  0.00  0.00    +0.000 A 
ATOM     31  C   UNL     1     -15.327  58.306  53.170  0.00  0.00    +0.000 A 
ATOM     32  C   UNL     1     -15.920  58.647  54.506  0.00  0.00    +0.000 C 
ENDBRANCH  23  26
ENDBRANCH   1  23
TORSDOF 6
ENDMDL
MODEL 9
REMARK VINA RESULT:      -6.6      3.078      8.043
REMARK  Name = 
REMARK  10 active torsions:
REMARK  status: ('A' for Active; 'I' for Inactive)
REMARK    1  A    between atoms: S_1  and  N_4
REMARK    2  A    between atoms: S_1  and  C_5
REMARK    3  A    between atoms: N_10  and  C_13
REMARK    4  A    between atoms: C_14  and  C_17
REMARK    5  A    between atoms: C_16  and  C_20
REMARK    6  A    between atoms: C_20  and  O_24
REMARK    7  A    between atoms: O_24  and  C_27
REMARK    8  A    between atoms: C_25  and  C_28
REMARK    9  A    between atoms: C_25  and  C_29
REMARK   10  A    between atoms: C_27  and  C_30
REMARK                            x       y       z     vdW  Elec       q    Type
REMARK                         _______ _______ _______ _____ _____    ______ ____
ROOT
ATOM      1  N   UNL     1     -12.272  57.134  49.089  0.00  0.00    +0.000 N 
ATOM      2  C   UNL     1     -11.824  55.954  49.664  0.00  0.00    +0.000 C 
ATOM      3  O   UNL     1     -12.605  55.096  50.053  0.00  0.00    +0.000 OA
ATOM      4  N   UNL     1     -10.454  55.913  49.849  0.00  0.00    +0.000 N 
ATOM      5  H   UNL     1     -11.599  57.776  48.766  0.00  0.00    +0.000 HD
ATOM      6  H   UNL     1      -9.880  56.644  49.524  0.00  0.00    +0.000 HD
ENDROOT
BRANCH   4   7
ATOM      7  C   UNL     1      -9.913  54.820  50.500  0.00  0.00    +0.000 A 
ATOM      8  S   UNL     1      -9.843  54.950  52.193  0.00  0.00    +0.000 S 
ATOM      9  C   UNL     1      -9.459  53.604  50.022  0.00  0.00    +0.000 A 
ATOM     10  C   UNL     1      -9.468  53.293  52.349  0.00  0.00    +0.000 A 
ATOM     11  C   UNL     1      -9.292  52.679  51.120  0.00  0.00    +0.000 A 
ATOM     12  C   UNL     1      -9.352  52.606  53.687  0.00  0.00    +0.000 C 
ATOM     13  C   UNL     1      -8.906  51.233  51.008  0.00  0.00    +0.000 C 
ATOM     14  C   UNL     1      -8.567  51.265  53.561  0.00  0.00    +0.000 C 
ATOM     15  C   UNL     1      -9.081  50.478  52.328  0.00  0.00    +0.000 C 
ATOM     16  C   UNL     1      -8.793  50.386  54.805  0.00  0.00    +0.000 C 
ATOM     17  C   UNL     1      -7.054  51.544  53.443  0.00  0.00    +0.000 C 
BRANCH   9  18
ATOM     18  C   UNL     1      -9.217  53.352  48.600  0.00  0.00    +0.000 C 
ATOM     19  O   UNL     1      -8.129  53.004  48.154  0.00  0.00    +0.000 OA
BRANCH  18  20
ATOM     20  O   UNL     1     -10.335  53.541  47.847  0.00  0.00    +0.000 OA
BRANCH  20  21
ATOM     21  C   UNL     1     -10.205  54.362  46.684  0.00  0.00    +0.000 C 
ATOM     22  C   UNL     1     -11.578  54.663  46.119  0.00  0.00    +0.000 C 
ENDBRANCH  20  21
ENDBRANCH  18  20
ENDBRANCH   9  18
ENDBRANCH   4   7
BRANCH   1  23
ATOM     23  S   UNL     1     -13.882  57.530  48.910  0.00  0.00    +0.000 S 
ATOM     24  O   UNL     1     -14.590  56.397  48.366  0.00  0.00    +0.000 OA
ATOM     25  O   UNL     1     -13.884  58.805  48.217  0.00  0.00    +0.000 OA
BRANCH  23  26
ATOM     26  C   UNL     1     -14.455  57.848  50.564  0.00  0.00    +0.000 A 
ATOM     27  C   UNL     1     -14.248  59.102  51.146  0.00  0.00    +0.000 A 
ATOM     28  C   UNL     1     -15.144  56.851  51.263  0.00  0.00    +0.000 A 
ATOM     29  C   UNL     1     -14.703  59.345  52.446  0.00  0.00    +0.000 A 
ATOM     30  C   UNL     1     -15.601  57.103  52.559  0.00  0.00    +0.000 A 
ATOM     31  C   UNL     1     -15.376  58.346  53.165  0.00  0.00    +0.000 A 
ATOM     32  C   UNL     1     -15.850  58.580  54.570  0.00  0.00    +0.000 C 
ENDBRANCH  23  26
ENDBRANCH   1  23
TORSDOF 6
ENDMDL
