MODEL 1
REMARK VINA RESULT:      -7.2      0.000      0.000
REMARK  Name = 
REMARK  10 active torsions:
REMARK  status: ('A' for Active; 'I' for Inactive)
REMARK    1  A    between atoms: S_1  and  N_4
REMARK    2  A    between atoms: S_1  and  C_5
REMARK    3  A    between atoms: N_10  and  C_13
REMARK    4  A    between atoms: C_14  and  C_17
REMARK    5  A    between atoms: C_16  and  C_20
REMARK    6  A    between atoms: C_20  and  O_25
REMARK    7  A    between atoms: O_25  and  C_28
REMARK    8  A    between atoms: C_26  and  C_29
REMARK    9  A    between atoms: C_26  and  C_30
REMARK   10  A    between atoms: C_28  and  C_31
REMARK                            x       y       z     vdW  Elec       q    Type
REMARK                         _______ _______ _______ _____ _____    ______ ____
ROOT
ATOM      1  N   UNL     1      -6.532  55.639  53.293  0.00  0.00    +0.000 N 
ATOM      2  C   UNL     1      -7.470  55.187  52.372  0.00  0.00    +0.000 C 
ATOM      3  O   UNL     1      -7.551  54.002  52.079  0.00  0.00    +0.000 OA
ATOM      4  N   UNL     1      -8.182  56.202  51.756  0.00  0.00    +0.000 N 
ATOM      5  H   UNL     1      -6.510  56.601  53.498  0.00  0.00    +0.000 HD
ATOM      6  H   UNL     1      -8.064  57.140  52.029  0.00  0.00    +0.000 HD
ENDROOT
BRANCH   4   7
ATOM      7  C   UNL     1      -9.066  55.858  50.745  0.00  0.00    +0.000 A 
ATOM      8  S   UNL     1      -8.454  55.994  49.165  0.00  0.00    +0.000 S 
ATOM      9  C   UNL     1     -10.360  55.372  50.793  0.00  0.00    +0.000 A 
ATOM     10  C   UNL     1      -9.802  55.167  48.521  0.00  0.00    +0.000 A 
ATOM     11  C   UNL     1     -10.752  54.884  49.490  0.00  0.00    +0.000 A 
ATOM     12  C   UNL     1      -9.922  54.802  47.058  0.00  0.00    +0.000 C 
ATOM     13  C   UNL     1     -12.050  54.212  49.152  0.00  0.00    +0.000 C 
ATOM     14  C   UNL     1     -11.404  54.494  46.676  0.00  0.00    +0.000 C 
ATOM     15  C   UNL     1     -12.037  53.583  47.758  0.00  0.00    +0.000 C 
ATOM     16  C   UNL     1     -11.480  53.744  45.334  0.00  0.00    +0.000 C 
ATOM     17  C   UNL     1     -12.198  55.807  46.530  0.00  0.00    +0.000 C 
BRANCH   9  18
ATOM     18  C   UNL     1     -11.164  55.377  52.017  0.00  0.00    +0.000 C 
ATOM     19  O   UNL     1     -12.183  56.044  52.147  0.00  0.00    +0.000 OA
BRANCH  18  20
ATOM     20  O   UNL     1     -10.647  54.560  52.973  0.00  0.00    +0.000 OA
BRANCH  20  21
ATOM     21  C   UNL     1     -10.825  53.153  52.796  0.00  0.00    +0.000 C 
ATOM     22  C   UNL     1     -10.117  52.408  53.910  0.00  0.00    +0.000 C 
ENDBRANCH  20  21
ENDBRANCH  18  20
ENDBRANCH   9  18
ENDBRANCH   4   7
BRANCH   1  23
ATOM     23  S   UNL     1      -5.441  54.646  54.070  0.00  0.00    +0.000 S 
ATOM     24  O   UNL     1      -6.121  53.931  55.126  0.00  0.00    +0.000 OA
ATOM     25  O   UNL     1      -4.295  55.483  54.364  0.00  0.00    +0.000 OA
BRANCH  23  26
ATOM     26  C   UNL     1      -4.908  53.482  52.828  0.00  0.00    +0.000 A 
ATOM     27  C   UNL     1      -5.165  52.116  52.993  0.00  0.00    +0.000 A 
ATOM     28  C   UNL     1      -4.277  53.945  51.667  0.00  0.00    +0.000 A 
ATOM     29  C   UNL     1      -4.750  51.209  52.006  0.00  0.00    +0.000 A 
ATOM     30  C   UNL     1      -3.866  53.037  50.686  0.00  0.00    +0.000 A 
ATOM     31  C   UNL     1      -4.091  51.664  50.859  0.00  0.00    +0.000 A 
BRANCH  31  32
ATOM     32  C   UNL     1      -3.652  50.732  49.858  0.00  0.00    +0.000 C 
ATOM     33  N   UNL     1      -3.300  49.981  49.041  0.00  0.00    +0.000 NA
ENDBRANCH  31  32
ENDBRANCH  23  26
ENDBRANCH   1  23
TORSDOF 7
ENDMDL
MODEL 2
REMARK VINA RESULT:      -7.0      3.815      8.471
REMARK  Name = 
REMARK  10 active torsions:
REMARK  status: ('A' for Active; 'I' for Inactive)
REMARK    1  A    between atoms: S_1  and  N_4
REMARK    2  A    between atoms: S_1  and  C_5
REMARK    3  A    between atoms: N_10  and  C_13
REMARK    4  A    between atoms: C_14  and  C_17
REMARK    5  A    between atoms: C_16  and  C_20
REMARK    6  A    between atoms: C_20  and  O_25
REMARK    7  A    between atoms: O_25  and  C_28
REMARK    8  A    between atoms: C_26  and  C_29
REMARK    9  A    between atoms: C_26  and  C_30
REMARK   10  A    between atoms: C_28  and  C_31
REMARK                            x       y       z     vdW  Elec       q    Type
REMARK                         _______ _______ _______ _____ _____    ______ ____
ROOT
ATOM      1  N   UNL     1     -11.846  56.935  49.423  0.00  0.00    +0.000 N 
ATOM      2  C   UNL     1     -10.841  55.998  49.214  0.00  0.00    +0.000 C 
ATOM      3  O   UNL     1     -11.104  54.826  48.983  0.00  0.00    +0.000 OA
ATOM      4  N   UNL     1      -9.564  56.493  49.418  0.00  0.00    +0.000 N 
ATOM      5  H   UNL     1     -11.582  57.866  49.601  0.00  0.00    +0.000 HD
ATOM      6  H   UNL     1      -9.417  57.446  49.613  0.00  0.00    +0.000 HD
ENDROOT
BRANCH   4   7
ATOM      7  C   UNL     1      -8.500  55.608  49.338  0.00  0.00    +0.000 A 
ATOM      8  S   UNL     1      -8.144  55.035  47.777  0.00  0.00    +0.000 S 
ATOM      9  C   UNL     1      -7.633  55.138  50.307  0.00  0.00    +0.000 A 
ATOM     10  C   UNL     1      -6.673  54.352  48.312  0.00  0.00    +0.000 A 
ATOM     11  C   UNL     1      -6.510  54.474  49.683  0.00  0.00    +0.000 A 
ATOM     12  C   UNL     1      -5.683  53.695  47.377  0.00  0.00    +0.000 C 
ATOM     13  C   UNL     1      -5.319  53.898  50.392  0.00  0.00    +0.000 C 
ATOM     14  C   UNL     1      -4.698  52.772  48.162  0.00  0.00    +0.000 C 
ATOM     15  C   UNL     1      -4.197  53.512  49.428  0.00  0.00    +0.000 C 
ATOM     16  C   UNL     1      -3.466  52.430  47.304  0.00  0.00    +0.000 C 
ATOM     17  C   UNL     1      -5.395  51.449  48.537  0.00  0.00    +0.000 C 
BRANCH   9  18
ATOM     18  C   UNL     1      -7.871  55.319  51.740  0.00  0.00    +0.000 C 
ATOM     19  O   UNL     1      -7.409  56.253  52.384  0.00  0.00    +0.000 OA
BRANCH  18  20
ATOM     20  O   UNL     1      -8.658  54.338  52.257  0.00  0.00    +0.000 OA
BRANCH  20  21
ATOM     21  C   UNL     1      -9.597  54.718  53.266  0.00  0.00    +0.000 C 
ATOM     22  C   UNL     1     -10.939  55.010  52.624  0.00  0.00    +0.000 C 
ENDBRANCH  20  21
ENDBRANCH  18  20
ENDBRANCH   9  18
ENDBRANCH   4   7
BRANCH   1  23
ATOM     23  S   UNL     1     -13.473  56.574  49.388  0.00  0.00    +0.000 S 
ATOM     24  O   UNL     1     -13.651  55.163  49.647  0.00  0.00    +0.000 OA
ATOM     25  O   UNL     1     -13.978  57.170  48.168  0.00  0.00    +0.000 OA
BRANCH  23  26
ATOM     26  C   UNL     1     -14.182  57.506  50.735  0.00  0.00    +0.000 A 
ATOM     27  C   UNL     1     -14.160  56.986  52.034  0.00  0.00    +0.000 A 
ATOM     28  C   UNL     1     -14.715  58.777  50.493  0.00  0.00    +0.000 A 
ATOM     29  C   UNL     1     -14.712  57.731  53.087  0.00  0.00    +0.000 A 
ATOM     30  C   UNL     1     -15.264  59.516  51.547  0.00  0.00    +0.000 A 
ATOM     31  C   UNL     1     -15.274  58.988  52.847  0.00  0.00    +0.000 A 
BRANCH  31  32
ATOM     32  C   UNL     1     -15.854  59.742  53.923  0.00  0.00    +0.000 C 
ATOM     33  N   UNL     1     -16.323  60.359  54.791  0.00  0.00    +0.000 NA
ENDBRANCH  31  32
ENDBRANCH  23  26
ENDBRANCH   1  23
TORSDOF 7
ENDMDL
MODEL 3
REMARK VINA RESULT:      -7.0      3.484      5.412
REMARK  Name = 
REMARK  10 active torsions:
REMARK  status: ('A' for Active; 'I' for Inactive)
REMARK    1  A    between atoms: S_1  and  N_4
REMARK    2  A    between atoms: S_1  and  C_5
REMARK    3  A    between atoms: N_10  and  C_13
REMARK    4  A    between atoms: C_14  and  C_17
REMARK    5  A    between atoms: C_16  and  C_20
REMARK    6  A    between atoms: C_20  and  O_25
REMARK    7  A    between atoms: O_25  and  C_28
REMARK    8  A    between atoms: C_26  and  C_29
REMARK    9  A    between atoms: C_26  and  C_30
REMARK   10  A    between atoms: C_28  and  C_31
REMARK                            x       y       z     vdW  Elec       q    Type
REMARK                         _______ _______ _______ _____ _____    ______ ____
ROOT
ATOM      1  N   UNL     1      -8.461  52.438  48.591  0.00  0.00    +0.000 N 
ATOM      2  C   UNL     1      -9.328  53.508  48.783  0.00  0.00    +0.000 C 
ATOM      3  O   UNL     1      -8.923  54.662  48.769  0.00  0.00    +0.000 OA
ATOM      4  N   UNL     1     -10.619  53.130  49.107  0.00  0.00    +0.000 N 
ATOM      5  H   UNL     1      -8.838  51.529  48.608  0.00  0.00    +0.000 HD
ATOM      6  H   UNL     1     -10.883  52.182  49.113  0.00  0.00    +0.000 HD
ENDROOT
BRANCH   4   7
ATOM      7  C   UNL     1     -11.531  54.125  49.421  0.00  0.00    +0.000 A 
ATOM      8  S   UNL     1     -11.983  54.209  51.059  0.00  0.00    +0.000 S 
ATOM      9  C   UNL     1     -12.112  55.109  48.642  0.00  0.00    +0.000 A 
ATOM     10  C   UNL     1     -12.759  55.710  50.817  0.00  0.00    +0.000 A 
ATOM     11  C   UNL     1     -12.759  56.089  49.484  0.00  0.00    +0.000 A 
ATOM     12  C   UNL     1     -13.371  56.511  51.945  0.00  0.00    +0.000 C 
ATOM     13  C   UNL     1     -13.435  57.346  49.019  0.00  0.00    +0.000 C 
ATOM     14  C   UNL     1     -14.390  57.560  51.399  0.00  0.00    +0.000 C 
ATOM     15  C   UNL     1     -13.778  58.286  50.175  0.00  0.00    +0.000 C 
ATOM     16  C   UNL     1     -14.702  58.627  52.465  0.00  0.00    +0.000 C 
ATOM     17  C   UNL     1     -15.715  56.866  51.023  0.00  0.00    +0.000 C 
BRANCH   9  18
ATOM     18  C   UNL     1     -12.044  55.103  47.178  0.00  0.00    +0.000 C 
ATOM     19  O   UNL     1     -12.018  56.126  46.505  0.00  0.00    +0.000 OA
BRANCH  18  20
ATOM     20  O   UNL     1     -12.012  53.842  46.671  0.00  0.00    +0.000 OA
BRANCH  20  21
ATOM     21  C   UNL     1     -11.619  53.698  45.304  0.00  0.00    +0.000 C 
ATOM     22  C   UNL     1     -10.126  53.448  45.230  0.00  0.00    +0.000 C 
ENDBRANCH  20  21
ENDBRANCH  18  20
ENDBRANCH   9  18
ENDBRANCH   4   7
BRANCH   1  23
ATOM     23  S   UNL     1      -6.822  52.605  48.336  0.00  0.00    +0.000 S 
ATOM     24  O   UNL     1      -6.602  53.605  47.316  0.00  0.00    +0.000 OA
ATOM     25  O   UNL     1      -6.316  51.257  48.170  0.00  0.00    +0.000 OA
BRANCH  23  26
ATOM     26  C   UNL     1      -6.170  53.201  49.886  0.00  0.00    +0.000 A 
ATOM     27  C   UNL     1      -6.876  52.978  51.074  0.00  0.00    +0.000 A 
ATOM     28  C   UNL     1      -4.929  53.848  49.914  0.00  0.00    +0.000 A 
ATOM     29  C   UNL     1      -6.350  53.442  52.289  0.00  0.00    +0.000 A 
ATOM     30  C   UNL     1      -4.410  54.309  51.128  0.00  0.00    +0.000 A 
ATOM     31  C   UNL     1      -5.126  54.117  52.319  0.00  0.00    +0.000 A 
BRANCH  31  32
ATOM     32  C   UNL     1      -4.598  54.607  53.561  0.00  0.00    +0.000 C 
ATOM     33  N   UNL     1      -4.163  55.006  54.564  0.00  0.00    +0.000 NA
ENDBRANCH  31  32
ENDBRANCH  23  26
ENDBRANCH   1  23
TORSDOF 7
ENDMDL
MODEL 4
REMARK VINA RESULT:      -6.9      3.698      8.930
REMARK  Name = 
REMARK  10 active torsions:
REMARK  status: ('A' for Active; 'I' for Inactive)
REMARK    1  A    between atoms: S_1  and  N_4
REMARK    2  A    between atoms: S_1  and  C_5
REMARK    3  A    between atoms: N_10  and  C_13
REMARK    4  A    between atoms: C_14  and  C_17
REMARK    5  A    between atoms: C_16  and  C_20
REMARK    6  A    between atoms: C_20  and  O_25
REMARK    7  A    between atoms: O_25  and  C_28
REMARK    8  A    between atoms: C_26  and  C_29
REMARK    9  A    between atoms: C_26  and  C_30
REMARK   10  A    between atoms: C_28  and  C_31
REMARK                            x       y       z     vdW  Elec       q    Type
REMARK                         _______ _______ _______ _____ _____    ______ ____
ROOT
ATOM      1  N   UNL     1     -11.643  56.689  49.200  0.00  0.00    +0.000 N 
ATOM      2  C   UNL     1     -10.625  55.808  49.548  0.00  0.00    +0.000 C 
ATOM      3  O   UNL     1     -10.870  54.656  49.881  0.00  0.00    +0.000 OA
ATOM      4  N   UNL     1      -9.372  56.393  49.598  0.00  0.00    +0.000 N 
ATOM      5  H   UNL     1     -11.393  57.603  48.935  0.00  0.00    +0.000 HD
ATOM      6  H   UNL     1      -9.240  57.330  49.327  0.00  0.00    +0.000 HD
ENDROOT
BRANCH   4   7
ATOM      7  C   UNL     1      -8.308  55.622  50.039  0.00  0.00    +0.000 A 
ATOM      8  S   UNL     1      -7.897  55.816  51.677  0.00  0.00    +0.000 S 
ATOM      9  C   UNL     1      -7.541  54.672  49.389  0.00  0.00    +0.000 A 
ATOM     10  C   UNL     1      -6.860  54.460  51.627  0.00  0.00    +0.000 A 
ATOM     11  C   UNL     1      -6.755  53.931  50.350  0.00  0.00    +0.000 A 
ATOM     12  C   UNL     1      -6.150  53.922  52.849  0.00  0.00    +0.000 C 
ATOM     13  C   UNL     1      -5.855  52.769  50.048  0.00  0.00    +0.000 C 
ATOM     14  C   UNL     1      -4.946  53.015  52.443  0.00  0.00    +0.000 C 
ATOM     15  C   UNL     1      -5.384  52.050  51.312  0.00  0.00    +0.000 C 
ATOM     16  C   UNL     1      -4.481  52.156  53.633  0.00  0.00    +0.000 C 
ATOM     17  C   UNL     1      -3.754  53.884  51.994  0.00  0.00    +0.000 C 
BRANCH   9  18
ATOM     18  C   UNL     1      -7.566  54.491  47.936  0.00  0.00    +0.000 C 
ATOM     19  O   UNL     1      -6.589  54.676  47.221  0.00  0.00    +0.000 OA
BRANCH  18  20
ATOM     20  O   UNL     1      -8.789  54.098  47.489  0.00  0.00    +0.000 OA
BRANCH  20  21
ATOM     21  C   UNL     1      -9.230  54.633  46.239  0.00  0.00    +0.000 C 
ATOM     22  C   UNL     1     -10.740  54.536  46.151  0.00  0.00    +0.000 C 
ENDBRANCH  20  21
ENDBRANCH  18  20
ENDBRANCH   9  18
ENDBRANCH   4   7
BRANCH   1  23
ATOM     23  S   UNL     1     -13.261  56.287  49.206  0.00  0.00    +0.000 S 
ATOM     24  O   UNL     1     -13.400  54.884  49.527  0.00  0.00    +0.000 OA
ATOM     25  O   UNL     1     -13.797  56.819  47.969  0.00  0.00    +0.000 OA
BRANCH  23  26
ATOM     26  C   UNL     1     -13.974  57.258  50.522  0.00  0.00    +0.000 A 
ATOM     27  C   UNL     1     -13.957  56.776  51.836  0.00  0.00    +0.000 A 
ATOM     28  C   UNL     1     -14.506  58.522  50.242  0.00  0.00    +0.000 A 
ATOM     29  C   UNL     1     -14.512  57.551  52.865  0.00  0.00    +0.000 A 
ATOM     30  C   UNL     1     -15.058  59.291  51.272  0.00  0.00    +0.000 A 
ATOM     31  C   UNL     1     -15.073  58.802  52.586  0.00  0.00    +0.000 A 
BRANCH  31  32
ATOM     32  C   UNL     1     -15.656  59.587  53.638  0.00  0.00    +0.000 C 
ATOM     33  N   UNL     1     -16.135  60.219  54.489  0.00  0.00    +0.000 NA
ENDBRANCH  31  32
ENDBRANCH  23  26
ENDBRANCH   1  23
TORSDOF 7
ENDMDL
MODEL 5
REMARK VINA RESULT:      -6.9      4.080      6.168
REMARK  Name = 
REMARK  10 active torsions:
REMARK  status: ('A' for Active; 'I' for Inactive)
REMARK    1  A    between atoms: S_1  and  N_4
REMARK    2  A    between atoms: S_1  and  C_5
REMARK    3  A    between atoms: N_10  and  C_13
REMARK    4  A    between atoms: C_14  and  C_17
REMARK    5  A    between atoms: C_16  and  C_20
REMARK    6  A    between atoms: C_20  and  O_25
REMARK    7  A    between atoms: O_25  and  C_28
REMARK    8  A    between atoms: C_26  and  C_29
REMARK    9  A    between atoms: C_26  and  C_30
REMARK   10  A    between atoms: C_28  and  C_31
REMARK                            x       y       z     vdW  Elec       q    Type
REMARK                         _______ _______ _______ _____ _____    ______ ____
ROOT
ATOM      1  N   UNL     1      -8.281  52.202  50.242  0.00  0.00    +0.000 N 
ATOM      2  C   UNL     1      -9.514  52.840  50.294  0.00  0.00    +0.000 C 
ATOM      3  O   UNL     1     -10.530  52.293  49.887  0.00  0.00    +0.000 OA
ATOM      4  N   UNL     1      -9.446  54.155  50.720  0.00  0.00    +0.000 N 
ATOM      5  H   UNL     1      -7.495  52.684  50.586  0.00  0.00    +0.000 HD
ATOM      6  H   UNL     1      -8.594  54.544  51.026  0.00  0.00    +0.000 HD
ENDROOT
BRANCH   4   7
ATOM      7  C   UNL     1     -10.609  54.909  50.704  0.00  0.00    +0.000 A 
ATOM      8  S   UNL     1     -11.413  55.039  52.197  0.00  0.00    +0.000 S 
ATOM      9  C   UNL     1     -11.217  55.625  49.690  0.00  0.00    +0.000 A 
ATOM     10  C   UNL     1     -12.444  56.257  51.590  0.00  0.00    +0.000 A 
ATOM     11  C   UNL     1     -12.241  56.485  50.238  0.00  0.00    +0.000 A 
ATOM     12  C   UNL     1     -13.454  56.983  52.449  0.00  0.00    +0.000 C 
ATOM     13  C   UNL     1     -13.071  57.472  49.470  0.00  0.00    +0.000 C 
ATOM     14  C   UNL     1     -14.545  57.673  51.570  0.00  0.00    +0.000 C 
ATOM     15  C   UNL     1     -13.865  58.404  50.385  0.00  0.00    +0.000 C 
ATOM     16  C   UNL     1     -15.319  58.726  52.383  0.00  0.00    +0.000 C 
ATOM     17  C   UNL     1     -15.558  56.628  51.063  0.00  0.00    +0.000 C 
BRANCH   9  18
ATOM     18  C   UNL     1     -10.832  55.489  48.283  0.00  0.00    +0.000 C 
ATOM     19  O   UNL     1      -9.752  55.867  47.844  0.00  0.00    +0.000 OA
BRANCH  18  20
ATOM     20  O   UNL     1     -11.805  54.899  47.540  0.00  0.00    +0.000 OA
BRANCH  20  21
ATOM     21  C   UNL     1     -11.469  53.680  46.872  0.00  0.00    +0.000 C 
ATOM     22  C   UNL     1     -11.562  53.882  45.373  0.00  0.00    +0.000 C 
ENDBRANCH  20  21
ENDBRANCH  18  20
ENDBRANCH   9  18
ENDBRANCH   4   7
BRANCH   1  23
ATOM     23  S   UNL     1      -8.055  50.667  49.630  0.00  0.00    +0.000 S 
ATOM     24  O   UNL     1      -8.939  49.750  50.312  0.00  0.00    +0.000 OA
ATOM     25  O   UNL     1      -6.622  50.454  49.636  0.00  0.00    +0.000 OA
BRANCH  23  26
ATOM     26  C   UNL     1      -8.540  50.777  47.916  0.00  0.00    +0.000 A 
ATOM     27  C   UNL     1      -7.828  51.604  47.039  0.00  0.00    +0.000 A 
ATOM     28  C   UNL     1      -9.602  49.997  47.444  0.00  0.00    +0.000 A 
ATOM     29  C   UNL     1      -8.212  51.676  45.691  0.00  0.00    +0.000 A 
ATOM     30  C   UNL     1      -9.980  50.072  46.099  0.00  0.00    +0.000 A 
ATOM     31  C   UNL     1      -9.292  50.923  45.221  0.00  0.00    +0.000 A 
BRANCH  31  32
ATOM     32  C   UNL     1      -9.694  51.011  43.845  0.00  0.00    +0.000 C 
ATOM     33  N   UNL     1     -10.025  51.076  42.731  0.00  0.00    +0.000 NA
ENDBRANCH  31  32
ENDBRANCH  23  26
ENDBRANCH   1  23
TORSDOF 7
ENDMDL
MODEL 6
REMARK VINA RESULT:      -6.9      3.420      5.319
REMARK  Name = 
REMARK  10 active torsions:
REMARK  status: ('A' for Active; 'I' for Inactive)
REMARK    1  A    between atoms: S_1  and  N_4
REMARK    2  A    between atoms: S_1  and  C_5
REMARK    3  A    between atoms: N_10  and  C_13
REMARK    4  A    between atoms: C_14  and  C_17
REMARK    5  A    between atoms: C_16  and  C_20
REMARK    6  A    between atoms: C_20  and  O_25
REMARK    7  A    between atoms: O_25  and  C_28
REMARK    8  A    between atoms: C_26  and  C_29
REMARK    9  A    between atoms: C_26  and  C_30
REMARK   10  A    between atoms: C_28  and  C_31
REMARK                            x       y       z     vdW  Elec       q    Type
REMARK                         _______ _______ _______ _____ _____    ______ ____
ROOT
ATOM      1  N   UNL     1      -8.048  53.432  50.012  0.00  0.00    +0.000 N 
ATOM      2  C   UNL     1      -9.032  54.372  50.296  0.00  0.00    +0.000 C 
ATOM      3  O   UNL     1      -8.868  55.222  51.160  0.00  0.00    +0.000 OA
ATOM      4  N   UNL     1     -10.217  54.164  49.611  0.00  0.00    +0.000 N 
ATOM      5  H   UNL     1      -8.228  52.772  49.305  0.00  0.00    +0.000 HD
ATOM      6  H   UNL     1     -10.292  53.454  48.933  0.00  0.00    +0.000 HD
ENDROOT
BRANCH   4   7
ATOM      7  C   UNL     1     -11.294  54.985  49.905  0.00  0.00    +0.000 A 
ATOM      8  S   UNL     1     -11.838  54.924  51.515  0.00  0.00    +0.000 S 
ATOM      9  C   UNL     1     -11.986  55.895  49.127  0.00  0.00    +0.000 A 
ATOM     10  C   UNL     1     -12.836  56.289  51.280  0.00  0.00    +0.000 A 
ATOM     11  C   UNL     1     -12.828  56.720  49.963  0.00  0.00    +0.000 A 
ATOM     12  C   UNL     1     -13.628  56.931  52.397  0.00  0.00    +0.000 C 
ATOM     13  C   UNL     1     -13.675  57.871  49.503  0.00  0.00    +0.000 C 
ATOM     14  C   UNL     1     -14.775  57.825  51.829  0.00  0.00    +0.000 C 
ATOM     15  C   UNL     1     -14.227  58.692  50.668  0.00  0.00    +0.000 C 
ATOM     16  C   UNL     1     -15.312  58.781  52.910  0.00  0.00    +0.000 C 
ATOM     17  C   UNL     1     -15.947  56.944  51.352  0.00  0.00    +0.000 C 
BRANCH   9  18
ATOM     18  C   UNL     1     -11.842  55.963  47.671  0.00  0.00    +0.000 C 
ATOM     19  O   UNL     1     -12.791  56.110  46.910  0.00  0.00    +0.000 OA
BRANCH  18  20
ATOM     20  O   UNL     1     -10.546  55.848  47.278  0.00  0.00    +0.000 OA
BRANCH  20  21
ATOM     21  C   UNL     1     -10.255  54.884  46.263  0.00  0.00    +0.000 C 
ATOM     22  C   UNL     1      -8.754  54.696  46.158  0.00  0.00    +0.000 C 
ENDBRANCH  20  21
ENDBRANCH  18  20
ENDBRANCH   9  18
ENDBRANCH   4   7
BRANCH   1  23
ATOM     23  S   UNL     1      -6.581  53.358  50.800  0.00  0.00    +0.000 S 
ATOM     24  O   UNL     1      -6.131  54.701  51.092  0.00  0.00    +0.000 OA
ATOM     25  O   UNL     1      -5.762  52.460  50.012  0.00  0.00    +0.000 OA
BRANCH  23  26
ATOM     26  C   UNL     1      -6.922  52.513  52.334  0.00  0.00    +0.000 A 
ATOM     27  C   UNL     1      -6.177  52.815  53.480  0.00  0.00    +0.000 A 
ATOM     28  C   UNL     1      -7.967  51.585  52.398  0.00  0.00    +0.000 A 
ATOM     29  C   UNL     1      -6.459  52.151  54.684  0.00  0.00    +0.000 A 
ATOM     30  C   UNL     1      -8.244  50.926  53.600  0.00  0.00    +0.000 A 
ATOM     31  C   UNL     1      -7.482  51.200  54.745  0.00  0.00    +0.000 A 
BRANCH  31  32
ATOM     32  C   UNL     1      -7.758  50.509  55.974  0.00  0.00    +0.000 C 
ATOM     33  N   UNL     1      -7.981  49.943  56.966  0.00  0.00    +0.000 NA
ENDBRANCH  31  32
ENDBRANCH  23  26
ENDBRANCH   1  23
TORSDOF 7
ENDMDL
MODEL 7
REMARK VINA RESULT:      -6.9      2.448      3.637
REMARK  Name = 
REMARK  10 active torsions:
REMARK  status: ('A' for Active; 'I' for Inactive)
REMARK    1  A    between atoms: S_1  and  N_4
REMARK    2  A    between atoms: S_1  and  C_5
REMARK    3  A    between atoms: N_10  and  C_13
REMARK    4  A    between atoms: C_14  and  C_17
REMARK    5  A    between atoms: C_16  and  C_20
REMARK    6  A    between atoms: C_20  and  O_25
REMARK    7  A    between atoms: O_25  and  C_28
REMARK    8  A    between atoms: C_26  and  C_29
REMARK    9  A    between atoms: C_26  and  C_30
REMARK   10  A    between atoms: C_28  and  C_31
REMARK                            x       y       z     vdW  Elec       q    Type
REMARK                         _______ _______ _______ _____ _____    ______ ____
ROOT
ATOM      1  N   UNL     1      -7.978  56.040  50.941  0.00  0.00    +0.000 N 
ATOM      2  C   UNL     1      -8.460  55.234  49.916  0.00  0.00    +0.000 C 
ATOM      3  O   UNL     1      -8.776  54.070  50.120  0.00  0.00    +0.000 OA
ATOM      4  N   UNL     1      -8.420  55.832  48.669  0.00  0.00    +0.000 N 
ATOM      5  H   UNL     1      -7.741  56.971  50.725  0.00  0.00    +0.000 HD
ATOM      6  H   UNL     1      -8.144  56.771  48.566  0.00  0.00    +0.000 HD
ENDROOT
BRANCH   4   7
ATOM      7  C   UNL     1      -8.779  55.071  47.568  0.00  0.00    +0.000 A 
ATOM      8  S   UNL     1      -7.508  54.226  46.819  0.00  0.00    +0.000 S 
ATOM      9  C   UNL     1     -10.012  54.832  46.989  0.00  0.00    +0.000 A 
ATOM     10  C   UNL     1      -8.603  53.324  45.869  0.00  0.00    +0.000 A 
ATOM     11  C   UNL     1      -9.913  53.736  46.051  0.00  0.00    +0.000 A 
ATOM     12  C   UNL     1      -8.166  52.211  44.943  0.00  0.00    +0.000 C 
ATOM     13  C   UNL     1     -11.048  53.128  45.279  0.00  0.00    +0.000 C 
ATOM     14  C   UNL     1      -9.270  51.895  43.885  0.00  0.00    +0.000 C 
ATOM     15  C   UNL     1     -10.650  51.825  44.586  0.00  0.00    +0.000 C 
ATOM     16  C   UNL     1      -9.016  50.531  43.219  0.00  0.00    +0.000 C 
ATOM     17  C   UNL     1      -9.268  52.969  42.779  0.00  0.00    +0.000 C 
BRANCH   9  18
ATOM     18  C   UNL     1     -11.208  55.609  47.321  0.00  0.00    +0.000 C 
ATOM     19  O   UNL     1     -11.850  56.240  46.490  0.00  0.00    +0.000 OA
BRANCH  18  20
ATOM     20  O   UNL     1     -11.511  55.543  48.645  0.00  0.00    +0.000 OA
BRANCH  20  21
ATOM     21  C   UNL     1     -12.594  54.690  49.025  0.00  0.00    +0.000 C 
ATOM     22  C   UNL     1     -12.075  53.578  49.913  0.00  0.00    +0.000 C 
ENDBRANCH  20  21
ENDBRANCH  18  20
ENDBRANCH   9  18
ENDBRANCH   4   7
BRANCH   1  23
ATOM     23  S   UNL     1      -7.777  55.523  52.513  0.00  0.00    +0.000 S 
ATOM     24  O   UNL     1      -9.049  55.066  53.027  0.00  0.00    +0.000 OA
ATOM     25  O   UNL     1      -7.048  56.582  53.180  0.00  0.00    +0.000 OA
BRANCH  23  26
ATOM     26  C   UNL     1      -6.661  54.135  52.404  0.00  0.00    +0.000 A 
ATOM     27  C   UNL     1      -5.404  54.293  51.810  0.00  0.00    +0.000 A 
ATOM     28  C   UNL     1      -7.029  52.904  52.959  0.00  0.00    +0.000 A 
ATOM     29  C   UNL     1      -4.530  53.197  51.738  0.00  0.00    +0.000 A 
ATOM     30  C   UNL     1      -6.154  51.815  52.884  0.00  0.00    +0.000 A 
ATOM     31  C   UNL     1      -4.905  51.957  52.262  0.00  0.00    +0.000 A 
BRANCH  31  32
ATOM     32  C   UNL     1      -4.016  50.832  52.172  0.00  0.00    +0.000 C 
ATOM     33  N   UNL     1      -3.300  49.917  52.104  0.00  0.00    +0.000 NA
ENDBRANCH  31  32
ENDBRANCH  23  26
ENDBRANCH   1  23
TORSDOF 7
ENDMDL
MODEL 8
REMARK VINA RESULT:      -6.8      3.742      8.558
REMARK  Name = 
REMARK  10 active torsions:
REMARK  status: ('A' for Active; 'I' for Inactive)
REMARK    1  A    between atoms: S_1  and  N_4
REMARK    2  A    between atoms: S_1  and  C_5
REMARK    3  A    between atoms: N_10  and  C_13
REMARK    4  A    between atoms: C_14  and  C_17
REMARK    5  A    between atoms: C_16  and  C_20
REMARK    6  A    between atoms: C_20  and  O_25
REMARK    7  A    between atoms: O_25  and  C_28
REMARK    8  A    between atoms: C_26  and  C_29
REMARK    9  A    between atoms: C_26  and  C_30
REMARK   10  A    between atoms: C_28  and  C_31
REMARK                            x       y       z     vdW  Elec       q    Type
REMARK                         _______ _______ _______ _____ _____    ______ ____
ROOT
ATOM      1  N   UNL     1     -11.838  55.621  50.812  0.00  0.00    +0.000 N 
ATOM      2  C   UNL     1     -10.548  55.310  50.397  0.00  0.00    +0.000 C 
ATOM      3  O   UNL     1     -10.124  55.680  49.311  0.00  0.00    +0.000 OA
ATOM      4  N   UNL     1      -9.872  54.464  51.259  0.00  0.00    +0.000 N 
ATOM      5  H   UNL     1     -12.129  55.304  51.697  0.00  0.00    +0.000 HD
ATOM      6  H   UNL     1     -10.271  54.191  52.117  0.00  0.00    +0.000 HD
ENDROOT
BRANCH   4   7
ATOM      7  C   UNL     1      -8.618  54.011  50.880  0.00  0.00    +0.000 A 
ATOM      8  S   UNL     1      -8.593  52.497  50.106  0.00  0.00    +0.000 S 
ATOM      9  C   UNL     1      -7.370  54.599  50.976  0.00  0.00    +0.000 A 
ATOM     10  C   UNL     1      -6.960  52.704  49.652  0.00  0.00    +0.000 A 
ATOM     11  C   UNL     1      -6.417  53.868  50.173  0.00  0.00    +0.000 A 
ATOM     12  C   UNL     1      -6.216  51.715  48.783  0.00  0.00    +0.000 C 
ATOM     13  C   UNL     1      -4.978  54.234  49.956  0.00  0.00    +0.000 C 
ATOM     14  C   UNL     1      -4.672  51.899  48.918  0.00  0.00    +0.000 C 
ATOM     15  C   UNL     1      -4.325  53.408  48.848  0.00  0.00    +0.000 C 
ATOM     16  C   UNL     1      -3.933  51.198  47.764  0.00  0.00    +0.000 C 
ATOM     17  C   UNL     1      -4.177  51.282  50.241  0.00  0.00    +0.000 C 
BRANCH   9  18
ATOM     18  C   UNL     1      -7.116  55.791  51.789  0.00  0.00    +0.000 C 
ATOM     19  O   UNL     1      -7.545  56.902  51.501  0.00  0.00    +0.000 OA
BRANCH  18  20
ATOM     20  O   UNL     1      -6.359  55.514  52.883  0.00  0.00    +0.000 OA
BRANCH  20  21
ATOM     21  C   UNL     1      -7.052  55.178  54.088  0.00  0.00    +0.000 C 
ATOM     22  C   UNL     1      -6.215  54.211  54.901  0.00  0.00    +0.000 C 
ENDBRANCH  20  21
ENDBRANCH  18  20
ENDBRANCH   9  18
ENDBRANCH   4   7
BRANCH   1  23
ATOM     23  S   UNL     1     -12.921  56.499  49.897  0.00  0.00    +0.000 S 
ATOM     24  O   UNL     1     -13.836  55.590  49.245  0.00  0.00    +0.000 OA
ATOM     25  O   UNL     1     -12.116  57.420  49.121  0.00  0.00    +0.000 OA
BRANCH  23  26
ATOM     26  C   UNL     1     -13.824  57.489  51.075  0.00  0.00    +0.000 A 
ATOM     27  C   UNL     1     -14.444  58.675  50.663  0.00  0.00    +0.000 A 
ATOM     28  C   UNL     1     -13.951  57.050  52.398  0.00  0.00    +0.000 A 
ATOM     29  C   UNL     1     -15.159  59.441  51.595  0.00  0.00    +0.000 A 
ATOM     30  C   UNL     1     -14.666  57.819  53.323  0.00  0.00    +0.000 A 
ATOM     31  C   UNL     1     -15.263  59.024  52.925  0.00  0.00    +0.000 A 
BRANCH  31  32
ATOM     32  C   UNL     1     -15.981  59.819  53.882  0.00  0.00    +0.000 C 
ATOM     33  N   UNL     1     -16.561  60.458  54.662  0.00  0.00    +0.000 NA
ENDBRANCH  31  32
ENDBRANCH  23  26
ENDBRANCH   1  23
TORSDOF 7
ENDMDL
MODEL 9
REMARK VINA RESULT:      -6.7      3.240      8.356
REMARK  Name = 
REMARK  10 active torsions:
REMARK  status: ('A' for Active; 'I' for Inactive)
REMARK    1  A    between atoms: S_1  and  N_4
REMARK    2  A    between atoms: S_1  and  C_5
REMARK    3  A    between atoms: N_10  and  C_13
REMARK    4  A    between atoms: C_14  and  C_17
REMARK    5  A    between atoms: C_16  and  C_20
REMARK    6  A    between atoms: C_20  and  O_25
REMARK    7  A    between atoms: O_25  and  C_28
REMARK    8  A    between atoms: C_26  and  C_29
REMARK    9  A    between atoms: C_26  and  C_30
REMARK   10  A    between atoms: C_28  and  C_31
REMARK                            x       y       z     vdW  Elec       q    Type
REMARK                         _______ _______ _______ _____ _____    ______ ____
ROOT
ATOM      1  N   UNL     1     -10.129  54.352  47.420  0.00  0.00    +0.000 N 
ATOM      2  C   UNL     1      -9.491  53.846  48.546  0.00  0.00    +0.000 C 
ATOM      3  O   UNL     1     -10.103  53.200  49.386  0.00  0.00    +0.000 OA
ATOM      4  N   UNL     1      -8.172  54.248  48.670  0.00  0.00    +0.000 N 
ATOM      5  H   UNL     1      -9.591  54.861  46.773  0.00  0.00    +0.000 HD
ATOM      6  H   UNL     1      -7.737  54.778  47.964  0.00  0.00    +0.000 HD
ENDROOT
BRANCH   4   7
ATOM      7  C   UNL     1      -7.482  53.882  49.815  0.00  0.00    +0.000 A 
ATOM      8  S   UNL     1      -6.776  52.336  49.778  0.00  0.00    +0.000 S 
ATOM      9  C   UNL     1      -7.219  54.577  50.981  0.00  0.00    +0.000 A 
ATOM     10  C   UNL     1      -5.891  52.654  51.202  0.00  0.00    +0.000 A 
ATOM     11  C   UNL     1      -6.210  53.886  51.751  0.00  0.00    +0.000 A 
ATOM     12  C   UNL     1      -4.883  51.684  51.778  0.00  0.00    +0.000 C 
ATOM     13  C   UNL     1      -5.601  54.360  53.038  0.00  0.00    +0.000 C 
ATOM     14  C   UNL     1      -4.590  52.005  53.278  0.00  0.00    +0.000 C 
ATOM     15  C   UNL     1      -4.383  53.531  53.447  0.00  0.00    +0.000 C 
ATOM     16  C   UNL     1      -3.300  51.306  53.746  0.00  0.00    +0.000 C 
ATOM     17  C   UNL     1      -5.747  51.505  54.165  0.00  0.00    +0.000 C 
BRANCH   9  18
ATOM     18  C   UNL     1      -7.896  55.829  51.327  0.00  0.00    +0.000 C 
ATOM     19  O   UNL     1      -7.721  56.877  50.716  0.00  0.00    +0.000 OA
BRANCH  18  20
ATOM     20  O   UNL     1      -8.729  55.684  52.392  0.00  0.00    +0.000 OA
BRANCH  20  21
ATOM     21  C   UNL     1     -10.044  55.189  52.129  0.00  0.00    +0.000 C 
ATOM     22  C   UNL     1     -10.404  54.137  53.158  0.00  0.00    +0.000 C 
ENDBRANCH  20  21
ENDBRANCH  18  20
ENDBRANCH   9  18
ENDBRANCH   4   7
BRANCH   1  23
ATOM     23  S   UNL     1     -11.753  54.147  47.102  0.00  0.00    +0.000 S 
ATOM     24  O   UNL     1     -12.167  52.845  47.576  0.00  0.00    +0.000 OA
ATOM     25  O   UNL     1     -11.926  54.517  45.712  0.00  0.00    +0.000 OA
BRANCH  23  26
ATOM     26  C   UNL     1     -12.575  55.405  48.064  0.00  0.00    +0.000 A 
ATOM     27  C   UNL     1     -12.965  56.605  47.460  0.00  0.00    +0.000 A 
ATOM     28  C   UNL     1     -12.871  55.165  49.412  0.00  0.00    +0.000 A 
ATOM     29  C   UNL     1     -13.619  57.584  48.223  0.00  0.00    +0.000 A 
ATOM     30  C   UNL     1     -13.523  56.145  50.168  0.00  0.00    +0.000 A 
ATOM     31  C   UNL     1     -13.889  57.363  49.577  0.00  0.00    +0.000 A 
BRANCH  31  32
ATOM     32  C   UNL     1     -14.543  58.373  50.361  0.00  0.00    +0.000 C 
ATOM     33  N   UNL     1     -15.067  59.193  50.999  0.00  0.00    +0.000 NA
ENDBRANCH  31  32
ENDBRANCH  23  26
ENDBRANCH   1  23
TORSDOF 7
ENDMDL
