MODEL 1
REMARK VINA RESULT:      -7.6      0.000      0.000
REMARK  Name = 
REMARK  7 active torsions:
REMARK  status: ('A' for Active; 'I' for Inactive)
REMARK    1  A    between atoms: S_1  and  N_4
REMARK    2  A    between atoms: S_1  and  C_5
REMARK    3  A    between atoms: N_10  and  C_13
REMARK    4  A    between atoms: C_16  and  C_19
REMARK    5  A    between atoms: C_19  and  O_23
REMARK    6  A    between atoms: O_23  and  C_26
REMARK    7  A    between atoms: C_26  and  C_27
REMARK                            x       y       z     vdW  Elec       q    Type
REMARK                         _______ _______ _______ _____ _____    ______ ____
ROOT
ATOM      1  N   UNL     1     -10.614  54.228  47.130  0.00  0.00    +0.000 N 
ATOM      2  C   UNL     1     -10.999  55.167  48.077  0.00  0.00    +0.000 C 
ATOM      3  O   UNL     1     -10.154  55.890  48.584  0.00  0.00    +0.000 OA
ATOM      4  N   UNL     1     -12.342  55.130  48.384  0.00  0.00    +0.000 N 
ATOM      5  H   UNL     1     -11.304  53.653  46.726  0.00  0.00    +0.000 HD
ATOM      6  H   UNL     1     -12.904  54.494  47.885  0.00  0.00    +0.000 HD
ENDROOT
BRANCH   4   7
ATOM      7  C   UNL     1     -12.971  55.924  49.345  0.00  0.00    +0.000 A 
ATOM      8  S   UNL     1     -14.013  57.176  48.857  0.00  0.00    +0.000 S 
ATOM      9  C   UNL     1     -12.894  55.817  50.732  0.00  0.00    +0.000 A 
ATOM     10  C   UNL     1     -14.287  57.682  50.436  0.00  0.00    +0.000 A 
ATOM     11  C   UNL     1     -13.661  56.881  51.371  0.00  0.00    +0.000 A 
ATOM     12  C   UNL     1     -15.169  58.855  50.718  0.00  0.00    +0.000 C 
ATOM     13  C   UNL     1     -13.800  57.181  52.841  0.00  0.00    +0.000 C 
ATOM     14  C   UNL     1     -15.009  59.315  52.169  0.00  0.00    +0.000 C 
ATOM     15  C   UNL     1     -14.977  58.126  53.133  0.00  0.00    +0.000 C 
BRANCH   9  16
ATOM     16  C   UNL     1     -12.141  54.746  51.392  0.00  0.00    +0.000 C 
ATOM     17  O   UNL     1     -12.320  53.557  51.145  0.00  0.00    +0.000 OA
BRANCH  16  18
ATOM     18  O   UNL     1     -11.300  55.213  52.355  0.00  0.00    +0.000 OA
BRANCH  18  19
ATOM     19  C   UNL     1      -9.894  55.095  52.099  0.00  0.00    +0.000 C 
ATOM     20  C   UNL     1      -9.202  54.752  53.407  0.00  0.00    +0.000 C 
ENDBRANCH  18  19
ENDBRANCH  16  18
ENDBRANCH   9  16
ENDBRANCH   4   7
BRANCH   1  21
ATOM     21  S   UNL     1      -9.024  54.035  46.650  0.00  0.00    +0.000 S 
ATOM     22  O   UNL     1      -8.287  53.406  47.723  0.00  0.00    +0.000 OA
ATOM     23  O   UNL     1      -8.618  55.327  46.138  0.00  0.00    +0.000 OA
BRANCH  21  24
ATOM     24  C   UNL     1      -9.090  52.932  45.248  0.00  0.00    +0.000 A 
ATOM     25  C   UNL     1     -10.122  53.057  44.312  0.00  0.00    +0.000 A 
ATOM     26  C   UNL     1      -8.088  51.971  45.070  0.00  0.00    +0.000 A 
ATOM     27  C   UNL     1     -10.149  52.211  43.200  0.00  0.00    +0.000 A 
ATOM     28  C   UNL     1      -8.117  51.134  43.953  0.00  0.00    +0.000 A 
ATOM     29  C   UNL     1      -9.147  51.255  43.019  0.00  0.00    +0.000 A 
ENDBRANCH  21  24
ENDBRANCH   1  21
TORSDOF 6
ENDMDL
MODEL 2
REMARK VINA RESULT:      -7.6      3.296      7.671
REMARK  Name = 
REMARK  7 active torsions:
REMARK  status: ('A' for Active; 'I' for Inactive)
REMARK    1  A    between atoms: S_1  and  N_4
REMARK    2  A    between atoms: S_1  and  C_5
REMARK    3  A    between atoms: N_10  and  C_13
REMARK    4  A    between atoms: C_16  and  C_19
REMARK    5  A    between atoms: C_19  and  O_23
REMARK    6  A    between atoms: O_23  and  C_26
REMARK    7  A    between atoms: C_26  and  C_27
REMARK                            x       y       z     vdW  Elec       q    Type
REMARK                         _______ _______ _______ _____ _____    ______ ____
ROOT
ATOM      1  N   UNL     1     -14.458  55.231  51.216  0.00  0.00    +0.000 N 
ATOM      2  C   UNL     1     -13.154  55.416  51.657  0.00  0.00    +0.000 C 
ATOM      3  O   UNL     1     -12.832  56.489  52.146  0.00  0.00    +0.000 OA
ATOM      4  N   UNL     1     -12.331  54.335  51.429  0.00  0.00    +0.000 N 
ATOM      5  H   UNL     1     -14.707  54.362  50.827  0.00  0.00    +0.000 HD
ATOM      6  H   UNL     1     -12.737  53.532  51.029  0.00  0.00    +0.000 HD
ENDROOT
BRANCH   4   7
ATOM      7  C   UNL     1     -10.966  54.287  51.720  0.00  0.00    +0.000 A 
ATOM      8  S   UNL     1     -10.419  53.394  53.060  0.00  0.00    +0.000 S 
ATOM      9  C   UNL     1      -9.916  54.869  51.013  0.00  0.00    +0.000 A 
ATOM     10  C   UNL     1      -8.819  53.850  52.820  0.00  0.00    +0.000 A 
ATOM     11  C   UNL     1      -8.646  54.623  51.688  0.00  0.00    +0.000 A 
ATOM     12  C   UNL     1      -7.746  53.383  53.750  0.00  0.00    +0.000 C 
ATOM     13  C   UNL     1      -7.274  55.119  51.311  0.00  0.00    +0.000 C 
ATOM     14  C   UNL     1      -6.454  54.172  53.524  0.00  0.00    +0.000 C 
ATOM     15  C   UNL     1      -6.158  54.347  52.032  0.00  0.00    +0.000 C 
BRANCH   9  16
ATOM     16  C   UNL     1     -10.128  55.601  49.760  0.00  0.00    +0.000 C 
ATOM     17  O   UNL     1      -9.800  56.773  49.611  0.00  0.00    +0.000 OA
BRANCH  16  18
ATOM     18  O   UNL     1     -10.801  54.867  48.832  0.00  0.00    +0.000 OA
BRANCH  18  19
ATOM     19  C   UNL     1     -10.535  55.164  47.455  0.00  0.00    +0.000 C 
ATOM     20  C   UNL     1     -11.822  55.661  46.820  0.00  0.00    +0.000 C 
ENDBRANCH  18  19
ENDBRANCH  16  18
ENDBRANCH   9  16
ENDBRANCH   4   7
BRANCH   1  21
ATOM     21  S   UNL     1     -15.621  56.429  51.320  0.00  0.00    +0.000 S 
ATOM     22  O   UNL     1     -15.782  56.801  52.708  0.00  0.00    +0.000 OA
ATOM     23  O   UNL     1     -16.747  55.937  50.555  0.00  0.00    +0.000 OA
BRANCH  21  24
ATOM     24  C   UNL     1     -14.952  57.809  50.407  0.00  0.00    +0.000 A 
ATOM     25  C   UNL     1     -14.357  57.596  49.160  0.00  0.00    +0.000 A 
ATOM     26  C   UNL     1     -15.060  59.105  50.927  0.00  0.00    +0.000 A 
ATOM     27  C   UNL     1     -13.864  58.687  48.437  0.00  0.00    +0.000 A 
ATOM     28  C   UNL     1     -14.572  60.190  50.196  0.00  0.00    +0.000 A 
ATOM     29  C   UNL     1     -13.975  59.980  48.951  0.00  0.00    +0.000 A 
ENDBRANCH  21  24
ENDBRANCH   1  21
TORSDOF 6
ENDMDL
MODEL 3
REMARK VINA RESULT:      -7.2      1.675      2.131
REMARK  Name = 
REMARK  7 active torsions:
REMARK  status: ('A' for Active; 'I' for Inactive)
REMARK    1  A    between atoms: S_1  and  N_4
REMARK    2  A    between atoms: S_1  and  C_5
REMARK    3  A    between atoms: N_10  and  C_13
REMARK    4  A    between atoms: C_16  and  C_19
REMARK    5  A    between atoms: C_19  and  O_23
REMARK    6  A    between atoms: O_23  and  C_26
REMARK    7  A    between atoms: C_26  and  C_27
REMARK                            x       y       z     vdW  Elec       q    Type
REMARK                         _______ _______ _______ _____ _____    ______ ____
ROOT
ATOM      1  N   UNL     1     -11.113  53.430  46.938  0.00  0.00    +0.000 N 
ATOM      2  C   UNL     1     -11.892  53.849  48.008  0.00  0.00    +0.000 C 
ATOM      3  O   UNL     1     -12.610  53.044  48.580  0.00  0.00    +0.000 OA
ATOM      4  N   UNL     1     -11.796  55.200  48.269  0.00  0.00    +0.000 N 
ATOM      5  H   UNL     1     -10.535  54.087  46.486  0.00  0.00    +0.000 HD
ATOM      6  H   UNL     1     -11.167  55.724  47.724  0.00  0.00    +0.000 HD
ENDROOT
BRANCH   4   7
ATOM      7  C   UNL     1     -12.521  55.883  49.248  0.00  0.00    +0.000 A 
ATOM      8  S   UNL     1     -13.834  56.864  48.797  0.00  0.00    +0.000 S 
ATOM      9  C   UNL     1     -12.339  55.854  50.629  0.00  0.00    +0.000 A 
ATOM     10  C   UNL     1     -14.113  57.367  50.376  0.00  0.00    +0.000 A 
ATOM     11  C   UNL     1     -13.275  56.758  51.288  0.00  0.00    +0.000 A 
ATOM     12  C   UNL     1     -15.207  58.338  50.684  0.00  0.00    +0.000 C 
ATOM     13  C   UNL     1     -13.385  57.084  52.755  0.00  0.00    +0.000 C 
ATOM     14  C   UNL     1     -15.062  58.882  52.107  0.00  0.00    +0.000 C 
ATOM     15  C   UNL     1     -14.717  57.769  53.100  0.00  0.00    +0.000 C 
BRANCH   9  16
ATOM     16  C   UNL     1     -11.334  54.996  51.266  0.00  0.00    +0.000 C 
ATOM     17  O   UNL     1     -11.554  53.828  51.570  0.00  0.00    +0.000 OA
BRANCH  16  18
ATOM     18  O   UNL     1     -10.183  55.661  51.556  0.00  0.00    +0.000 OA
BRANCH  18  19
ATOM     19  C   UNL     1      -9.029  55.328  50.773  0.00  0.00    +0.000 C 
ATOM     20  C   UNL     1      -8.199  56.587  50.593  0.00  0.00    +0.000 C 
ENDBRANCH  18  19
ENDBRANCH  16  18
ENDBRANCH   9  16
ENDBRANCH   4   7
BRANCH   1  21
ATOM     21  S   UNL     1     -11.118  51.850  46.388  0.00  0.00    +0.000 S 
ATOM     22  O   UNL     1     -12.467  51.493  46.010  0.00  0.00    +0.000 OA
ATOM     23  O   UNL     1     -10.412  51.090  47.398  0.00  0.00    +0.000 OA
BRANCH  21  24
ATOM     24  C   UNL     1     -10.076  51.858  44.939  0.00  0.00    +0.000 A 
ATOM     25  C   UNL     1      -8.904  51.094  44.920  0.00  0.00    +0.000 A 
ATOM     26  C   UNL     1     -10.456  52.598  43.812  0.00  0.00    +0.000 A 
ATOM     27  C   UNL     1      -8.110  51.080  43.769  0.00  0.00    +0.000 A 
ATOM     28  C   UNL     1      -9.661  52.573  42.664  0.00  0.00    +0.000 A 
ATOM     29  C   UNL     1      -8.490  51.814  42.643  0.00  0.00    +0.000 A 
ENDBRANCH  21  24
ENDBRANCH   1  21
TORSDOF 6
ENDMDL
MODEL 4
REMARK VINA RESULT:      -7.2      2.285      3.028
REMARK  Name = 
REMARK  7 active torsions:
REMARK  status: ('A' for Active; 'I' for Inactive)
REMARK    1  A    between atoms: S_1  and  N_4
REMARK    2  A    between atoms: S_1  and  C_5
REMARK    3  A    between atoms: N_10  and  C_13
REMARK    4  A    between atoms: C_16  and  C_19
REMARK    5  A    between atoms: C_19  and  O_23
REMARK    6  A    between atoms: O_23  and  C_26
REMARK    7  A    between atoms: C_26  and  C_27
REMARK                            x       y       z     vdW  Elec       q    Type
REMARK                         _______ _______ _______ _____ _____    ______ ____
ROOT
ATOM      1  N   UNL     1     -10.385  54.061  47.290  0.00  0.00    +0.000 N 
ATOM      2  C   UNL     1     -10.841  55.076  48.121  0.00  0.00    +0.000 C 
ATOM      3  O   UNL     1     -10.088  55.991  48.420  0.00  0.00    +0.000 OA
ATOM      4  N   UNL     1     -12.130  54.889  48.571  0.00  0.00    +0.000 N 
ATOM      5  H   UNL     1     -11.001  53.330  47.053  0.00  0.00    +0.000 HD
ATOM      6  H   UNL     1     -12.618  54.102  48.237  0.00  0.00    +0.000 HD
ENDROOT
BRANCH   4   7
ATOM      7  C   UNL     1     -12.800  55.728  49.464  0.00  0.00    +0.000 A 
ATOM      8  S   UNL     1     -13.843  56.933  48.870  0.00  0.00    +0.000 S 
ATOM      9  C   UNL     1     -12.768  55.703  50.856  0.00  0.00    +0.000 A 
ATOM     10  C   UNL     1     -14.175  57.526  50.407  0.00  0.00    +0.000 A 
ATOM     11  C   UNL     1     -13.569  56.791  51.407  0.00  0.00    +0.000 A 
ATOM     12  C   UNL     1     -15.081  58.700  50.591  0.00  0.00    +0.000 C 
ATOM     13  C   UNL     1     -13.760  57.174  52.852  0.00  0.00    +0.000 C 
ATOM     14  C   UNL     1     -14.975  59.246  52.018  0.00  0.00    +0.000 C 
ATOM     15  C   UNL     1     -14.959  58.115  53.050  0.00  0.00    +0.000 C 
BRANCH   9  16
ATOM     16  C   UNL     1     -12.022  54.684  51.602  0.00  0.00    +0.000 C 
ATOM     17  O   UNL     1     -12.264  53.484  51.511  0.00  0.00    +0.000 OA
BRANCH  16  18
ATOM     18  O   UNL     1     -11.109  55.222  52.456  0.00  0.00    +0.000 OA
BRANCH  18  19
ATOM     19  C   UNL     1      -9.798  54.641  52.451  0.00  0.00    +0.000 C 
ATOM     20  C   UNL     1      -8.877  55.556  51.664  0.00  0.00    +0.000 C 
ENDBRANCH  18  19
ENDBRANCH  16  18
ENDBRANCH   9  16
ENDBRANCH   4   7
BRANCH   1  21
ATOM     21  S   UNL     1      -8.830  54.032  46.677  0.00  0.00    +0.000 S 
ATOM     22  O   UNL     1      -8.564  55.293  46.021  0.00  0.00    +0.000 OA
ATOM     23  O   UNL     1      -8.729  52.787  45.945  0.00  0.00    +0.000 OA
BRANCH  21  24
ATOM     24  C   UNL     1      -7.769  53.868  48.103  0.00  0.00    +0.000 A 
ATOM     25  C   UNL     1      -7.938  52.788  48.976  0.00  0.00    +0.000 A 
ATOM     26  C   UNL     1      -6.747  54.800  48.321  0.00  0.00    +0.000 A 
ATOM     27  C   UNL     1      -7.082  52.649  50.073  0.00  0.00    +0.000 A 
ATOM     28  C   UNL     1      -5.892  54.650  49.415  0.00  0.00    +0.000 A 
ATOM     29  C   UNL     1      -6.060  53.575  50.289  0.00  0.00    +0.000 A 
ENDBRANCH  21  24
ENDBRANCH   1  21
TORSDOF 6
ENDMDL
MODEL 5
REMARK VINA RESULT:      -7.2      3.024      8.199
REMARK  Name = 
REMARK  7 active torsions:
REMARK  status: ('A' for Active; 'I' for Inactive)
REMARK    1  A    between atoms: S_1  and  N_4
REMARK    2  A    between atoms: S_1  and  C_5
REMARK    3  A    between atoms: N_10  and  C_13
REMARK    4  A    between atoms: C_16  and  C_19
REMARK    5  A    between atoms: C_19  and  O_23
REMARK    6  A    between atoms: O_23  and  C_26
REMARK    7  A    between atoms: C_26  and  C_27
REMARK                            x       y       z     vdW  Elec       q    Type
REMARK                         _______ _______ _______ _____ _____    ______ ____
ROOT
ATOM      1  N   UNL     1     -12.034  56.810  49.390  0.00  0.00    +0.000 N 
ATOM      2  C   UNL     1     -11.002  55.912  49.153  0.00  0.00    +0.000 C 
ATOM      3  O   UNL     1     -11.246  54.716  49.103  0.00  0.00    +0.000 OA
ATOM      4  N   UNL     1      -9.762  56.505  49.051  0.00  0.00    +0.000 N 
ATOM      5  H   UNL     1     -11.827  57.772  49.425  0.00  0.00    +0.000 HD
ATOM      6  H   UNL     1      -9.723  57.487  49.106  0.00  0.00    +0.000 HD
ENDROOT
BRANCH   4   7
ATOM      7  C   UNL     1      -8.556  55.823  48.876  0.00  0.00    +0.000 A 
ATOM      8  S   UNL     1      -8.234  55.040  47.402  0.00  0.00    +0.000 S 
ATOM      9  C   UNL     1      -7.495  55.710  49.772  0.00  0.00    +0.000 A 
ATOM     10  C   UNL     1      -6.764  54.433  47.945  0.00  0.00    +0.000 A 
ATOM     11  C   UNL     1      -6.445  54.862  49.218  0.00  0.00    +0.000 A 
ATOM     12  C   UNL     1      -5.924  53.568  47.061  0.00  0.00    +0.000 C 
ATOM     13  C   UNL     1      -5.158  54.422  49.866  0.00  0.00    +0.000 C 
ATOM     14  C   UNL     1      -4.815  52.887  47.868  0.00  0.00    +0.000 C 
ATOM     15  C   UNL     1      -4.154  53.863  48.846  0.00  0.00    +0.000 C 
BRANCH   9  16
ATOM     16  C   UNL     1      -7.494  56.390  51.072  0.00  0.00    +0.000 C 
ATOM     17  O   UNL     1      -7.512  57.612  51.182  0.00  0.00    +0.000 OA
BRANCH  16  18
ATOM     18  O   UNL     1      -7.383  55.525  52.117  0.00  0.00    +0.000 OA
BRANCH  18  19
ATOM     19  C   UNL     1      -7.079  56.094  53.397  0.00  0.00    +0.000 C 
ATOM     20  C   UNL     1      -6.472  55.006  54.266  0.00  0.00    +0.000 C 
ENDBRANCH  18  19
ENDBRANCH  16  18
ENDBRANCH   9  16
ENDBRANCH   4   7
BRANCH   1  21
ATOM     21  S   UNL     1     -13.617  56.319  49.620  0.00  0.00    +0.000 S 
ATOM     22  O   UNL     1     -13.615  54.961  50.115  0.00  0.00    +0.000 OA
ATOM     23  O   UNL     1     -14.305  56.654  48.391  0.00  0.00    +0.000 OA
BRANCH  21  24
ATOM     24  C   UNL     1     -14.265  57.409  50.877  0.00  0.00    +0.000 A 
ATOM     25  C   UNL     1     -14.288  56.995  52.212  0.00  0.00    +0.000 A 
ATOM     26  C   UNL     1     -14.712  58.689  50.525  0.00  0.00    +0.000 A 
ATOM     27  C   UNL     1     -14.768  57.867  53.195  0.00  0.00    +0.000 A 
ATOM     28  C   UNL     1     -15.182  59.556  51.513  0.00  0.00    +0.000 A 
ATOM     29  C   UNL     1     -15.209  59.145  52.846  0.00  0.00    +0.000 A 
ENDBRANCH  21  24
ENDBRANCH   1  21
TORSDOF 6
ENDMDL
MODEL 6
REMARK VINA RESULT:      -7.2      3.097      8.151
REMARK  Name = 
REMARK  7 active torsions:
REMARK  status: ('A' for Active; 'I' for Inactive)
REMARK    1  A    between atoms: S_1  and  N_4
REMARK    2  A    between atoms: S_1  and  C_5
REMARK    3  A    between atoms: N_10  and  C_13
REMARK    4  A    between atoms: C_16  and  C_19
REMARK    5  A    between atoms: C_19  and  O_23
REMARK    6  A    between atoms: O_23  and  C_26
REMARK    7  A    between atoms: C_26  and  C_27
REMARK                            x       y       z     vdW  Elec       q    Type
REMARK                         _______ _______ _______ _____ _____    ______ ____
ROOT
ATOM      1  N   UNL     1     -11.172  56.463  49.575  0.00  0.00    +0.000 N 
ATOM      2  C   UNL     1     -10.288  55.694  50.320  0.00  0.00    +0.000 C 
ATOM      3  O   UNL     1     -10.706  54.724  50.933  0.00  0.00    +0.000 OA
ATOM      4  N   UNL     1      -8.996  56.175  50.321  0.00  0.00    +0.000 N 
ATOM      5  H   UNL     1     -10.824  57.241  49.082  0.00  0.00    +0.000 HD
ATOM      6  H   UNL     1      -8.808  56.969  49.771  0.00  0.00    +0.000 HD
ENDROOT
BRANCH   4   7
ATOM      7  C   UNL     1      -7.933  55.624  51.038  0.00  0.00    +0.000 A 
ATOM      8  S   UNL     1      -7.883  55.783  52.731  0.00  0.00    +0.000 S 
ATOM      9  C   UNL     1      -6.856  54.888  50.549  0.00  0.00    +0.000 A 
ATOM     10  C   UNL     1      -6.397  55.006  52.847  0.00  0.00    +0.000 A 
ATOM     11  C   UNL     1      -5.936  54.546  51.629  0.00  0.00    +0.000 A 
ATOM     12  C   UNL     1      -5.732  54.828  54.174  0.00  0.00    +0.000 C 
ATOM     13  C   UNL     1      -4.619  53.819  51.542  0.00  0.00    +0.000 C 
ATOM     14  C   UNL     1      -4.275  54.395  53.994  0.00  0.00    +0.000 C 
ATOM     15  C   UNL     1      -4.139  53.319  52.913  0.00  0.00    +0.000 C 
BRANCH   9  16
ATOM     16  C   UNL     1      -6.735  54.529  49.132  0.00  0.00    +0.000 C 
ATOM     17  O   UNL     1      -5.742  54.793  48.461  0.00  0.00    +0.000 OA
BRANCH  16  18
ATOM     18  O   UNL     1      -7.868  53.960  48.637  0.00  0.00    +0.000 OA
BRANCH  18  19
ATOM     19  C   UNL     1      -8.031  53.978  47.212  0.00  0.00    +0.000 C 
ATOM     20  C   UNL     1      -8.865  55.194  46.847  0.00  0.00    +0.000 C 
ENDBRANCH  18  19
ENDBRANCH  16  18
ENDBRANCH   9  16
ENDBRANCH   4   7
BRANCH   1  21
ATOM     21  S   UNL     1     -12.806  56.119  49.483  0.00  0.00    +0.000 S 
ATOM     22  O   UNL     1     -13.012  54.737  49.855  0.00  0.00    +0.000 OA
ATOM     23  O   UNL     1     -13.227  56.602  48.185  0.00  0.00    +0.000 OA
BRANCH  21  24
ATOM     24  C   UNL     1     -13.576  57.182  50.693  0.00  0.00    +0.000 A 
ATOM     25  C   UNL     1     -14.193  58.368  50.285  0.00  0.00    +0.000 A 
ATOM     26  C   UNL     1     -13.593  56.803  52.041  0.00  0.00    +0.000 A 
ATOM     27  C   UNL     1     -14.821  59.179  51.235  0.00  0.00    +0.000 A 
ATOM     28  C   UNL     1     -14.229  57.614  52.983  0.00  0.00    +0.000 A 
ATOM     29  C   UNL     1     -14.843  58.801  52.579  0.00  0.00    +0.000 A 
ENDBRANCH  21  24
ENDBRANCH   1  21
TORSDOF 6
ENDMDL
MODEL 7
REMARK VINA RESULT:      -7.1      2.190      8.377
REMARK  Name = 
REMARK  7 active torsions:
REMARK  status: ('A' for Active; 'I' for Inactive)
REMARK    1  A    between atoms: S_1  and  N_4
REMARK    2  A    between atoms: S_1  and  C_5
REMARK    3  A    between atoms: N_10  and  C_13
REMARK    4  A    between atoms: C_16  and  C_19
REMARK    5  A    between atoms: C_19  and  O_23
REMARK    6  A    between atoms: O_23  and  C_26
REMARK    7  A    between atoms: C_26  and  C_27
REMARK                            x       y       z     vdW  Elec       q    Type
REMARK                         _______ _______ _______ _____ _____    ______ ____
ROOT
ATOM      1  N   UNL     1     -12.903  55.923  49.059  0.00  0.00    +0.000 N 
ATOM      2  C   UNL     1     -12.263  55.380  47.954  0.00  0.00    +0.000 C 
ATOM      3  O   UNL     1     -12.150  56.048  46.937  0.00  0.00    +0.000 OA
ATOM      4  N   UNL     1     -11.862  54.072  48.129  0.00  0.00    +0.000 N 
ATOM      5  H   UNL     1     -12.985  55.377  49.875  0.00  0.00    +0.000 HD
ATOM      6  H   UNL     1     -12.016  53.666  49.012  0.00  0.00    +0.000 HD
ENDROOT
BRANCH   4   7
ATOM      7  C   UNL     1     -11.254  53.279  47.154  0.00  0.00    +0.000 A 
ATOM      8  S   UNL     1     -12.138  52.035  46.404  0.00  0.00    +0.000 S 
ATOM      9  C   UNL     1      -9.960  53.382  46.647  0.00  0.00    +0.000 A 
ATOM     10  C   UNL     1     -10.818  51.527  45.496  0.00  0.00    +0.000 A 
ATOM     11  C   UNL     1      -9.704  52.321  45.680  0.00  0.00    +0.000 A 
ATOM     12  C   UNL     1     -10.935  50.358  44.572  0.00  0.00    +0.000 C 
ATOM     13  C   UNL     1      -8.426  52.018  44.941  0.00  0.00    +0.000 C 
ATOM     14  C   UNL     1      -9.551  49.894  44.111  0.00  0.00    +0.000 C 
ATOM     15  C   UNL     1      -8.655  51.080  43.744  0.00  0.00    +0.000 C 
BRANCH   9  16
ATOM     16  C   UNL     1      -9.041  54.447  47.063  0.00  0.00    +0.000 C 
ATOM     17  O   UNL     1      -8.520  55.223  46.268  0.00  0.00    +0.000 OA
BRANCH  16  18
ATOM     18  O   UNL     1      -8.771  54.416  48.397  0.00  0.00    +0.000 OA
BRANCH  18  19
ATOM     19  C   UNL     1      -8.143  55.577  48.957  0.00  0.00    +0.000 C 
ATOM     20  C   UNL     1      -9.227  56.465  49.543  0.00  0.00    +0.000 C 
ENDBRANCH  18  19
ENDBRANCH  16  18
ENDBRANCH   9  16
ENDBRANCH   4   7
BRANCH   1  21
ATOM     21  S   UNL     1     -13.541  57.469  49.060  0.00  0.00    +0.000 S 
ATOM     22  O   UNL     1     -14.585  57.542  48.063  0.00  0.00    +0.000 OA
ATOM     23  O   UNL     1     -12.398  58.355  48.993  0.00  0.00    +0.000 OA
BRANCH  21  24
ATOM     24  C   UNL     1     -14.252  57.680  50.683  0.00  0.00    +0.000 A 
ATOM     25  C   UNL     1     -14.187  58.926  51.315  0.00  0.00    +0.000 A 
ATOM     26  C   UNL     1     -14.906  56.607  51.302  0.00  0.00    +0.000 A 
ATOM     27  C   UNL     1     -14.775  59.092  52.573  0.00  0.00    +0.000 A 
ATOM     28  C   UNL     1     -15.496  56.782  52.554  0.00  0.00    +0.000 A 
ATOM     29  C   UNL     1     -15.431  58.024  53.189  0.00  0.00    +0.000 A 
ENDBRANCH  21  24
ENDBRANCH   1  21
TORSDOF 6
ENDMDL
MODEL 8
REMARK VINA RESULT:      -7.0      3.591      8.210
REMARK  Name = 
REMARK  7 active torsions:
REMARK  status: ('A' for Active; 'I' for Inactive)
REMARK    1  A    between atoms: S_1  and  N_4
REMARK    2  A    between atoms: S_1  and  C_5
REMARK    3  A    between atoms: N_10  and  C_13
REMARK    4  A    between atoms: C_16  and  C_19
REMARK    5  A    between atoms: C_19  and  O_23
REMARK    6  A    between atoms: O_23  and  C_26
REMARK    7  A    between atoms: C_26  and  C_27
REMARK                            x       y       z     vdW  Elec       q    Type
REMARK                         _______ _______ _______ _____ _____    ______ ____
ROOT
ATOM      1  N   UNL     1     -11.205  56.421  50.171  0.00  0.00    +0.000 N 
ATOM      2  C   UNL     1     -10.230  55.467  49.912  0.00  0.00    +0.000 C 
ATOM      3  O   UNL     1     -10.535  54.440  49.325  0.00  0.00    +0.000 OA
ATOM      4  N   UNL     1      -8.989  55.788  50.420  0.00  0.00    +0.000 N 
ATOM      5  H   UNL     1     -10.947  57.247  50.641  0.00  0.00    +0.000 HD
ATOM      6  H   UNL     1      -8.894  56.660  50.866  0.00  0.00    +0.000 HD
ENDROOT
BRANCH   4   7
ATOM      7  C   UNL     1      -7.856  54.975  50.352  0.00  0.00    +0.000 A 
ATOM      8  S   UNL     1      -6.859  55.030  48.976  0.00  0.00    +0.000 S 
ATOM      9  C   UNL     1      -7.371  54.094  51.316  0.00  0.00    +0.000 A 
ATOM     10  C   UNL     1      -5.846  53.819  49.554  0.00  0.00    +0.000 A 
ATOM     11  C   UNL     1      -6.190  53.395  50.823  0.00  0.00    +0.000 A 
ATOM     12  C   UNL     1      -4.687  53.342  48.741  0.00  0.00    +0.000 C 
ATOM     13  C   UNL     1      -5.388  52.316  51.505  0.00  0.00    +0.000 C 
ATOM     14  C   UNL     1      -4.120  52.042  49.318  0.00  0.00    +0.000 C 
ATOM     15  C   UNL     1      -4.016  52.106  50.844  0.00  0.00    +0.000 C 
BRANCH   9  16
ATOM     16  C   UNL     1      -8.003  53.953  52.633  0.00  0.00    +0.000 C 
ATOM     17  O   UNL     1      -8.575  52.928  52.989  0.00  0.00    +0.000 OA
BRANCH  16  18
ATOM     18  O   UNL     1      -7.957  55.101  53.362  0.00  0.00    +0.000 OA
BRANCH  18  19
ATOM     19  C   UNL     1      -6.669  55.514  53.839  0.00  0.00    +0.000 C 
ATOM     20  C   UNL     1      -6.195  54.497  54.863  0.00  0.00    +0.000 C 
ENDBRANCH  18  19
ENDBRANCH  16  18
ENDBRANCH   9  16
ENDBRANCH   4   7
BRANCH   1  21
ATOM     21  S   UNL     1     -12.801  56.221  49.714  0.00  0.00    +0.000 S 
ATOM     22  O   UNL     1     -13.182  54.845  49.944  0.00  0.00    +0.000 OA
ATOM     23  O   UNL     1     -12.898  56.799  48.390  0.00  0.00    +0.000 OA
BRANCH  21  24
ATOM     24  C   UNL     1     -13.734  57.286  50.801  0.00  0.00    +0.000 A 
ATOM     25  C   UNL     1     -13.884  56.945  52.149  0.00  0.00    +0.000 A 
ATOM     26  C   UNL     1     -14.279  58.478  50.308  0.00  0.00    +0.000 A 
ATOM     27  C   UNL     1     -14.589  57.800  53.001  0.00  0.00    +0.000 A 
ATOM     28  C   UNL     1     -14.976  59.331  51.167  0.00  0.00    +0.000 A 
ATOM     29  C   UNL     1     -15.130  58.992  52.513  0.00  0.00    +0.000 A 
ENDBRANCH  21  24
ENDBRANCH   1  21
TORSDOF 6
ENDMDL
MODEL 9
REMARK VINA RESULT:      -7.0      3.239      7.847
REMARK  Name = 
REMARK  7 active torsions:
REMARK  status: ('A' for Active; 'I' for Inactive)
REMARK    1  A    between atoms: S_1  and  N_4
REMARK    2  A    between atoms: S_1  and  C_5
REMARK    3  A    between atoms: N_10  and  C_13
REMARK    4  A    between atoms: C_16  and  C_19
REMARK    5  A    between atoms: C_19  and  O_23
REMARK    6  A    between atoms: O_23  and  C_26
REMARK    7  A    between atoms: C_26  and  C_27
REMARK                            x       y       z     vdW  Elec       q    Type
REMARK                         _______ _______ _______ _____ _____    ______ ____
ROOT
ATOM      1  N   UNL     1     -14.188  55.400  51.697  0.00  0.00    +0.000 N 
ATOM      2  C   UNL     1     -12.853  55.021  51.663  0.00  0.00    +0.000 C 
ATOM      3  O   UNL     1     -11.992  55.822  51.996  0.00  0.00    +0.000 OA
ATOM      4  N   UNL     1     -12.648  53.745  51.183  0.00  0.00    +0.000 N 
ATOM      5  H   UNL     1     -14.873  54.745  51.430  0.00  0.00    +0.000 HD
ATOM      6  H   UNL     1     -13.445  53.212  50.959  0.00  0.00    +0.000 HD
ENDROOT
BRANCH   4   7
ATOM      7  C   UNL     1     -11.401  53.148  50.990  0.00  0.00    +0.000 A 
ATOM      8  S   UNL     1     -10.494  52.633  52.333  0.00  0.00    +0.000 S 
ATOM      9  C   UNL     1     -10.763  52.861  49.785  0.00  0.00    +0.000 A 
ATOM     10  C   UNL     1      -9.200  52.141  51.380  0.00  0.00    +0.000 A 
ATOM     11  C   UNL     1      -9.445  52.285  50.028  0.00  0.00    +0.000 A 
ATOM     12  C   UNL     1      -7.967  51.572  52.004  0.00  0.00    +0.000 C 
ATOM     13  C   UNL     1      -8.396  51.889  49.021  0.00  0.00    +0.000 C 
ATOM     14  C   UNL     1      -6.828  51.501  50.985  0.00  0.00    +0.000 C 
ATOM     15  C   UNL     1      -7.318  50.979  49.632  0.00  0.00    +0.000 C 
BRANCH   9  16
ATOM     16  C   UNL     1     -11.395  53.116  48.486  0.00  0.00    +0.000 C 
ATOM     17  O   UNL     1     -12.433  52.565  48.133  0.00  0.00    +0.000 OA
BRANCH  16  18
ATOM     18  O   UNL     1     -10.661  53.950  47.700  0.00  0.00    +0.000 OA
BRANCH  18  19
ATOM     19  C   UNL     1     -10.937  55.353  47.812  0.00  0.00    +0.000 C 
ATOM     20  C   UNL     1     -11.831  55.753  46.651  0.00  0.00    +0.000 C 
ENDBRANCH  18  19
ENDBRANCH  16  18
ENDBRANCH   9  16
ENDBRANCH   4   7
BRANCH   1  21
ATOM     21  S   UNL     1     -14.677  56.926  52.175  0.00  0.00    +0.000 S 
ATOM     22  O   UNL     1     -13.788  57.396  53.214  0.00  0.00    +0.000 OA
ATOM     23  O   UNL     1     -16.100  56.814  52.420  0.00  0.00    +0.000 OA
BRANCH  21  24
ATOM     24  C   UNL     1     -14.492  57.951  50.725  0.00  0.00    +0.000 A 
ATOM     25  C   UNL     1     -14.572  59.342  50.841  0.00  0.00    +0.000 A 
ATOM     26  C   UNL     1     -14.229  57.359  49.484  0.00  0.00    +0.000 A 
ATOM     27  C   UNL     1     -14.394  60.139  49.706  0.00  0.00    +0.000 A 
ATOM     28  C   UNL     1     -14.045  58.161  48.356  0.00  0.00    +0.000 A 
ATOM     29  C   UNL     1     -14.127  59.550  48.469  0.00  0.00    +0.000 A 
ENDBRANCH  21  24
ENDBRANCH   1  21
TORSDOF 6
ENDMDL
