MODEL 1
REMARK VINA RESULT:      -7.9      0.000      0.000
REMARK  Name = 
REMARK  10 active torsions:
REMARK  status: ('A' for Active; 'I' for Inactive)
REMARK    1  A    between atoms: S_1  and  N_4
REMARK    2  A    between atoms: S_1  and  N_5
REMARK    3  A    between atoms: N_12  and  C_14
REMARK    4  A    between atoms: C_15  and  C_19
REMARK    5  A    between atoms: C_17  and  C_22
REMARK    6  A    between atoms: C_22  and  O_26
REMARK    7  A    between atoms: O_26  and  C_29
REMARK    8  A    between atoms: C_27  and  C_30
REMARK    9  A    between atoms: C_27  and  C_31
REMARK   10  A    between atoms: C_29  and  C_32
REMARK                            x       y       z     vdW  Elec       q    Type
REMARK                         _______ _______ _______ _____ _____    ______ ____
ROOT
ATOM      1  N   UNL     1      -8.095  53.206  48.905  0.00  0.00    +0.000 N 
ATOM      2  C   UNL     1      -9.138  54.120  49.185  0.00  0.00    +0.000 C 
ATOM      3  O   UNL     1      -8.890  55.306  49.440  0.00  0.00    +0.000 OA
ATOM      4  N   UNL     1     -10.423  53.610  49.253  0.00  0.00    +0.000 N 
ATOM      5  H   UNL     1      -8.307  52.252  48.780  0.00  0.00    +0.000 HD
ATOM      6  H   UNL     1     -10.622  52.669  49.041  0.00  0.00    +0.000 HD
ENDROOT
BRANCH   4   7
ATOM      7  C   UNL     1     -11.425  54.511  49.642  0.00  0.00    +0.000 A 
ATOM      8  S   UNL     1     -11.774  54.614  51.312  0.00  0.00    +0.000 S 
ATOM      9  C   UNL     1     -12.163  55.418  48.895  0.00  0.00    +0.000 A 
ATOM     10  C   UNL     1     -12.755  56.005  51.092  0.00  0.00    +0.000 A 
ATOM     11  C   UNL     1     -12.862  56.349  49.755  0.00  0.00    +0.000 A 
ATOM     12  C   UNL     1     -13.428  56.759  52.229  0.00  0.00    +0.000 C 
ATOM     13  C   UNL     1     -13.701  57.511  49.299  0.00  0.00    +0.000 C 
ATOM     14  C   UNL     1     -14.598  57.659  51.697  0.00  0.00    +0.000 C 
ATOM     15  C   UNL     1     -14.116  58.429  50.445  0.00  0.00    +0.000 C 
ATOM     16  C   UNL     1     -15.034  58.714  52.734  0.00  0.00    +0.000 C 
ATOM     17  C   UNL     1     -15.832  56.792  51.373  0.00  0.00    +0.000 C 
BRANCH   9  18
ATOM     18  C   UNL     1     -12.185  55.407  47.432  0.00  0.00    +0.000 C 
ATOM     19  O   UNL     1     -12.321  56.416  46.752  0.00  0.00    +0.000 OA
BRANCH  18  20
ATOM     20  O   UNL     1     -12.039  54.151  46.932  0.00  0.00    +0.000 OA
BRANCH  20  21
ATOM     21  C   UNL     1     -11.568  54.035  45.589  0.00  0.00    +0.000 C 
ATOM     22  C   UNL     1     -10.060  53.898  45.582  0.00  0.00    +0.000 C 
ENDBRANCH  20  21
ENDBRANCH  18  20
ENDBRANCH   9  18
ENDBRANCH   4   7
BRANCH   1  23
ATOM     23  S   UNL     1      -6.499  53.720  48.780  0.00  0.00    +0.000 S 
ATOM     24  O   UNL     1      -6.057  53.372  47.452  0.00  0.00    +0.000 OA
ATOM     25  O   UNL     1      -6.317  55.056  49.295  0.00  0.00    +0.000 OA
BRANCH  23  26
ATOM     26  N   UNL     1      -5.689  52.653  49.849  0.00  0.00    +0.000 NA
ATOM     27  C   UNL     1      -6.469  52.166  51.022  0.00  0.00    +0.000 C 
ATOM     28  C   UNL     1      -4.363  53.197  50.356  0.00  0.00    +0.000 C 
ATOM     29  C   UNL     1      -6.694  53.239  52.091  0.00  0.00    +0.000 C 
ATOM     30  C   UNL     1      -4.547  54.283  51.434  0.00  0.00    +0.000 C 
ATOM     31  N   UNL     1      -5.426  53.837  52.531  0.00  0.00    +0.000 N 
ATOM     32  C   UNL     1      -5.118  54.232  53.820  0.00  0.00    +0.000 C 
ATOM     33  O   UNL     1      -4.037  54.758  54.099  0.00  0.00    +0.000 OA
ATOM     34  C   UNL     1      -6.105  53.990  54.939  0.00  0.00    +0.000 C 
ENDBRANCH  23  26
ENDBRANCH   1  23
TORSDOF 6
ENDMDL
MODEL 2
REMARK VINA RESULT:      -7.5      3.615      5.185
REMARK  Name = 
REMARK  10 active torsions:
REMARK  status: ('A' for Active; 'I' for Inactive)
REMARK    1  A    between atoms: S_1  and  N_4
REMARK    2  A    between atoms: S_1  and  N_5
REMARK    3  A    between atoms: N_12  and  C_14
REMARK    4  A    between atoms: C_15  and  C_19
REMARK    5  A    between atoms: C_17  and  C_22
REMARK    6  A    between atoms: C_22  and  O_26
REMARK    7  A    between atoms: O_26  and  C_29
REMARK    8  A    between atoms: C_27  and  C_30
REMARK    9  A    between atoms: C_27  and  C_31
REMARK   10  A    between atoms: C_29  and  C_32
REMARK                            x       y       z     vdW  Elec       q    Type
REMARK                         _______ _______ _______ _____ _____    ______ ____
ROOT
ATOM      1  N   UNL     1      -9.418  52.510  48.732  0.00  0.00    +0.000 N 
ATOM      2  C   UNL     1     -10.476  53.235  49.331  0.00  0.00    +0.000 C 
ATOM      3  O   UNL     1     -11.516  52.662  49.686  0.00  0.00    +0.000 OA
ATOM      4  N   UNL     1     -10.333  54.609  49.414  0.00  0.00    +0.000 N 
ATOM      5  H   UNL     1      -8.633  52.995  48.389  0.00  0.00    +0.000 HD
ATOM      6  H   UNL     1      -9.503  55.064  49.142  0.00  0.00    +0.000 HD
ENDROOT
BRANCH   4   7
ATOM      7  C   UNL     1     -11.439  55.316  49.908  0.00  0.00    +0.000 A 
ATOM      8  S   UNL     1     -11.617  55.395  51.606  0.00  0.00    +0.000 S 
ATOM      9  C   UNL     1     -12.413  56.048  49.244  0.00  0.00    +0.000 A 
ATOM     10  C   UNL     1     -12.861  56.572  51.490  0.00  0.00    +0.000 A 
ATOM     11  C   UNL     1     -13.177  56.854  50.172  0.00  0.00    +0.000 A 
ATOM     12  C   UNL     1     -13.537  57.216  52.691  0.00  0.00    +0.000 C 
ATOM     13  C   UNL     1     -14.265  57.826  49.806  0.00  0.00    +0.000 C 
ATOM     14  C   UNL     1     -14.908  57.866  52.289  0.00  0.00    +0.000 C 
ATOM     15  C   UNL     1     -14.720  58.679  50.986  0.00  0.00    +0.000 C 
ATOM     16  C   UNL     1     -15.419  58.848  53.362  0.00  0.00    +0.000 C 
ATOM     17  C   UNL     1     -15.983  56.775  52.110  0.00  0.00    +0.000 C 
BRANCH   9  18
ATOM     18  C   UNL     1     -12.591  55.995  47.793  0.00  0.00    +0.000 C 
ATOM     19  O   UNL     1     -12.979  56.945  47.125  0.00  0.00    +0.000 OA
BRANCH  18  20
ATOM     20  O   UNL     1     -12.277  54.772  47.288  0.00  0.00    +0.000 OA
BRANCH  20  21
ATOM     21  C   UNL     1     -11.570  54.740  46.048  0.00  0.00    +0.000 C 
ATOM     22  C   UNL     1     -11.796  53.410  45.360  0.00  0.00    +0.000 C 
ENDBRANCH  20  21
ENDBRANCH  18  20
ENDBRANCH   9  18
ENDBRANCH   4   7
BRANCH   1  23
ATOM     23  S   UNL     1      -9.479  50.835  48.598  0.00  0.00    +0.000 S 
ATOM     24  O   UNL     1      -9.111  50.306  49.888  0.00  0.00    +0.000 OA
ATOM     25  O   UNL     1     -10.675  50.387  47.926  0.00  0.00    +0.000 OA
BRANCH  23  26
ATOM     26  N   UNL     1      -8.161  50.507  47.553  0.00  0.00    +0.000 NA
ATOM     27  C   UNL     1      -7.546  51.680  46.867  0.00  0.00    +0.000 C 
ATOM     28  C   UNL     1      -8.471  49.455  46.501  0.00  0.00    +0.000 C 
ATOM     29  C   UNL     1      -8.423  52.263  45.756  0.00  0.00    +0.000 C 
ATOM     30  C   UNL     1      -9.355  50.002  45.363  0.00  0.00    +0.000 C 
ATOM     31  N   UNL     1      -8.804  51.237  44.775  0.00  0.00    +0.000 N 
ATOM     32  C   UNL     1      -8.926  51.424  43.409  0.00  0.00    +0.000 C 
ATOM     33  O   UNL     1      -9.284  50.512  42.658  0.00  0.00    +0.000 OA
ATOM     34  C   UNL     1      -8.581  52.761  42.797  0.00  0.00    +0.000 C 
ENDBRANCH  23  26
ENDBRANCH   1  23
TORSDOF 6
ENDMDL
MODEL 3
REMARK VINA RESULT:      -7.4      2.389      4.032
REMARK  Name = 
REMARK  10 active torsions:
REMARK  status: ('A' for Active; 'I' for Inactive)
REMARK    1  A    between atoms: S_1  and  N_4
REMARK    2  A    between atoms: S_1  and  N_5
REMARK    3  A    between atoms: N_12  and  C_14
REMARK    4  A    between atoms: C_15  and  C_19
REMARK    5  A    between atoms: C_17  and  C_22
REMARK    6  A    between atoms: C_22  and  O_26
REMARK    7  A    between atoms: O_26  and  C_29
REMARK    8  A    between atoms: C_27  and  C_30
REMARK    9  A    between atoms: C_27  and  C_31
REMARK   10  A    between atoms: C_29  and  C_32
REMARK                            x       y       z     vdW  Elec       q    Type
REMARK                         _______ _______ _______ _____ _____    ______ ____
ROOT
ATOM      1  N   UNL     1      -8.225  53.519  49.427  0.00  0.00    +0.000 N 
ATOM      2  C   UNL     1      -9.255  54.445  49.720  0.00  0.00    +0.000 C 
ATOM      3  O   UNL     1      -8.992  55.553  50.205  0.00  0.00    +0.000 OA
ATOM      4  N   UNL     1     -10.558  54.020  49.528  0.00  0.00    +0.000 N 
ATOM      5  H   UNL     1      -8.461  52.616  49.114  0.00  0.00    +0.000 HD
ATOM      6  H   UNL     1     -10.768  53.143  49.133  0.00  0.00    +0.000 HD
ENDROOT
BRANCH   4   7
ATOM      7  C   UNL     1     -11.564  54.912  49.930  0.00  0.00    +0.000 A 
ATOM      8  S   UNL     1     -11.974  54.927  51.590  0.00  0.00    +0.000 S 
ATOM      9  C   UNL     1     -12.263  55.869  49.209  0.00  0.00    +0.000 A 
ATOM     10  C   UNL     1     -12.929  56.342  51.412  0.00  0.00    +0.000 A 
ATOM     11  C   UNL     1     -12.982  56.760  50.094  0.00  0.00    +0.000 A 
ATOM     12  C   UNL     1     -13.634  57.041  52.564  0.00  0.00    +0.000 C 
ATOM     13  C   UNL     1     -13.790  57.957  49.672  0.00  0.00    +0.000 C 
ATOM     14  C   UNL     1     -14.774  57.985  52.040  0.00  0.00    +0.000 C 
ATOM     15  C   UNL     1     -14.237  58.816  50.851  0.00  0.00    +0.000 C 
ATOM     16  C   UNL     1     -15.235  58.987  53.118  0.00  0.00    +0.000 C 
ATOM     17  C   UNL     1     -16.005  57.154  51.624  0.00  0.00    +0.000 C 
BRANCH   9  18
ATOM     18  C   UNL     1     -12.231  55.939  47.748  0.00  0.00    +0.000 C 
ATOM     19  O   UNL     1     -13.153  56.378  47.072  0.00  0.00    +0.000 OA
BRANCH  18  20
ATOM     20  O   UNL     1     -11.063  55.460  47.243  0.00  0.00    +0.000 OA
BRANCH  20  21
ATOM     21  C   UNL     1     -11.134  54.720  46.024  0.00  0.00    +0.000 C 
ATOM     22  C   UNL     1     -11.703  53.342  46.290  0.00  0.00    +0.000 C 
ENDBRANCH  20  21
ENDBRANCH  18  20
ENDBRANCH   9  18
ENDBRANCH   4   7
BRANCH   1  23
ATOM     23  S   UNL     1      -6.606  53.936  49.606  0.00  0.00    +0.000 S 
ATOM     24  O   UNL     1      -6.497  55.326  49.234  0.00  0.00    +0.000 OA
ATOM     25  O   UNL     1      -6.055  53.457  50.850  0.00  0.00    +0.000 OA
BRANCH  23  26
ATOM     26  N   UNL     1      -5.860  53.045  48.346  0.00  0.00    +0.000 NA
ATOM     27  C   UNL     1      -5.733  53.732  47.029  0.00  0.00    +0.000 C 
ATOM     28  C   UNL     1      -6.497  51.685  48.110  0.00  0.00    +0.000 C 
ATOM     29  C   UNL     1      -7.064  53.876  46.286  0.00  0.00    +0.000 C 
ATOM     30  C   UNL     1      -7.843  51.786  47.365  0.00  0.00    +0.000 C 
ATOM     31  N   UNL     1      -7.735  52.578  46.125  0.00  0.00    +0.000 N 
ATOM     32  C   UNL     1      -8.466  52.173  45.023  0.00  0.00    +0.000 C 
ATOM     33  O   UNL     1      -9.026  51.073  44.983  0.00  0.00    +0.000 OA
ATOM     34  C   UNL     1      -8.563  53.070  43.811  0.00  0.00    +0.000 C 
ENDBRANCH  23  26
ENDBRANCH   1  23
TORSDOF 6
ENDMDL
MODEL 4
REMARK VINA RESULT:      -7.4      2.245      2.746
REMARK  Name = 
REMARK  10 active torsions:
REMARK  status: ('A' for Active; 'I' for Inactive)
REMARK    1  A    between atoms: S_1  and  N_4
REMARK    2  A    between atoms: S_1  and  N_5
REMARK    3  A    between atoms: N_12  and  C_14
REMARK    4  A    between atoms: C_15  and  C_19
REMARK    5  A    between atoms: C_17  and  C_22
REMARK    6  A    between atoms: C_22  and  O_26
REMARK    7  A    between atoms: O_26  and  C_29
REMARK    8  A    between atoms: C_27  and  C_30
REMARK    9  A    between atoms: C_27  and  C_31
REMARK   10  A    between atoms: C_29  and  C_32
REMARK                            x       y       z     vdW  Elec       q    Type
REMARK                         _______ _______ _______ _____ _____    ______ ____
ROOT
ATOM      1  N   UNL     1      -7.445  53.739  51.118  0.00  0.00    +0.000 N 
ATOM      2  C   UNL     1      -8.571  54.594  51.059  0.00  0.00    +0.000 C 
ATOM      3  O   UNL     1      -8.539  55.721  51.571  0.00  0.00    +0.000 OA
ATOM      4  N   UNL     1      -9.724  54.080  50.493  0.00  0.00    +0.000 N 
ATOM      5  H   UNL     1      -7.516  52.820  50.773  0.00  0.00    +0.000 HD
ATOM      6  H   UNL     1      -9.748  53.188  50.076  0.00  0.00    +0.000 HD
ENDROOT
BRANCH   4   7
ATOM      7  C   UNL     1     -10.858  54.904  50.546  0.00  0.00    +0.000 A 
ATOM      8  S   UNL     1     -11.654  55.037  52.053  0.00  0.00    +0.000 S 
ATOM      9  C   UNL     1     -11.432  55.715  49.577  0.00  0.00    +0.000 A 
ATOM     10  C   UNL     1     -12.638  56.329  51.497  0.00  0.00    +0.000 A 
ATOM     11  C   UNL     1     -12.404  56.612  50.162  0.00  0.00    +0.000 A 
ATOM     12  C   UNL     1     -13.648  57.063  52.366  0.00  0.00    +0.000 C 
ATOM     13  C   UNL     1     -13.171  57.679  49.431  0.00  0.00    +0.000 C 
ATOM     14  C   UNL     1     -14.694  57.837  51.489  0.00  0.00    +0.000 C 
ATOM     15  C   UNL     1     -13.949  58.599  50.367  0.00  0.00    +0.000 C 
ATOM     16  C   UNL     1     -15.471  58.888  52.307  0.00  0.00    +0.000 C 
ATOM     17  C   UNL     1     -15.726  56.854  50.898  0.00  0.00    +0.000 C 
BRANCH   9  18
ATOM     18  C   UNL     1     -11.055  55.648  48.164  0.00  0.00    +0.000 C 
ATOM     19  O   UNL     1     -11.853  55.424  47.262  0.00  0.00    +0.000 OA
BRANCH  18  20
ATOM     20  O   UNL     1      -9.724  55.863  47.984  0.00  0.00    +0.000 OA
BRANCH  20  21
ATOM     21  C   UNL     1      -9.111  55.242  46.854  0.00  0.00    +0.000 C 
ATOM     22  C   UNL     1      -7.740  54.721  47.234  0.00  0.00    +0.000 C 
ENDBRANCH  20  21
ENDBRANCH  18  20
ENDBRANCH   9  18
ENDBRANCH   4   7
BRANCH   1  23
ATOM     23  S   UNL     1      -5.987  54.267  51.769  0.00  0.00    +0.000 S 
ATOM     24  O   UNL     1      -5.106  54.517  50.653  0.00  0.00    +0.000 OA
ATOM     25  O   UNL     1      -6.178  55.260  52.798  0.00  0.00    +0.000 OA
BRANCH  23  26
ATOM     26  N   UNL     1      -5.397  52.852  52.535  0.00  0.00    +0.000 NA
ATOM     27  C   UNL     1      -5.914  51.551  52.021  0.00  0.00    +0.000 C 
ATOM     28  C   UNL     1      -5.571  52.865  54.045  0.00  0.00    +0.000 C 
ATOM     29  C   UNL     1      -7.372  51.282  52.403  0.00  0.00    +0.000 C 
ATOM     30  C   UNL     1      -7.029  52.600  54.472  0.00  0.00    +0.000 C 
ATOM     31  N   UNL     1      -7.576  51.377  53.855  0.00  0.00    +0.000 N 
ATOM     32  C   UNL     1      -8.420  50.583  54.611  0.00  0.00    +0.000 C 
ATOM     33  O   UNL     1      -8.557  50.752  55.826  0.00  0.00    +0.000 OA
ATOM     34  C   UNL     1      -9.177  49.451  53.957  0.00  0.00    +0.000 C 
ENDBRANCH  23  26
ENDBRANCH   1  23
TORSDOF 6
ENDMDL
MODEL 5
REMARK VINA RESULT:      -7.3      2.724      6.024
REMARK  Name = 
REMARK  10 active torsions:
REMARK  status: ('A' for Active; 'I' for Inactive)
REMARK    1  A    between atoms: S_1  and  N_4
REMARK    2  A    between atoms: S_1  and  N_5
REMARK    3  A    between atoms: N_12  and  C_14
REMARK    4  A    between atoms: C_15  and  C_19
REMARK    5  A    between atoms: C_17  and  C_22
REMARK    6  A    between atoms: C_22  and  O_26
REMARK    7  A    between atoms: O_26  and  C_29
REMARK    8  A    between atoms: C_27  and  C_30
REMARK    9  A    between atoms: C_27  and  C_31
REMARK   10  A    between atoms: C_29  and  C_32
REMARK                            x       y       z     vdW  Elec       q    Type
REMARK                         _______ _______ _______ _____ _____    ______ ____
ROOT
ATOM      1  N   UNL     1      -8.475  55.642  50.718  0.00  0.00    +0.000 N 
ATOM      2  C   UNL     1      -8.881  54.955  49.549  0.00  0.00    +0.000 C 
ATOM      3  O   UNL     1      -9.262  53.778  49.605  0.00  0.00    +0.000 OA
ATOM      4  N   UNL     1      -8.744  55.624  48.345  0.00  0.00    +0.000 N 
ATOM      5  H   UNL     1      -8.104  56.551  50.642  0.00  0.00    +0.000 HD
ATOM      6  H   UNL     1      -8.452  56.563  48.300  0.00  0.00    +0.000 HD
ENDROOT
BRANCH   4   7
ATOM      7  C   UNL     1      -9.047  54.886  47.191  0.00  0.00    +0.000 A 
ATOM      8  S   UNL     1      -7.749  54.097  46.408  0.00  0.00    +0.000 S 
ATOM      9  C   UNL     1     -10.267  54.613  46.588  0.00  0.00    +0.000 A 
ATOM     10  C   UNL     1      -8.810  53.216  45.386  0.00  0.00    +0.000 A 
ATOM     11  C   UNL     1     -10.132  53.565  45.599  0.00  0.00    +0.000 A 
ATOM     12  C   UNL     1      -8.347  52.186  44.367  0.00  0.00    +0.000 C 
ATOM     13  C   UNL     1     -11.252  52.960  44.798  0.00  0.00    +0.000 C 
ATOM     14  C   UNL     1      -9.458  51.913  43.293  0.00  0.00    +0.000 C 
ATOM     15  C   UNL     1     -10.818  51.730  44.007  0.00  0.00    +0.000 C 
ATOM     16  C   UNL     1      -9.189  50.619  42.498  0.00  0.00    +0.000 C 
ATOM     17  C   UNL     1      -9.517  53.075  42.280  0.00  0.00    +0.000 C 
BRANCH   9  18
ATOM     18  C   UNL     1     -11.503  55.307  46.951  0.00  0.00    +0.000 C 
ATOM     19  O   UNL     1     -12.007  56.191  46.270  0.00  0.00    +0.000 OA
BRANCH  18  20
ATOM     20  O   UNL     1     -12.012  54.851  48.127  0.00  0.00    +0.000 OA
BRANCH  20  21
ATOM     21  C   UNL     1     -12.854  55.741  48.861  0.00  0.00    +0.000 C 
ATOM     22  C   UNL     1     -12.204  56.092  50.183  0.00  0.00    +0.000 C 
ENDBRANCH  20  21
ENDBRANCH  18  20
ENDBRANCH   9  18
ENDBRANCH   4   7
BRANCH   1  23
ATOM     23  S   UNL     1      -8.615  54.931  52.236  0.00  0.00    +0.000 S 
ATOM     24  O   UNL     1      -7.626  55.560  53.077  0.00  0.00    +0.000 OA
ATOM     25  O   UNL     1      -9.990  54.825  52.661  0.00  0.00    +0.000 OA
BRANCH  23  26
ATOM     26  N   UNL     1      -8.053  53.338  51.944  0.00  0.00    +0.000 NA
ATOM     27  C   UNL     1      -8.991  52.229  52.281  0.00  0.00    +0.000 C 
ATOM     28  C   UNL     1      -6.715  53.040  52.600  0.00  0.00    +0.000 C 
ATOM     29  C   UNL     1      -9.160  52.011  53.787  0.00  0.00    +0.000 C 
ATOM     30  C   UNL     1      -6.841  52.816  54.120  0.00  0.00    +0.000 C 
ATOM     31  N   UNL     1      -7.865  51.807  54.451  0.00  0.00    +0.000 N 
ATOM     32  C   UNL     1      -7.619  50.945  55.505  0.00  0.00    +0.000 C 
ATOM     33  O   UNL     1      -6.504  50.858  56.027  0.00  0.00    +0.000 OA
ATOM     34  C   UNL     1      -8.722  50.050  56.021  0.00  0.00    +0.000 C 
ENDBRANCH  23  26
ENDBRANCH   1  23
TORSDOF 6
ENDMDL
MODEL 6
REMARK VINA RESULT:      -7.1      2.848      6.080
REMARK  Name = 
REMARK  10 active torsions:
REMARK  status: ('A' for Active; 'I' for Inactive)
REMARK    1  A    between atoms: S_1  and  N_4
REMARK    2  A    between atoms: S_1  and  N_5
REMARK    3  A    between atoms: N_12  and  C_14
REMARK    4  A    between atoms: C_15  and  C_19
REMARK    5  A    between atoms: C_17  and  C_22
REMARK    6  A    between atoms: C_22  and  O_26
REMARK    7  A    between atoms: O_26  and  C_29
REMARK    8  A    between atoms: C_27  and  C_30
REMARK    9  A    between atoms: C_27  and  C_31
REMARK   10  A    between atoms: C_29  and  C_32
REMARK                            x       y       z     vdW  Elec       q    Type
REMARK                         _______ _______ _______ _____ _____    ______ ____
ROOT
ATOM      1  N   UNL     1      -5.822  55.040  50.861  0.00  0.00    +0.000 N 
ATOM      2  C   UNL     1      -6.606  54.405  49.868  0.00  0.00    +0.000 C 
ATOM      3  O   UNL     1      -6.762  53.176  49.874  0.00  0.00    +0.000 OA
ATOM      4  N   UNL     1      -7.105  55.201  48.852  0.00  0.00    +0.000 N 
ATOM      5  H   UNL     1      -5.648  56.007  50.794  0.00  0.00    +0.000 HD
ATOM      6  H   UNL     1      -6.990  56.179  48.852  0.00  0.00    +0.000 HD
ENDROOT
BRANCH   4   7
ATOM      7  C   UNL     1      -7.783  54.534  47.821  0.00  0.00    +0.000 A 
ATOM      8  S   UNL     1      -6.828  53.764  46.631  0.00  0.00    +0.000 S 
ATOM      9  C   UNL     1      -9.140  54.319  47.624  0.00  0.00    +0.000 A 
ATOM     10  C   UNL     1      -8.188  52.962  45.959  0.00  0.00    +0.000 A 
ATOM     11  C   UNL     1      -9.362  53.325  46.597  0.00  0.00    +0.000 A 
ATOM     12  C   UNL     1      -8.109  51.981  44.800  0.00  0.00    +0.000 C 
ATOM     13  C   UNL     1     -10.699  52.787  46.165  0.00  0.00    +0.000 C 
ATOM     14  C   UNL     1      -9.512  51.790  44.123  0.00  0.00    +0.000 C 
ATOM     15  C   UNL     1     -10.582  51.594  45.222  0.00  0.00    +0.000 C 
ATOM     16  C   UNL     1      -9.555  50.536  43.225  0.00  0.00    +0.000 C 
ATOM     17  C   UNL     1      -9.846  53.006  43.235  0.00  0.00    +0.000 C 
BRANCH   9  18
ATOM     18  C   UNL     1     -10.171  55.016  48.393  0.00  0.00    +0.000 C 
ATOM     19  O   UNL     1     -10.956  55.817  47.900  0.00  0.00    +0.000 OA
BRANCH  18  20
ATOM     20  O   UNL     1     -10.147  54.667  49.707  0.00  0.00    +0.000 OA
BRANCH  20  21
ATOM     21  C   UNL     1     -10.256  55.721  50.664  0.00  0.00    +0.000 C 
ATOM     22  C   UNL     1     -11.334  55.389  51.675  0.00  0.00    +0.000 C 
ENDBRANCH  20  21
ENDBRANCH  18  20
ENDBRANCH   9  18
ENDBRANCH   4   7
BRANCH   1  23
ATOM     23  S   UNL     1      -5.183  54.171  52.151  0.00  0.00    +0.000 S 
ATOM     24  O   UNL     1      -5.467  52.781  51.891  0.00  0.00    +0.000 OA
ATOM     25  O   UNL     1      -3.849  54.604  52.490  0.00  0.00    +0.000 OA
BRANCH  23  26
ATOM     26  N   UNL     1      -6.208  54.634  53.444  0.00  0.00    +0.000 NA
ATOM     27  C   UNL     1      -6.087  53.847  54.705  0.00  0.00    +0.000 C 
ATOM     28  C   UNL     1      -7.678  54.688  53.061  0.00  0.00    +0.000 C 
ATOM     29  C   UNL     1      -6.675  52.437  54.600  0.00  0.00    +0.000 C 
ATOM     30  C   UNL     1      -8.308  53.286  52.943  0.00  0.00    +0.000 C 
ATOM     31  N   UNL     1      -8.072  52.467  54.146  0.00  0.00    +0.000 N 
ATOM     32  C   UNL     1      -9.084  51.628  54.576  0.00  0.00    +0.000 C 
ATOM     33  O   UNL     1     -10.228  51.700  54.117  0.00  0.00    +0.000 OA
ATOM     34  C   UNL     1      -8.812  50.612  55.662  0.00  0.00    +0.000 C 
ENDBRANCH  23  26
ENDBRANCH   1  23
TORSDOF 6
ENDMDL
MODEL 7
REMARK VINA RESULT:      -6.8      2.366      6.020
REMARK  Name = 
REMARK  10 active torsions:
REMARK  status: ('A' for Active; 'I' for Inactive)
REMARK    1  A    between atoms: S_1  and  N_4
REMARK    2  A    between atoms: S_1  and  N_5
REMARK    3  A    between atoms: N_12  and  C_14
REMARK    4  A    between atoms: C_15  and  C_19
REMARK    5  A    between atoms: C_17  and  C_22
REMARK    6  A    between atoms: C_22  and  O_26
REMARK    7  A    between atoms: O_26  and  C_29
REMARK    8  A    between atoms: C_27  and  C_30
REMARK    9  A    between atoms: C_27  and  C_31
REMARK   10  A    between atoms: C_29  and  C_32
REMARK                            x       y       z     vdW  Elec       q    Type
REMARK                         _______ _______ _______ _____ _____    ______ ____
ROOT
ATOM      1  N   UNL     1      -9.384  55.236  51.054  0.00  0.00    +0.000 N 
ATOM      2  C   UNL     1      -9.630  54.622  49.803  0.00  0.00    +0.000 C 
ATOM      3  O   UNL     1     -10.102  53.478  49.740  0.00  0.00    +0.000 OA
ATOM      4  N   UNL     1      -9.237  55.315  48.671  0.00  0.00    +0.000 N 
ATOM      5  H   UNL     1      -8.938  56.114  51.083  0.00  0.00    +0.000 HD
ATOM      6  H   UNL     1      -8.872  56.228  48.719  0.00  0.00    +0.000 HD
ENDROOT
BRANCH   4   7
ATOM      7  C   UNL     1      -9.389  54.641  47.450  0.00  0.00    +0.000 A 
ATOM      8  S   UNL     1      -8.048  53.747  46.882  0.00  0.00    +0.000 S 
ATOM      9  C   UNL     1     -10.496  54.507  46.625  0.00  0.00    +0.000 A 
ATOM     10  C   UNL     1      -8.979  53.003  45.647  0.00  0.00    +0.000 A 
ATOM     11  C   UNL     1     -10.279  53.476  45.632  0.00  0.00    +0.000 A 
ATOM     12  C   UNL     1      -8.434  51.958  44.685  0.00  0.00    +0.000 C 
ATOM     13  C   UNL     1     -11.284  53.007  44.615  0.00  0.00    +0.000 C 
ATOM     14  C   UNL     1      -9.348  51.825  43.417  0.00  0.00    +0.000 C 
ATOM     15  C   UNL     1     -10.828  51.760  43.863  0.00  0.00    +0.000 C 
ATOM     16  C   UNL     1      -9.059  50.532  42.628  0.00  0.00    +0.000 C 
ATOM     17  C   UNL     1      -9.111  53.013  42.461  0.00  0.00    +0.000 C 
BRANCH   9  18
ATOM     18  C   UNL     1     -11.708  55.310  46.788  0.00  0.00    +0.000 C 
ATOM     19  O   UNL     1     -12.099  56.121  45.957  0.00  0.00    +0.000 OA
BRANCH  18  20
ATOM     20  O   UNL     1     -12.336  55.047  47.965  0.00  0.00    +0.000 OA
BRANCH  20  21
ATOM     21  C   UNL     1     -13.201  56.058  48.483  0.00  0.00    +0.000 C 
ATOM     22  C   UNL     1     -12.456  56.906  49.493  0.00  0.00    +0.000 C 
ENDBRANCH  20  21
ENDBRANCH  18  20
ENDBRANCH   9  18
ENDBRANCH   4   7
BRANCH   1  23
ATOM     23  S   UNL     1      -9.838  54.491  52.491  0.00  0.00    +0.000 S 
ATOM     24  O   UNL     1     -10.934  55.263  53.025  0.00  0.00    +0.000 OA
ATOM     25  O   UNL     1      -9.939  53.059  52.353  0.00  0.00    +0.000 OA
BRANCH  23  26
ATOM     26  N   UNL     1      -8.492  54.807  53.505  0.00  0.00    +0.000 NA
ATOM     27  C   UNL     1      -7.349  55.539  52.886  0.00  0.00    +0.000 C 
ATOM     28  C   UNL     1      -7.943  53.564  54.186  0.00  0.00    +0.000 C 
ATOM     29  C   UNL     1      -6.545  54.688  51.900  0.00  0.00    +0.000 C 
ATOM     30  C   UNL     1      -7.127  52.678  53.224  0.00  0.00    +0.000 C 
ATOM     31  N   UNL     1      -6.079  53.439  52.519  0.00  0.00    +0.000 N 
ATOM     32  C   UNL     1      -4.864  52.821  52.287  0.00  0.00    +0.000 C 
ATOM     33  O   UNL     1      -4.565  51.751  52.827  0.00  0.00    +0.000 OA
ATOM     34  C   UNL     1      -3.847  53.473  51.379  0.00  0.00    +0.000 C 
ENDBRANCH  23  26
ENDBRANCH   1  23
TORSDOF 6
ENDMDL
MODEL 8
REMARK VINA RESULT:      -6.6      3.313      8.704
REMARK  Name = 
REMARK  10 active torsions:
REMARK  status: ('A' for Active; 'I' for Inactive)
REMARK    1  A    between atoms: S_1  and  N_4
REMARK    2  A    between atoms: S_1  and  N_5
REMARK    3  A    between atoms: N_12  and  C_14
REMARK    4  A    between atoms: C_15  and  C_19
REMARK    5  A    between atoms: C_17  and  C_22
REMARK    6  A    between atoms: C_22  and  O_26
REMARK    7  A    between atoms: O_26  and  C_29
REMARK    8  A    between atoms: C_27  and  C_30
REMARK    9  A    between atoms: C_27  and  C_31
REMARK   10  A    between atoms: C_29  and  C_32
REMARK                            x       y       z     vdW  Elec       q    Type
REMARK                         _______ _______ _______ _____ _____    ______ ____
ROOT
ATOM      1  N   UNL     1     -11.200  55.403  50.129  0.00  0.00    +0.000 N 
ATOM      2  C   UNL     1     -10.973  54.419  49.137  0.00  0.00    +0.000 C 
ATOM      3  O   UNL     1     -11.606  53.354  49.144  0.00  0.00    +0.000 OA
ATOM      4  N   UNL     1      -9.958  54.661  48.228  0.00  0.00    +0.000 N 
ATOM      5  H   UNL     1     -10.634  56.208  50.150  0.00  0.00    +0.000 HD
ATOM      6  H   UNL     1      -9.462  55.511  48.215  0.00  0.00    +0.000 HD
ENDROOT
BRANCH   4   7
ATOM      7  C   UNL     1      -9.677  53.625  47.326  0.00  0.00    +0.000 A 
ATOM      8  S   UNL     1     -10.573  53.595  45.870  0.00  0.00    +0.000 S 
ATOM      9  C   UNL     1      -8.720  52.621  47.373  0.00  0.00    +0.000 A 
ATOM     10  C   UNL     1      -9.563  52.384  45.193  0.00  0.00    +0.000 A 
ATOM     11  C   UNL     1      -8.595  51.965  46.089  0.00  0.00    +0.000 A 
ATOM     12  C   UNL     1      -9.723  51.835  43.783  0.00  0.00    +0.000 C 
ATOM     13  C   UNL     1      -7.611  50.881  45.746  0.00  0.00    +0.000 C 
ATOM     14  C   UNL     1      -8.991  50.456  43.626  0.00  0.00    +0.000 C 
ATOM     15  C   UNL     1      -7.582  50.556  44.255  0.00  0.00    +0.000 C 
ATOM     16  C   UNL     1      -8.796  50.069  42.146  0.00  0.00    +0.000 C 
ATOM     17  C   UNL     1      -9.815  49.335  44.292  0.00  0.00    +0.000 C 
BRANCH   9  18
ATOM     18  C   UNL     1      -7.950  52.317  48.579  0.00  0.00    +0.000 C 
ATOM     19  O   UNL     1      -7.897  51.202  49.083  0.00  0.00    +0.000 OA
BRANCH  18  20
ATOM     20  O   UNL     1      -7.313  53.416  49.064  0.00  0.00    +0.000 OA
BRANCH  20  21
ATOM     21  C   UNL     1      -6.143  53.851  48.368  0.00  0.00    +0.000 C 
ATOM     22  C   UNL     1      -5.446  54.935  49.163  0.00  0.00    +0.000 C 
ENDBRANCH  20  21
ENDBRANCH  18  20
ENDBRANCH   9  18
ENDBRANCH   4   7
BRANCH   1  23
ATOM     23  S   UNL     1     -12.420  55.220  51.271  0.00  0.00    +0.000 S 
ATOM     24  O   UNL     1     -12.467  53.816  51.601  0.00  0.00    +0.000 OA
ATOM     25  O   UNL     1     -12.350  56.223  52.307  0.00  0.00    +0.000 OA
BRANCH  23  26
ATOM     26  N   UNL     1     -13.831  55.542  50.351  0.00  0.00    +0.000 NA
ATOM     27  C   UNL     1     -13.650  56.364  49.120  0.00  0.00    +0.000 C 
ATOM     28  C   UNL     1     -14.957  56.155  51.167  0.00  0.00    +0.000 C 
ATOM     29  C   UNL     1     -13.370  57.841  49.411  0.00  0.00    +0.000 C 
ATOM     30  C   UNL     1     -14.712  57.643  51.483  0.00  0.00    +0.000 C 
ATOM     31  N   UNL     1     -14.407  58.427  50.272  0.00  0.00    +0.000 N 
ATOM     32  C   UNL     1     -14.908  59.713  50.180  0.00  0.00    +0.000 C 
ATOM     33  O   UNL     1     -15.759  60.138  50.967  0.00  0.00    +0.000 OA
ATOM     34  C   UNL     1     -14.440  60.627  49.071  0.00  0.00    +0.000 C 
ENDBRANCH  23  26
ENDBRANCH   1  23
TORSDOF 6
ENDMDL
MODEL 9
REMARK VINA RESULT:      -6.6      4.436      6.832
REMARK  Name = 
REMARK  10 active torsions:
REMARK  status: ('A' for Active; 'I' for Inactive)
REMARK    1  A    between atoms: S_1  and  N_4
REMARK    2  A    between atoms: S_1  and  N_5
REMARK    3  A    between atoms: N_12  and  C_14
REMARK    4  A    between atoms: C_15  and  C_19
REMARK    5  A    between atoms: C_17  and  C_22
REMARK    6  A    between atoms: C_22  and  O_26
REMARK    7  A    between atoms: O_26  and  C_29
REMARK    8  A    between atoms: C_27  and  C_30
REMARK    9  A    between atoms: C_27  and  C_31
REMARK   10  A    between atoms: C_29  and  C_32
REMARK                            x       y       z     vdW  Elec       q    Type
REMARK                         _______ _______ _______ _____ _____    ______ ____
ROOT
ATOM      1  N   UNL     1      -6.717  56.073  50.153  0.00  0.00    +0.000 N 
ATOM      2  C   UNL     1      -7.332  55.231  49.196  0.00  0.00    +0.000 C 
ATOM      3  O   UNL     1      -8.458  54.757  49.400  0.00  0.00    +0.000 OA
ATOM      4  N   UNL     1      -6.586  54.893  48.081  0.00  0.00    +0.000 N 
ATOM      5  H   UNL     1      -5.792  56.378  50.006  0.00  0.00    +0.000 HD
ATOM      6  H   UNL     1      -5.696  55.277  47.912  0.00  0.00    +0.000 HD
ENDROOT
BRANCH   4   7
ATOM      7  C   UNL     1      -7.173  53.969  47.203  0.00  0.00    +0.000 A 
ATOM      8  S   UNL     1      -8.080  54.602  45.900  0.00  0.00    +0.000 S 
ATOM      9  C   UNL     1      -7.090  52.585  47.161  0.00  0.00    +0.000 A 
ATOM     10  C   UNL     1      -8.198  53.065  45.145  0.00  0.00    +0.000 A 
ATOM     11  C   UNL     1      -7.606  52.074  45.909  0.00  0.00    +0.000 A 
ATOM     12  C   UNL     1      -8.879  52.825  43.806  0.00  0.00    +0.000 C 
ATOM     13  C   UNL     1      -7.612  50.631  45.481  0.00  0.00    +0.000 C 
ATOM     14  C   UNL     1      -9.235  51.309  43.615  0.00  0.00    +0.000 C 
ATOM     15  C   UNL     1      -8.018  50.447  44.022  0.00  0.00    +0.000 C 
ATOM     16  C   UNL     1      -9.555  50.970  42.145  0.00  0.00    +0.000 C 
ATOM     17  C   UNL     1     -10.477  50.943  44.455  0.00  0.00    +0.000 C 
BRANCH   9  18
ATOM     18  C   UNL     1      -6.528  51.792  48.254  0.00  0.00    +0.000 C 
ATOM     19  O   UNL     1      -5.431  52.011  48.753  0.00  0.00    +0.000 OA
BRANCH  18  20
ATOM     20  O   UNL     1      -7.367  50.793  48.638  0.00  0.00    +0.000 OA
BRANCH  20  21
ATOM     21  C   UNL     1      -8.574  51.173  49.301  0.00  0.00    +0.000 C 
ATOM     22  C   UNL     1      -9.751  50.451  48.679  0.00  0.00    +0.000 C 
ENDBRANCH  20  21
ENDBRANCH  18  20
ENDBRANCH   9  18
ENDBRANCH   4   7
BRANCH   1  23
ATOM     23  S   UNL     1      -7.538  56.563  51.536  0.00  0.00    +0.000 S 
ATOM     24  O   UNL     1      -7.193  57.947  51.751  0.00  0.00    +0.000 OA
ATOM     25  O   UNL     1      -8.916  56.135  51.529  0.00  0.00    +0.000 OA
BRANCH  23  26
ATOM     26  N   UNL     1      -6.740  55.674  52.766  0.00  0.00    +0.000 NA
ATOM     27  C   UNL     1      -6.114  54.384  52.356  0.00  0.00    +0.000 C 
ATOM     28  C   UNL     1      -7.611  55.411  53.983  0.00  0.00    +0.000 C 
ATOM     29  C   UNL     1      -7.133  53.279  52.068  0.00  0.00    +0.000 C 
ATOM     30  C   UNL     1      -8.654  54.304  53.732  0.00  0.00    +0.000 C 
ATOM     31  N   UNL     1      -8.041  53.071  53.205  0.00  0.00    +0.000 N 
ATOM     32  C   UNL     1      -8.543  51.854  53.632  0.00  0.00    +0.000 C 
ATOM     33  O   UNL     1      -9.329  51.772  54.581  0.00  0.00    +0.000 OA
ATOM     34  C   UNL     1      -8.102  50.577  52.956  0.00  0.00    +0.000 C 
ENDBRANCH  23  26
ENDBRANCH   1  23
TORSDOF 6
ENDMDL
