MODEL 1
REMARK VINA RESULT:      -7.9      0.000      0.000
REMARK  Name = 
REMARK  9 active torsions:
REMARK  status: ('A' for Active; 'I' for Inactive)
REMARK    1  A    between atoms: S_1  and  N_4
REMARK    2  A    between atoms: S_1  and  C_5
REMARK    3  A    between atoms: N_10  and  C_13
REMARK    4  A    between atoms: C_16  and  C_19
REMARK    5  A    between atoms: C_19  and  O_23
REMARK    6  A    between atoms: O_23  and  C_26
REMARK    7  A    between atoms: C_24  and  C_27
REMARK    8  A    between atoms: C_24  and  C_28
REMARK    9  A    between atoms: C_26  and  C_29
REMARK                            x       y       z     vdW  Elec       q    Type
REMARK                         _______ _______ _______ _____ _____    ______ ____
ROOT
ATOM      1  C   UNL     1     -10.975  54.428  51.526  0.00  0.00    +0.000 A 
ATOM      2  S   UNL     1     -10.538  53.833  53.058  0.00  0.00    +0.000 S 
ATOM      3  C   UNL     1      -9.901  54.925  50.810  0.00  0.00    +0.000 A 
ATOM      4  C   UNL     1      -8.875  53.982  52.693  0.00  0.00    +0.000 A 
ATOM      5  C   UNL     1      -8.665  54.559  51.453  0.00  0.00    +0.000 A 
ATOM      6  C   UNL     1      -7.783  53.538  53.636  0.00  0.00    +0.000 C 
ATOM      7  C   UNL     1      -7.289  54.851  50.929  0.00  0.00    +0.000 C 
ATOM      8  C   UNL     1      -6.416  54.195  53.264  0.00  0.00    +0.000 C 
ATOM      9  C   UNL     1      -6.205  54.120  51.728  0.00  0.00    +0.000 C 
ATOM     10  C   UNL     1      -5.250  53.446  53.937  0.00  0.00    +0.000 C 
ATOM     11  C   UNL     1      -6.379  55.657  53.756  0.00  0.00    +0.000 C 
ENDROOT
BRANCH   1  15
ATOM     12  N   UNL     1     -14.473  55.203  51.175  0.00  0.00    +0.000 N 
ATOM     13  C   UNL     1     -13.149  55.365  51.560  0.00  0.00    +0.000 C 
ATOM     14  O   UNL     1     -12.773  56.385  52.119  0.00  0.00    +0.000 OA
ATOM     15  N   UNL     1     -12.319  54.322  51.198  0.00  0.00    +0.000 N 
ATOM     16  H   UNL     1     -14.758  54.334  50.811  0.00  0.00    +0.000 HD
ATOM     17  H   UNL     1     -12.668  53.531  50.726  0.00  0.00    +0.000 HD
BRANCH  12  18
ATOM     18  S   UNL     1     -15.603  56.432  51.310  0.00  0.00    +0.000 S 
ATOM     19  O   UNL     1     -15.762  56.754  52.714  0.00  0.00    +0.000 OA
ATOM     20  O   UNL     1     -16.747  56.004  50.533  0.00  0.00    +0.000 OA
BRANCH  18  21
ATOM     21  C   UNL     1     -14.856  57.837  50.473  0.00  0.00    +0.000 A 
ATOM     22  N   UNL     1     -14.347  57.563  49.232  0.00  0.00    +0.000 NA
ATOM     23  C   UNL     1     -14.841  59.091  51.071  0.00  0.00    +0.000 A 
ATOM     24  C   UNL     1     -13.831  58.615  48.565  0.00  0.00    +0.000 A 
ATOM     25  C   UNL     1     -14.278  60.143  50.352  0.00  0.00    +0.000 A 
ATOM     26  C   UNL     1     -13.770  59.905  49.068  0.00  0.00    +0.000 A 
ENDBRANCH  18  21
ENDBRANCH  12  18
ENDBRANCH   1  15
BRANCH   3  27
ATOM     27  C   UNL     1     -10.011  55.768  49.616  0.00  0.00    +0.000 C 
ATOM     28  O   UNL     1      -9.836  56.980  49.624  0.00  0.00    +0.000 OA
BRANCH  27  29
ATOM     29  O   UNL     1     -10.528  55.068  48.563  0.00  0.00    +0.000 OA
BRANCH  29  30
ATOM     30  C   UNL     1     -11.610  55.678  47.851  0.00  0.00    +0.000 C 
ATOM     31  C   UNL     1     -11.718  55.068  46.471  0.00  0.00    +0.000 C 
ENDBRANCH  29  30
ENDBRANCH  27  29
ENDBRANCH   3  27
TORSDOF 6
ENDMDL
MODEL 2
REMARK VINA RESULT:      -7.5      2.804      7.652
REMARK  Name = 
REMARK  9 active torsions:
REMARK  status: ('A' for Active; 'I' for Inactive)
REMARK    1  A    between atoms: S_1  and  N_4
REMARK    2  A    between atoms: S_1  and  C_5
REMARK    3  A    between atoms: N_10  and  C_13
REMARK    4  A    between atoms: C_16  and  C_19
REMARK    5  A    between atoms: C_19  and  O_23
REMARK    6  A    between atoms: O_23  and  C_26
REMARK    7  A    between atoms: C_24  and  C_27
REMARK    8  A    between atoms: C_24  and  C_28
REMARK    9  A    between atoms: C_26  and  C_29
REMARK                            x       y       z     vdW  Elec       q    Type
REMARK                         _______ _______ _______ _____ _____    ______ ____
ROOT
ATOM      1  C   UNL     1     -11.011  54.825  50.135  0.00  0.00    +0.000 A 
ATOM      2  S   UNL     1     -11.658  54.822  51.708  0.00  0.00    +0.000 S 
ATOM      3  C   UNL     1     -11.651  55.707  49.285  0.00  0.00    +0.000 A 
ATOM      4  C   UNL     1     -12.628  56.186  51.360  0.00  0.00    +0.000 A 
ATOM      5  C   UNL     1     -12.519  56.577  50.037  0.00  0.00    +0.000 A 
ATOM      6  C   UNL     1     -13.501  56.859  52.392  0.00  0.00    +0.000 C 
ATOM      7  C   UNL     1     -13.319  57.715  49.472  0.00  0.00    +0.000 C 
ATOM      8  C   UNL     1     -14.590  57.750  51.713  0.00  0.00    +0.000 C 
ATOM      9  C   UNL     1     -13.943  58.579  50.571  0.00  0.00    +0.000 C 
ATOM     10  C   UNL     1     -15.195  58.739  52.728  0.00  0.00    +0.000 C 
ATOM     11  C   UNL     1     -15.737  56.871  51.176  0.00  0.00    +0.000 C 
ENDROOT
BRANCH   1  15
ATOM     12  N   UNL     1      -7.652  53.540  49.982  0.00  0.00    +0.000 N 
ATOM     13  C   UNL     1      -8.673  54.457  50.189  0.00  0.00    +0.000 C 
ATOM     14  O   UNL     1      -8.440  55.575  50.626  0.00  0.00    +0.000 OA
ATOM     15  N   UNL     1      -9.938  53.971  49.924  0.00  0.00    +0.000 N 
ATOM     16  H   UNL     1      -7.864  52.684  49.545  0.00  0.00    +0.000 HD
ATOM     17  H   UNL     1     -10.074  53.052  49.596  0.00  0.00    +0.000 HD
BRANCH  12  18
ATOM     18  S   UNL     1      -6.071  53.837  50.450  0.00  0.00    +0.000 S 
ATOM     19  O   UNL     1      -5.707  55.169  50.011  0.00  0.00    +0.000 OA
ATOM     20  O   UNL     1      -5.304  52.694  50.001  0.00  0.00    +0.000 OA
BRANCH  18  21
ATOM     21  C   UNL     1      -6.110  53.809  52.248  0.00  0.00    +0.000 A 
ATOM     22  N   UNL     1      -5.385  54.800  52.853  0.00  0.00    +0.000 NA
ATOM     23  C   UNL     1      -6.852  52.849  52.924  0.00  0.00    +0.000 A 
ATOM     24  C   UNL     1      -5.444  54.829  54.200  0.00  0.00    +0.000 A 
ATOM     25  C   UNL     1      -6.866  52.907  54.316  0.00  0.00    +0.000 A 
ATOM     26  C   UNL     1      -6.157  53.923  54.970  0.00  0.00    +0.000 A 
ENDBRANCH  18  21
ENDBRANCH  12  18
ENDBRANCH   1  15
BRANCH   3  27
ATOM     27  C   UNL     1     -11.524  55.704  47.825  0.00  0.00    +0.000 C 
ATOM     28  O   UNL     1     -12.466  55.528  47.063  0.00  0.00    +0.000 OA
BRANCH  27  29
ATOM     29  O   UNL     1     -10.212  55.713  47.444  0.00  0.00    +0.000 OA
BRANCH  29  30
ATOM     30  C   UNL     1      -9.826  54.775  46.434  0.00  0.00    +0.000 C 
ATOM     31  C   UNL     1      -8.355  54.939  46.124  0.00  0.00    +0.000 C 
ENDBRANCH  29  30
ENDBRANCH  27  29
ENDBRANCH   3  27
TORSDOF 6
ENDMDL
MODEL 3
REMARK VINA RESULT:      -7.1      2.576      3.931
REMARK  Name = 
REMARK  9 active torsions:
REMARK  status: ('A' for Active; 'I' for Inactive)
REMARK    1  A    between atoms: S_1  and  N_4
REMARK    2  A    between atoms: S_1  and  C_5
REMARK    3  A    between atoms: N_10  and  C_13
REMARK    4  A    between atoms: C_16  and  C_19
REMARK    5  A    between atoms: C_19  and  O_23
REMARK    6  A    between atoms: O_23  and  C_26
REMARK    7  A    between atoms: C_24  and  C_27
REMARK    8  A    between atoms: C_24  and  C_28
REMARK    9  A    between atoms: C_26  and  C_29
REMARK                            x       y       z     vdW  Elec       q    Type
REMARK                         _______ _______ _______ _____ _____    ______ ____
ROOT
ATOM      1  C   UNL     1     -11.465  53.466  49.903  0.00  0.00    +0.000 A 
ATOM      2  S   UNL     1     -10.962  54.055  48.388  0.00  0.00    +0.000 S 
ATOM      3  C   UNL     1     -10.508  52.689  50.529  0.00  0.00    +0.000 A 
ATOM      4  C   UNL     1      -9.365  53.507  48.655  0.00  0.00    +0.000 A 
ATOM      5  C   UNL     1      -9.246  52.810  49.845  0.00  0.00    +0.000 A 
ATOM      6  C   UNL     1      -8.237  53.758  47.684  0.00  0.00    +0.000 C 
ATOM      7  C   UNL     1      -7.955  52.178  50.275  0.00  0.00    +0.000 C 
ATOM      8  C   UNL     1      -7.044  52.783  47.941  0.00  0.00    +0.000 C 
ATOM      9  C   UNL     1      -6.763  52.699  49.466  0.00  0.00    +0.000 C 
ATOM     10  C   UNL     1      -5.764  53.295  47.254  0.00  0.00    +0.000 C 
ATOM     11  C   UNL     1      -7.362  51.390  47.360  0.00  0.00    +0.000 C 
ENDROOT
BRANCH   1  15
ATOM     12  N   UNL     1     -14.149  55.354  51.383  0.00  0.00    +0.000 N 
ATOM     13  C   UNL     1     -12.847  55.018  51.037  0.00  0.00    +0.000 C 
ATOM     14  O   UNL     1     -11.908  55.747  51.321  0.00  0.00    +0.000 OA
ATOM     15  N   UNL     1     -12.735  53.850  50.307  0.00  0.00    +0.000 N 
ATOM     16  H   UNL     1     -14.867  54.702  51.219  0.00  0.00    +0.000 HD
ATOM     17  H   UNL     1     -13.527  53.310  50.083  0.00  0.00    +0.000 HD
BRANCH  12  18
ATOM     18  S   UNL     1     -14.541  56.831  52.069  0.00  0.00    +0.000 S 
ATOM     19  O   UNL     1     -13.545  57.147  53.073  0.00  0.00    +0.000 OA
ATOM     20  O   UNL     1     -15.937  56.736  52.441  0.00  0.00    +0.000 OA
BRANCH  18  21
ATOM     21  C   UNL     1     -14.405  58.016  50.723  0.00  0.00    +0.000 A 
ATOM     22  N   UNL     1     -14.103  57.468  49.505  0.00  0.00    +0.000 NA
ATOM     23  C   UNL     1     -14.620  59.369  50.948  0.00  0.00    +0.000 A 
ATOM     24  C   UNL     1     -14.049  58.333  48.472  0.00  0.00    +0.000 A 
ATOM     25  C   UNL     1     -14.532  60.227  49.853  0.00  0.00    +0.000 A 
ATOM     26  C   UNL     1     -14.251  59.700  48.586  0.00  0.00    +0.000 A 
ENDBRANCH  18  21
ENDBRANCH  12  18
ENDBRANCH   1  15
BRANCH   3  27
ATOM     27  C   UNL     1     -10.763  51.809  51.673  0.00  0.00    +0.000 C 
ATOM     28  O   UNL     1     -10.923  50.599  51.576  0.00  0.00    +0.000 OA
BRANCH  27  29
ATOM     29  O   UNL     1     -11.001  52.532  52.808  0.00  0.00    +0.000 OA
BRANCH  29  30
ATOM     30  C   UNL     1      -9.864  52.866  53.612  0.00  0.00    +0.000 C 
ATOM     31  C   UNL     1      -9.627  54.359  53.560  0.00  0.00    +0.000 C 
ENDBRANCH  29  30
ENDBRANCH  27  29
ENDBRANCH   3  27
TORSDOF 6
ENDMDL
MODEL 4
REMARK VINA RESULT:      -7.0      2.270      2.751
REMARK  Name = 
REMARK  9 active torsions:
REMARK  status: ('A' for Active; 'I' for Inactive)
REMARK    1  A    between atoms: S_1  and  N_4
REMARK    2  A    between atoms: S_1  and  C_5
REMARK    3  A    between atoms: N_10  and  C_13
REMARK    4  A    between atoms: C_16  and  C_19
REMARK    5  A    between atoms: C_19  and  O_23
REMARK    6  A    between atoms: O_23  and  C_26
REMARK    7  A    between atoms: C_24  and  C_27
REMARK    8  A    between atoms: C_24  and  C_28
REMARK    9  A    between atoms: C_26  and  C_29
REMARK                            x       y       z     vdW  Elec       q    Type
REMARK                         _______ _______ _______ _____ _____    ______ ____
ROOT
ATOM      1  C   UNL     1     -11.452  53.356  50.092  0.00  0.00    +0.000 A 
ATOM      2  S   UNL     1     -10.740  52.202  51.120  0.00  0.00    +0.000 S 
ATOM      3  C   UNL     1     -10.652  53.693  49.017  0.00  0.00    +0.000 A 
ATOM      4  C   UNL     1      -9.467  51.934  50.012  0.00  0.00    +0.000 A 
ATOM      5  C   UNL     1      -9.544  52.778  48.917  0.00  0.00    +0.000 A 
ATOM      6  C   UNL     1      -8.391  50.899  50.231  0.00  0.00    +0.000 C 
ATOM      7  C   UNL     1      -8.507  52.776  47.832  0.00  0.00    +0.000 C 
ATOM      8  C   UNL     1      -7.147  51.180  49.330  0.00  0.00    +0.000 C 
ATOM      9  C   UNL     1      -7.616  51.532  47.893  0.00  0.00    +0.000 C 
ATOM     10  C   UNL     1      -6.246  49.933  49.239  0.00  0.00    +0.000 C 
ATOM     11  C   UNL     1      -6.303  52.323  49.931  0.00  0.00    +0.000 C 
ENDROOT
BRANCH   1  15
ATOM     12  N   UNL     1     -14.124  55.343  51.462  0.00  0.00    +0.000 N 
ATOM     13  C   UNL     1     -12.823  54.965  51.160  0.00  0.00    +0.000 C 
ATOM     14  O   UNL     1     -11.872  55.673  51.459  0.00  0.00    +0.000 OA
ATOM     15  N   UNL     1     -12.723  53.782  50.453  0.00  0.00    +0.000 N 
ATOM     16  H   UNL     1     -14.855  54.707  51.288  0.00  0.00    +0.000 HD
ATOM     17  H   UNL     1     -13.523  53.260  50.215  0.00  0.00    +0.000 HD
BRANCH  12  18
ATOM     18  S   UNL     1     -14.494  56.841  52.112  0.00  0.00    +0.000 S 
ATOM     19  O   UNL     1     -13.486  57.174  53.098  0.00  0.00    +0.000 OA
ATOM     20  O   UNL     1     -15.888  56.772  52.498  0.00  0.00    +0.000 OA
BRANCH  18  21
ATOM     21  C   UNL     1     -14.357  57.988  50.733  0.00  0.00    +0.000 A 
ATOM     22  N   UNL     1     -14.127  57.401  49.518  0.00  0.00    +0.000 NA
ATOM     23  C   UNL     1     -14.503  59.355  50.933  0.00  0.00    +0.000 A 
ATOM     24  C   UNL     1     -14.074  58.239  48.464  0.00  0.00    +0.000 A 
ATOM     25  C   UNL     1     -14.420  60.183  49.816  0.00  0.00    +0.000 A 
ATOM     26  C   UNL     1     -14.211  59.615  48.552  0.00  0.00    +0.000 A 
ENDBRANCH  18  21
ENDBRANCH  12  18
ENDBRANCH   1  15
BRANCH   3  27
ATOM     27  C   UNL     1     -10.858  54.860  48.154  0.00  0.00    +0.000 C 
ATOM     28  O   UNL     1     -10.282  55.929  48.310  0.00  0.00    +0.000 OA
BRANCH  27  29
ATOM     29  O   UNL     1     -11.910  54.666  47.304  0.00  0.00    +0.000 OA
BRANCH  29  30
ATOM     30  C   UNL     1     -11.602  54.547  45.911  0.00  0.00    +0.000 C 
ATOM     31  C   UNL     1     -11.638  53.090  45.506  0.00  0.00    +0.000 C 
ENDBRANCH  29  30
ENDBRANCH  27  29
ENDBRANCH   3  27
TORSDOF 6
ENDMDL
MODEL 5
REMARK VINA RESULT:      -6.9      4.111      7.559
REMARK  Name = 
REMARK  9 active torsions:
REMARK  status: ('A' for Active; 'I' for Inactive)
REMARK    1  A    between atoms: S_1  and  N_4
REMARK    2  A    between atoms: S_1  and  C_5
REMARK    3  A    between atoms: N_10  and  C_13
REMARK    4  A    between atoms: C_16  and  C_19
REMARK    5  A    between atoms: C_19  and  O_23
REMARK    6  A    between atoms: O_23  and  C_26
REMARK    7  A    between atoms: C_24  and  C_27
REMARK    8  A    between atoms: C_24  and  C_28
REMARK    9  A    between atoms: C_26  and  C_29
REMARK                            x       y       z     vdW  Elec       q    Type
REMARK                         _______ _______ _______ _____ _____    ______ ____
ROOT
ATOM      1  C   UNL     1      -8.772  54.969  47.256  0.00  0.00    +0.000 A 
ATOM      2  S   UNL     1      -7.528  54.233  46.359  0.00  0.00    +0.000 S 
ATOM      3  C   UNL     1     -10.036  54.647  46.798  0.00  0.00    +0.000 A 
ATOM      4  C   UNL     1      -8.651  53.263  45.511  0.00  0.00    +0.000 A 
ATOM      5  C   UNL     1      -9.959  53.564  45.851  0.00  0.00    +0.000 A 
ATOM      6  C   UNL     1      -8.238  52.215  44.507  0.00  0.00    +0.000 C 
ATOM      7  C   UNL     1     -11.129  52.888  45.199  0.00  0.00    +0.000 C 
ATOM      8  C   UNL     1      -9.432  51.823  43.579  0.00  0.00    +0.000 C 
ATOM      9  C   UNL     1     -10.712  51.628  44.435  0.00  0.00    +0.000 C 
ATOM     10  C   UNL     1      -9.144  50.495  42.853  0.00  0.00    +0.000 C 
ATOM     11  C   UNL     1      -9.646  52.907  42.503  0.00  0.00    +0.000 C 
ENDROOT
BRANCH   1  15
ATOM     12  N   UNL     1      -7.682  55.993  50.531  0.00  0.00    +0.000 N 
ATOM     13  C   UNL     1      -8.116  55.141  49.524  0.00  0.00    +0.000 C 
ATOM     14  O   UNL     1      -8.206  53.936  49.711  0.00  0.00    +0.000 OA
ATOM     15  N   UNL     1      -8.362  55.764  48.317  0.00  0.00    +0.000 N 
ATOM     16  H   UNL     1      -7.709  56.965  50.374  0.00  0.00    +0.000 HD
ATOM     17  H   UNL     1      -8.250  56.737  48.212  0.00  0.00    +0.000 HD
BRANCH  12  18
ATOM     18  S   UNL     1      -7.115  55.428  52.002  0.00  0.00    +0.000 S 
ATOM     19  O   UNL     1      -6.978  56.555  52.902  0.00  0.00    +0.000 OA
ATOM     20  O   UNL     1      -5.965  54.605  51.693  0.00  0.00    +0.000 OA
BRANCH  18  21
ATOM     21  C   UNL     1      -8.420  54.352  52.615  0.00  0.00    +0.000 A 
ATOM     22  N   UNL     1      -8.005  53.102  52.990  0.00  0.00    +0.000 NA
ATOM     23  C   UNL     1      -9.729  54.807  52.703  0.00  0.00    +0.000 A 
ATOM     24  C   UNL     1      -8.958  52.298  53.502  0.00  0.00    +0.000 A 
ATOM     25  C   UNL     1     -10.683  53.933  53.220  0.00  0.00    +0.000 A 
ATOM     26  C   UNL     1     -10.290  52.655  53.638  0.00  0.00    +0.000 A 
ENDBRANCH  18  21
ENDBRANCH  12  18
ENDBRANCH   1  15
BRANCH   3  27
ATOM     27  C   UNL     1     -11.265  55.357  47.163  0.00  0.00    +0.000 C 
ATOM     28  O   UNL     1     -11.905  56.050  46.383  0.00  0.00    +0.000 OA
BRANCH  27  29
ATOM     29  O   UNL     1     -11.477  55.314  48.512  0.00  0.00    +0.000 OA
BRANCH  29  30
ATOM     30  C   UNL     1     -12.427  54.354  48.987  0.00  0.00    +0.000 C 
ATOM     31  C   UNL     1     -11.704  53.238  49.707  0.00  0.00    +0.000 C 
ENDBRANCH  29  30
ENDBRANCH  27  29
ENDBRANCH   3  27
TORSDOF 6
ENDMDL
MODEL 6
REMARK VINA RESULT:      -6.8      3.026      7.680
REMARK  Name = 
REMARK  9 active torsions:
REMARK  status: ('A' for Active; 'I' for Inactive)
REMARK    1  A    between atoms: S_1  and  N_4
REMARK    2  A    between atoms: S_1  and  C_5
REMARK    3  A    between atoms: N_10  and  C_13
REMARK    4  A    between atoms: C_16  and  C_19
REMARK    5  A    between atoms: C_19  and  O_23
REMARK    6  A    between atoms: O_23  and  C_26
REMARK    7  A    between atoms: C_24  and  C_27
REMARK    8  A    between atoms: C_24  and  C_28
REMARK    9  A    between atoms: C_26  and  C_29
REMARK                            x       y       z     vdW  Elec       q    Type
REMARK                         _______ _______ _______ _____ _____    ______ ____
ROOT
ATOM      1  C   UNL     1     -10.845  54.248  50.085  0.00  0.00    +0.000 A 
ATOM      2  S   UNL     1     -11.583  54.400  51.610  0.00  0.00    +0.000 S 
ATOM      3  C   UNL     1     -11.389  55.089  49.132  0.00  0.00    +0.000 A 
ATOM      4  C   UNL     1     -12.462  55.774  51.098  0.00  0.00    +0.000 A 
ATOM      5  C   UNL     1     -12.256  56.054  49.758  0.00  0.00    +0.000 A 
ATOM      6  C   UNL     1     -13.360  56.565  52.018  0.00  0.00    +0.000 C 
ATOM      7  C   UNL     1     -12.963  57.177  49.058  0.00  0.00    +0.000 C 
ATOM      8  C   UNL     1     -14.361  57.448  51.206  0.00  0.00    +0.000 C 
ATOM      9  C   UNL     1     -13.607  58.154  50.047  0.00  0.00    +0.000 C 
ATOM     10  C   UNL     1     -14.975  58.540  52.102  0.00  0.00    +0.000 C 
ATOM     11  C   UNL     1     -15.517  56.581  50.667  0.00  0.00    +0.000 C 
ENDROOT
BRANCH   1  15
ATOM     12  N   UNL     1      -7.536  52.831  50.141  0.00  0.00    +0.000 N 
ATOM     13  C   UNL     1      -8.522  53.806  50.205  0.00  0.00    +0.000 C 
ATOM     14  O   UNL     1      -8.247  54.967  50.473  0.00  0.00    +0.000 OA
ATOM     15  N   UNL     1      -9.804  53.333  50.008  0.00  0.00    +0.000 N 
ATOM     16  H   UNL     1      -7.781  51.928  49.834  0.00  0.00    +0.000 HD
ATOM     17  H   UNL     1      -9.975  52.382  49.819  0.00  0.00    +0.000 HD
BRANCH  12  18
ATOM     18  S   UNL     1      -5.945  53.135  50.567  0.00  0.00    +0.000 S 
ATOM     19  O   UNL     1      -5.496  54.310  49.848  0.00  0.00    +0.000 OA
ATOM     20  O   UNL     1      -5.245  51.878  50.406  0.00  0.00    +0.000 OA
BRANCH  18  21
ATOM     21  C   UNL     1      -6.004  53.516  52.324  0.00  0.00    +0.000 A 
ATOM     22  N   UNL     1      -6.719  52.629  53.081  0.00  0.00    +0.000 NA
ATOM     23  C   UNL     1      -5.338  54.626  52.828  0.00  0.00    +0.000 A 
ATOM     24  C   UNL     1      -6.731  52.867  54.407  0.00  0.00    +0.000 A 
ATOM     25  C   UNL     1      -5.397  54.844  54.203  0.00  0.00    +0.000 A 
ATOM     26  C   UNL     1      -6.098  53.941  55.014  0.00  0.00    +0.000 A 
ENDBRANCH  18  21
ENDBRANCH  12  18
ENDBRANCH   1  15
BRANCH   3  27
ATOM     27  C   UNL     1     -11.175  54.963  47.687  0.00  0.00    +0.000 C 
ATOM     28  O   UNL     1     -10.412  55.678  47.050  0.00  0.00    +0.000 OA
BRANCH  27  29
ATOM     29  O   UNL     1     -12.077  54.103  47.127  0.00  0.00    +0.000 OA
BRANCH  29  30
ATOM     30  C   UNL     1     -11.552  52.909  46.539  0.00  0.00    +0.000 C 
ATOM     31  C   UNL     1     -12.363  51.718  46.997  0.00  0.00    +0.000 C 
ENDBRANCH  29  30
ENDBRANCH  27  29
ENDBRANCH   3  27
TORSDOF 6
ENDMDL
MODEL 7
REMARK VINA RESULT:      -6.6      2.000      2.587
REMARK  Name = 
REMARK  9 active torsions:
REMARK  status: ('A' for Active; 'I' for Inactive)
REMARK    1  A    between atoms: S_1  and  N_4
REMARK    2  A    between atoms: S_1  and  C_5
REMARK    3  A    between atoms: N_10  and  C_13
REMARK    4  A    between atoms: C_16  and  C_19
REMARK    5  A    between atoms: C_19  and  O_23
REMARK    6  A    between atoms: O_23  and  C_26
REMARK    7  A    between atoms: C_24  and  C_27
REMARK    8  A    between atoms: C_24  and  C_28
REMARK    9  A    between atoms: C_26  and  C_29
REMARK                            x       y       z     vdW  Elec       q    Type
REMARK                         _______ _______ _______ _____ _____    ______ ____
ROOT
ATOM      1  C   UNL     1      -9.948  53.780  50.407  0.00  0.00    +0.000 A 
ATOM      2  S   UNL     1      -9.807  53.447  52.069  0.00  0.00    +0.000 S 
ATOM      3  C   UNL     1      -8.735  53.756  49.743  0.00  0.00    +0.000 A 
ATOM      4  C   UNL     1      -8.166  53.004  51.888  0.00  0.00    +0.000 A 
ATOM      5  C   UNL     1      -7.717  53.194  50.593  0.00  0.00    +0.000 A 
ATOM      6  C   UNL     1      -7.326  52.481  53.027  0.00  0.00    +0.000 C 
ATOM      7  C   UNL     1      -6.293  52.933  50.195  0.00  0.00    +0.000 C 
ATOM      8  C   UNL     1      -5.802  52.597  52.702  0.00  0.00    +0.000 C 
ATOM      9  C   UNL     1      -5.543  52.113  51.250  0.00  0.00    +0.000 C 
ATOM     10  C   UNL     1      -4.974  51.707  53.649  0.00  0.00    +0.000 C 
ATOM     11  C   UNL     1      -5.327  54.052  52.893  0.00  0.00    +0.000 C 
ENDROOT
BRANCH   1  15
ATOM     12  N   UNL     1     -12.972  55.471  49.429  0.00  0.00    +0.000 N 
ATOM     13  C   UNL     1     -11.686  55.315  49.929  0.00  0.00    +0.000 C 
ATOM     14  O   UNL     1     -11.016  56.281  50.264  0.00  0.00    +0.000 OA
ATOM     15  N   UNL     1     -11.236  54.009  49.945  0.00  0.00    +0.000 N 
ATOM     16  H   UNL     1     -13.514  54.668  49.255  0.00  0.00    +0.000 HD
ATOM     17  H   UNL     1     -11.807  53.268  49.640  0.00  0.00    +0.000 HD
BRANCH  12  18
ATOM     18  S   UNL     1     -13.634  56.976  49.111  0.00  0.00    +0.000 S 
ATOM     19  O   UNL     1     -14.723  56.807  48.170  0.00  0.00    +0.000 OA
ATOM     20  O   UNL     1     -12.518  57.837  48.778  0.00  0.00    +0.000 OA
BRANCH  18  21
ATOM     21  C   UNL     1     -14.307  57.525  50.686  0.00  0.00    +0.000 A 
ATOM     22  N   UNL     1     -14.864  56.534  51.449  0.00  0.00    +0.000 NA
ATOM     23  C   UNL     1     -14.223  58.859  51.064  0.00  0.00    +0.000 A 
ATOM     24  C   UNL     1     -15.327  56.916  52.656  0.00  0.00    +0.000 A 
ATOM     25  C   UNL     1     -14.734  59.209  52.313  0.00  0.00    +0.000 A 
ATOM     26  C   UNL     1     -15.289  58.217  53.132  0.00  0.00    +0.000 A 
ENDBRANCH  18  21
ENDBRANCH  12  18
ENDBRANCH   1  15
BRANCH   3  27
ATOM     27  C   UNL     1      -8.505  54.298  48.401  0.00  0.00    +0.000 C 
ATOM     28  O   UNL     1      -7.795  55.269  48.174  0.00  0.00    +0.000 OA
BRANCH  27  29
ATOM     29  O   UNL     1      -9.337  53.717  47.485  0.00  0.00    +0.000 OA
BRANCH  29  30
ATOM     30  C   UNL     1      -9.646  54.483  46.316  0.00  0.00    +0.000 C 
ATOM     31  C   UNL     1     -11.099  54.899  46.350  0.00  0.00    +0.000 C 
ENDBRANCH  29  30
ENDBRANCH  27  29
ENDBRANCH   3  27
TORSDOF 6
ENDMDL
MODEL 8
REMARK VINA RESULT:      -6.5      3.453      7.397
REMARK  Name = 
REMARK  9 active torsions:
REMARK  status: ('A' for Active; 'I' for Inactive)
REMARK    1  A    between atoms: S_1  and  N_4
REMARK    2  A    between atoms: S_1  and  C_5
REMARK    3  A    between atoms: N_10  and  C_13
REMARK    4  A    between atoms: C_16  and  C_19
REMARK    5  A    between atoms: C_19  and  O_23
REMARK    6  A    between atoms: O_23  and  C_26
REMARK    7  A    between atoms: C_24  and  C_27
REMARK    8  A    between atoms: C_24  and  C_28
REMARK    9  A    between atoms: C_26  and  C_29
REMARK                            x       y       z     vdW  Elec       q    Type
REMARK                         _______ _______ _______ _____ _____    ______ ____
ROOT
ATOM      1  C   UNL     1     -11.194  54.631  50.737  0.00  0.00    +0.000 A 
ATOM      2  S   UNL     1     -11.429  55.222  52.315  0.00  0.00    +0.000 S 
ATOM      3  C   UNL     1     -12.146  55.081  49.841  0.00  0.00    +0.000 A 
ATOM      4  C   UNL     1     -12.646  56.297  51.780  0.00  0.00    +0.000 A 
ATOM      5  C   UNL     1     -12.923  56.140  50.433  0.00  0.00    +0.000 A 
ATOM      6  C   UNL     1     -13.329  57.285  52.694  0.00  0.00    +0.000 C 
ATOM      7  C   UNL     1     -13.996  56.929  49.740  0.00  0.00    +0.000 C 
ATOM      8  C   UNL     1     -14.670  57.792  52.073  0.00  0.00    +0.000 C 
ATOM      9  C   UNL     1     -14.453  58.130  50.574  0.00  0.00    +0.000 C 
ATOM     10  C   UNL     1     -15.148  59.074  52.780  0.00  0.00    +0.000 C 
ATOM     11  C   UNL     1     -15.771  56.725  52.245  0.00  0.00    +0.000 C 
ENDROOT
BRANCH   1  15
ATOM     12  N   UNL     1      -8.094  53.305  49.476  0.00  0.00    +0.000 N 
ATOM     13  C   UNL     1      -9.185  54.157  49.577  0.00  0.00    +0.000 C 
ATOM     14  O   UNL     1      -9.275  55.155  48.878  0.00  0.00    +0.000 OA
ATOM     15  N   UNL     1     -10.091  53.808  50.560  0.00  0.00    +0.000 N 
ATOM     16  H   UNL     1      -8.099  52.464  49.989  0.00  0.00    +0.000 HD
ATOM     17  H   UNL     1      -9.960  53.005  51.115  0.00  0.00    +0.000 HD
BRANCH  12  18
ATOM     18  S   UNL     1      -6.769  53.655  48.513  0.00  0.00    +0.000 S 
ATOM     19  O   UNL     1      -5.764  52.634  48.730  0.00  0.00    +0.000 OA
ATOM     20  O   UNL     1      -6.454  55.045  48.763  0.00  0.00    +0.000 OA
BRANCH  18  21
ATOM     21  C   UNL     1      -7.378  53.519  46.826  0.00  0.00    +0.000 A 
ATOM     22  N   UNL     1      -7.719  52.251  46.438  0.00  0.00    +0.000 NA
ATOM     23  C   UNL     1      -7.497  54.647  46.024  0.00  0.00    +0.000 A 
ATOM     24  C   UNL     1      -8.228  52.136  45.195  0.00  0.00    +0.000 A 
ATOM     25  C   UNL     1      -8.008  54.475  44.740  0.00  0.00    +0.000 A 
ATOM     26  C   UNL     1      -8.393  53.195  44.317  0.00  0.00    +0.000 A 
ENDBRANCH  18  21
ENDBRANCH  12  18
ENDBRANCH   1  15
BRANCH   3  27
ATOM     27  C   UNL     1     -12.380  54.508  48.513  0.00  0.00    +0.000 C 
ATOM     28  O   UNL     1     -12.563  55.181  47.507  0.00  0.00    +0.000 OA
BRANCH  27  29
ATOM     29  O   UNL     1     -12.573  53.157  48.584  0.00  0.00    +0.000 OA
BRANCH  29  30
ATOM     30  C   UNL     1     -12.086  52.376  47.487  0.00  0.00    +0.000 C 
ATOM     31  C   UNL     1     -12.367  50.912  47.743  0.00  0.00    +0.000 C 
ENDBRANCH  29  30
ENDBRANCH  27  29
ENDBRANCH   3  27
TORSDOF 6
ENDMDL
MODEL 9
REMARK VINA RESULT:      -6.4      3.389      8.098
REMARK  Name = 
REMARK  9 active torsions:
REMARK  status: ('A' for Active; 'I' for Inactive)
REMARK    1  A    between atoms: S_1  and  N_4
REMARK    2  A    between atoms: S_1  and  C_5
REMARK    3  A    between atoms: N_10  and  C_13
REMARK    4  A    between atoms: C_16  and  C_19
REMARK    5  A    between atoms: C_19  and  O_23
REMARK    6  A    between atoms: O_23  and  C_26
REMARK    7  A    between atoms: C_24  and  C_27
REMARK    8  A    between atoms: C_24  and  C_28
REMARK    9  A    between atoms: C_26  and  C_29
REMARK                            x       y       z     vdW  Elec       q    Type
REMARK                         _______ _______ _______ _____ _____    ______ ____
ROOT
ATOM      1  C   UNL     1     -11.200  54.796  50.312  0.00  0.00    +0.000 A 
ATOM      2  S   UNL     1     -11.740  55.082  51.901  0.00  0.00    +0.000 S 
ATOM      3  C   UNL     1     -11.928  55.483  49.359  0.00  0.00    +0.000 A 
ATOM      4  C   UNL     1     -12.780  56.330  51.371  0.00  0.00    +0.000 A 
ATOM      5  C   UNL     1     -12.774  56.462  49.993  0.00  0.00    +0.000 A 
ATOM      6  C   UNL     1     -13.605  57.169  52.316  0.00  0.00    +0.000 C 
ATOM      7  C   UNL     1     -13.651  57.450  49.281  0.00  0.00    +0.000 C 
ATOM      8  C   UNL     1     -14.769  57.888  51.561  0.00  0.00    +0.000 C 
ATOM      9  C   UNL     1     -14.231  58.496  50.238  0.00  0.00    +0.000 C 
ATOM     10  C   UNL     1     -15.340  59.039  52.410  0.00  0.00    +0.000 C 
ATOM     11  C   UNL     1     -15.917  56.895  51.286  0.00  0.00    +0.000 C 
ENDROOT
BRANCH   1  15
ATOM     12  N   UNL     1      -7.826  53.601  49.929  0.00  0.00    +0.000 N 
ATOM     13  C   UNL     1      -8.868  54.514  50.015  0.00  0.00    +0.000 C 
ATOM     14  O   UNL     1      -8.658  55.718  49.992  0.00  0.00    +0.000 OA
ATOM     15  N   UNL     1     -10.113  53.942  50.190  0.00  0.00    +0.000 N 
ATOM     16  H   UNL     1      -8.039  52.643  49.858  0.00  0.00    +0.000 HD
ATOM     17  H   UNL     1     -10.226  52.964  50.227  0.00  0.00    +0.000 HD
BRANCH  12  18
ATOM     18  S   UNL     1      -6.218  54.072  49.939  0.00  0.00    +0.000 S 
ATOM     19  O   UNL     1      -5.741  54.037  51.307  0.00  0.00    +0.000 OA
ATOM     20  O   UNL     1      -6.163  55.307  49.185  0.00  0.00    +0.000 OA
BRANCH  18  21
ATOM     21  C   UNL     1      -5.361  52.804  48.993  0.00  0.00    +0.000 A 
ATOM     22  N   UNL     1      -4.539  53.280  48.007  0.00  0.00    +0.000 NA
ATOM     23  C   UNL     1      -5.537  51.460  49.293  0.00  0.00    +0.000 A 
ATOM     24  C   UNL     1      -3.847  52.349  47.322  0.00  0.00    +0.000 A 
ATOM     25  C   UNL     1      -4.816  50.532  48.543  0.00  0.00    +0.000 A 
ATOM     26  C   UNL     1      -3.944  50.984  47.543  0.00  0.00    +0.000 A 
ENDBRANCH  18  21
ENDBRANCH  12  18
ENDBRANCH   1  15
BRANCH   3  27
ATOM     27  C   UNL     1     -11.898  55.202  47.921  0.00  0.00    +0.000 C 
ATOM     28  O   UNL     1     -11.829  56.071  47.062  0.00  0.00    +0.000 OA
BRANCH  27  29
ATOM     29  O   UNL     1     -12.164  53.886  47.670  0.00  0.00    +0.000 OA
BRANCH  29  30
ATOM     30  C   UNL     1     -11.289  53.211  46.760  0.00  0.00    +0.000 C 
ATOM     31  C   UNL     1     -12.038  52.873  45.491  0.00  0.00    +0.000 C 
ENDBRANCH  29  30
ENDBRANCH  27  29
ENDBRANCH   3  27
TORSDOF 6
ENDMDL
