MODEL 1
REMARK VINA RESULT:      -8.1      0.000      0.000
REMARK  Name = 
REMARK  10 active torsions:
REMARK  status: ('A' for Active; 'I' for Inactive)
REMARK    1  A    between atoms: S_1  and  N_4
REMARK    2  A    between atoms: S_1  and  C_5
REMARK    3  A    between atoms: N_7  and  C_12
REMARK    4  A    between atoms: N_10  and  C_14
REMARK    5  A    between atoms: C_16  and  C_19
REMARK    6  A    between atoms: C_19  and  O_23
REMARK    7  A    between atoms: O_23  and  C_26
REMARK    8  A    between atoms: C_24  and  C_27
REMARK    9  A    between atoms: C_24  and  C_28
REMARK   10  A    between atoms: C_26  and  C_29
REMARK                            x       y       z     vdW  Elec       q    Type
REMARK                         _______ _______ _______ _____ _____    ______ ____
ROOT
ATOM      1  C   UNL     1     -10.943  54.365  51.610  0.00  0.00    +0.000 A 
ATOM      2  S   UNL     1     -10.535  53.635  53.096  0.00  0.00    +0.000 S 
ATOM      3  C   UNL     1      -9.860  54.874  50.923  0.00  0.00    +0.000 A 
ATOM      4  C   UNL     1      -8.872  53.744  52.740  0.00  0.00    +0.000 A 
ATOM      5  C   UNL     1      -8.636  54.421  51.553  0.00  0.00    +0.000 A 
ATOM      6  C   UNL     1      -7.800  53.158  53.628  0.00  0.00    +0.000 C 
ATOM      7  C   UNL     1      -7.242  54.669  51.053  0.00  0.00    +0.000 C 
ATOM      8  C   UNL     1      -6.406  53.784  53.312  0.00  0.00    +0.000 C 
ATOM      9  C   UNL     1      -6.196  53.827  51.779  0.00  0.00    +0.000 C 
ATOM     10  C   UNL     1      -5.274  52.930  53.910  0.00  0.00    +0.000 C 
ATOM     11  C   UNL     1      -6.309  55.198  53.921  0.00  0.00    +0.000 C 
ENDROOT
BRANCH   1  15
ATOM     12  N   UNL     1     -14.383  55.316  51.222  0.00  0.00    +0.000 N 
ATOM     13  C   UNL     1     -13.041  55.453  51.557  0.00  0.00    +0.000 C 
ATOM     14  O   UNL     1     -12.583  56.514  51.954  0.00  0.00    +0.000 OA
ATOM     15  N   UNL     1     -12.294  54.324  51.294  0.00  0.00    +0.000 N 
ATOM     16  H   UNL     1     -14.688  54.446  50.873  0.00  0.00    +0.000 HD
ATOM     17  H   UNL     1     -12.703  53.521  50.898  0.00  0.00    +0.000 HD
BRANCH  12  18
ATOM     18  S   UNL     1     -15.502  56.536  51.377  0.00  0.00    +0.000 S 
ATOM     19  O   UNL     1     -15.709  56.852  52.768  0.00  0.00    +0.000 OA
ATOM     20  O   UNL     1     -16.619  56.126  50.549  0.00  0.00    +0.000 OA
BRANCH  18  21
ATOM     21  C   UNL     1     -14.907  57.996  50.581  0.00  0.00    +0.000 A 
ATOM     22  N   UNL     1     -14.336  58.060  49.329  0.00  0.00    +0.000 N 
ATOM     23  C   UNL     1     -14.872  59.307  51.043  0.00  0.00    +0.000 A 
ATOM     24  N   UNL     1     -13.977  59.317  48.969  0.00  0.00    +0.000 NA
ATOM     25  C   UNL     1     -14.062  57.023  48.361  0.00  0.00    +0.000 C 
ATOM     26  C   UNL     1     -14.294  60.066  50.021  0.00  0.00    +0.000 A 
ENDBRANCH  18  21
ENDBRANCH  12  18
ENDBRANCH   1  15
BRANCH   3  27
ATOM     27  C   UNL     1      -9.977  55.739  49.741  0.00  0.00    +0.000 C 
ATOM     28  O   UNL     1      -9.434  56.832  49.632  0.00  0.00    +0.000 OA
BRANCH  27  29
ATOM     29  O   UNL     1     -10.726  55.159  48.766  0.00  0.00    +0.000 OA
BRANCH  29  30
ATOM     30  C   UNL     1     -10.355  55.383  47.404  0.00  0.00    +0.000 C 
ATOM     31  C   UNL     1     -11.525  55.083  46.492  0.00  0.00    +0.000 C 
ENDBRANCH  29  30
ENDBRANCH  27  29
ENDBRANCH   3  27
TORSDOF 6
ENDMDL
MODEL 2
REMARK VINA RESULT:      -7.5      3.067      7.668
REMARK  Name = 
REMARK  10 active torsions:
REMARK  status: ('A' for Active; 'I' for Inactive)
REMARK    1  A    between atoms: S_1  and  N_4
REMARK    2  A    between atoms: S_1  and  C_5
REMARK    3  A    between atoms: N_7  and  C_12
REMARK    4  A    between atoms: N_10  and  C_14
REMARK    5  A    between atoms: C_16  and  C_19
REMARK    6  A    between atoms: C_19  and  O_23
REMARK    7  A    between atoms: O_23  and  C_26
REMARK    8  A    between atoms: C_24  and  C_27
REMARK    9  A    between atoms: C_24  and  C_28
REMARK   10  A    between atoms: C_26  and  C_29
REMARK                            x       y       z     vdW  Elec       q    Type
REMARK                         _______ _______ _______ _____ _____    ______ ____
ROOT
ATOM      1  C   UNL     1     -11.046  54.805  50.235  0.00  0.00    +0.000 A 
ATOM      2  S   UNL     1     -11.745  54.835  51.790  0.00  0.00    +0.000 S 
ATOM      3  C   UNL     1     -11.643  55.669  49.339  0.00  0.00    +0.000 A 
ATOM      4  C   UNL     1     -12.692  56.193  51.382  0.00  0.00    +0.000 A 
ATOM      5  C   UNL     1     -12.549  56.548  50.050  0.00  0.00    +0.000 A 
ATOM      6  C   UNL     1     -13.571  56.912  52.379  0.00  0.00    +0.000 C 
ATOM      7  C   UNL     1     -13.314  57.694  49.455  0.00  0.00    +0.000 C 
ATOM      8  C   UNL     1     -14.635  57.794  51.653  0.00  0.00    +0.000 C 
ATOM      9  C   UNL     1     -13.953  58.590  50.513  0.00  0.00    +0.000 C 
ATOM     10  C   UNL     1     -15.254  58.814  52.624  0.00  0.00    +0.000 C 
ATOM     11  C   UNL     1     -15.772  56.909  51.103  0.00  0.00    +0.000 C 
ENDROOT
BRANCH   1  15
ATOM     12  N   UNL     1      -7.725  53.449  50.358  0.00  0.00    +0.000 N 
ATOM     13  C   UNL     1      -8.743  54.375  50.550  0.00  0.00    +0.000 C 
ATOM     14  O   UNL     1      -8.555  55.423  51.149  0.00  0.00    +0.000 OA
ATOM     15  N   UNL     1      -9.970  53.938  50.098  0.00  0.00    +0.000 N 
ATOM     16  H   UNL     1      -7.945  52.605  49.900  0.00  0.00    +0.000 HD
ATOM     17  H   UNL     1     -10.079  53.048  49.693  0.00  0.00    +0.000 HD
BRANCH  12  18
ATOM     18  S   UNL     1      -6.157  53.686  50.860  0.00  0.00    +0.000 S 
ATOM     19  O   UNL     1      -5.634  54.911  50.308  0.00  0.00    +0.000 OA
ATOM     20  O   UNL     1      -5.487  52.426  50.600  0.00  0.00    +0.000 OA
BRANCH  18  21
ATOM     21  C   UNL     1      -6.107  53.829  52.619  0.00  0.00    +0.000 A 
ATOM     22  N   UNL     1      -6.616  52.918  53.519  0.00  0.00    +0.000 N 
ATOM     23  C   UNL     1      -5.595  54.849  53.413  0.00  0.00    +0.000 A 
ATOM     24  N   UNL     1      -6.431  53.285  54.812  0.00  0.00    +0.000 NA
ATOM     25  C   UNL     1      -7.303  51.665  53.311  0.00  0.00    +0.000 C 
ATOM     26  C   UNL     1      -5.822  54.465  54.737  0.00  0.00    +0.000 A 
ENDBRANCH  18  21
ENDBRANCH  12  18
ENDBRANCH   1  15
BRANCH   3  27
ATOM     27  C   UNL     1     -11.371  55.661  47.895  0.00  0.00    +0.000 C 
ATOM     28  O   UNL     1     -12.238  55.581  47.032  0.00  0.00    +0.000 OA
BRANCH  27  29
ATOM     29  O   UNL     1     -10.044  55.795  47.632  0.00  0.00    +0.000 OA
BRANCH  29  30
ATOM     30  C   UNL     1      -9.472  54.985  46.602  0.00  0.00    +0.000 C 
ATOM     31  C   UNL     1      -7.990  54.802  46.850  0.00  0.00    +0.000 C 
ENDBRANCH  29  30
ENDBRANCH  27  29
ENDBRANCH   3  27
TORSDOF 6
ENDMDL
MODEL 3
REMARK VINA RESULT:      -7.1      4.002      8.186
REMARK  Name = 
REMARK  10 active torsions:
REMARK  status: ('A' for Active; 'I' for Inactive)
REMARK    1  A    between atoms: S_1  and  N_4
REMARK    2  A    between atoms: S_1  and  C_5
REMARK    3  A    between atoms: N_7  and  C_12
REMARK    4  A    between atoms: N_10  and  C_14
REMARK    5  A    between atoms: C_16  and  C_19
REMARK    6  A    between atoms: C_19  and  O_23
REMARK    7  A    between atoms: O_23  and  C_26
REMARK    8  A    between atoms: C_24  and  C_27
REMARK    9  A    between atoms: C_24  and  C_28
REMARK   10  A    between atoms: C_26  and  C_29
REMARK                            x       y       z     vdW  Elec       q    Type
REMARK                         _______ _______ _______ _____ _____    ______ ____
ROOT
ATOM      1  C   UNL     1      -8.678  54.907  47.219  0.00  0.00    +0.000 A 
ATOM      2  S   UNL     1      -7.457  54.111  46.334  0.00  0.00    +0.000 S 
ATOM      3  C   UNL     1      -9.956  54.639  46.771  0.00  0.00    +0.000 A 
ATOM      4  C   UNL     1      -8.615  53.181  45.496  0.00  0.00    +0.000 A 
ATOM      5  C   UNL     1      -9.912  53.550  45.816  0.00  0.00    +0.000 A 
ATOM      6  C   UNL     1      -8.242  52.083  44.527  0.00  0.00    +0.000 C 
ATOM      7  C   UNL     1     -11.098  52.891  45.174  0.00  0.00    +0.000 C 
ATOM      8  C   UNL     1      -9.442  51.728  43.595  0.00  0.00    +0.000 C 
ATOM      9  C   UNL     1     -10.733  51.602  44.442  0.00  0.00    +0.000 C 
ATOM     10  C   UNL     1      -9.212  50.375  42.899  0.00  0.00    +0.000 C 
ATOM     11  C   UNL     1      -9.603  52.805  42.503  0.00  0.00    +0.000 C 
ENDROOT
BRANCH   1  15
ATOM     12  N   UNL     1      -7.690  55.957  50.506  0.00  0.00    +0.000 N 
ATOM     13  C   UNL     1      -8.146  55.097  49.514  0.00  0.00    +0.000 C 
ATOM     14  O   UNL     1      -8.360  53.915  49.736  0.00  0.00    +0.000 OA
ATOM     15  N   UNL     1      -8.219  55.688  48.271  0.00  0.00    +0.000 N 
ATOM     16  H   UNL     1      -7.500  56.892  50.259  0.00  0.00    +0.000 HD
ATOM     17  H   UNL     1      -7.957  56.627  48.134  0.00  0.00    +0.000 HD
BRANCH  12  18
ATOM     18  S   UNL     1      -7.449  55.497  52.086  0.00  0.00    +0.000 S 
ATOM     19  O   UNL     1      -8.525  54.646  52.530  0.00  0.00    +0.000 OA
ATOM     20  O   UNL     1      -7.154  56.728  52.793  0.00  0.00    +0.000 OA
BRANCH  18  21
ATOM     21  C   UNL     1      -5.949  54.573  52.216  0.00  0.00    +0.000 A 
ATOM     22  N   UNL     1      -5.422  54.045  53.375  0.00  0.00    +0.000 N 
ATOM     23  C   UNL     1      -5.029  54.232  51.232  0.00  0.00    +0.000 A 
ATOM     24  N   UNL     1      -4.259  53.376  53.175  0.00  0.00    +0.000 NA
ATOM     25  C   UNL     1      -5.898  54.092  54.737  0.00  0.00    +0.000 C 
ATOM     26  C   UNL     1      -4.021  53.506  51.874  0.00  0.00    +0.000 A 
ENDBRANCH  18  21
ENDBRANCH  12  18
ENDBRANCH   1  15
BRANCH   3  27
ATOM     27  C   UNL     1     -11.148  55.373  47.218  0.00  0.00    +0.000 C 
ATOM     28  O   UNL     1     -11.805  56.120  46.504  0.00  0.00    +0.000 OA
BRANCH  27  29
ATOM     29  O   UNL     1     -11.457  55.089  48.512  0.00  0.00    +0.000 OA
BRANCH  29  30
ATOM     30  C   UNL     1     -11.693  56.177  49.407  0.00  0.00    +0.000 C 
ATOM     31  C   UNL     1     -11.514  55.720  50.838  0.00  0.00    +0.000 C 
ENDBRANCH  29  30
ENDBRANCH  27  29
ENDBRANCH   3  27
TORSDOF 6
ENDMDL
MODEL 4
REMARK VINA RESULT:      -6.9      3.992      7.558
REMARK  Name = 
REMARK  10 active torsions:
REMARK  status: ('A' for Active; 'I' for Inactive)
REMARK    1  A    between atoms: S_1  and  N_4
REMARK    2  A    between atoms: S_1  and  C_5
REMARK    3  A    between atoms: N_7  and  C_12
REMARK    4  A    between atoms: N_10  and  C_14
REMARK    5  A    between atoms: C_16  and  C_19
REMARK    6  A    between atoms: C_19  and  O_23
REMARK    7  A    between atoms: O_23  and  C_26
REMARK    8  A    between atoms: C_24  and  C_27
REMARK    9  A    between atoms: C_24  and  C_28
REMARK   10  A    between atoms: C_26  and  C_29
REMARK                            x       y       z     vdW  Elec       q    Type
REMARK                         _______ _______ _______ _____ _____    ______ ____
ROOT
ATOM      1  C   UNL     1      -8.738  54.893  47.218  0.00  0.00    +0.000 A 
ATOM      2  S   UNL     1      -7.513  54.134  46.309  0.00  0.00    +0.000 S 
ATOM      3  C   UNL     1     -10.014  54.640  46.756  0.00  0.00    +0.000 A 
ATOM      4  C   UNL     1      -8.665  53.233  45.432  0.00  0.00    +0.000 A 
ATOM      5  C   UNL     1      -9.964  53.587  45.761  0.00  0.00    +0.000 A 
ATOM      6  C   UNL     1      -8.286  52.172  44.425  0.00  0.00    +0.000 C 
ATOM      7  C   UNL     1     -11.146  52.950  45.091  0.00  0.00    +0.000 C 
ATOM      8  C   UNL     1      -9.482  51.850  43.476  0.00  0.00    +0.000 C 
ATOM      9  C   UNL     1     -10.775  51.690  44.313  0.00  0.00    +0.000 C 
ATOM     10  C   UNL     1      -9.247  50.525  42.730  0.00  0.00    +0.000 C 
ATOM     11  C   UNL     1      -9.641  52.967  42.423  0.00  0.00    +0.000 C 
ENDROOT
BRANCH   1  15
ATOM     12  N   UNL     1      -7.603  55.782  50.505  0.00  0.00    +0.000 N 
ATOM     13  C   UNL     1      -8.039  54.958  49.476  0.00  0.00    +0.000 C 
ATOM     14  O   UNL     1      -8.097  53.744  49.604  0.00  0.00    +0.000 OA
ATOM     15  N   UNL     1      -8.284  55.635  48.300  0.00  0.00    +0.000 N 
ATOM     16  H   UNL     1      -7.543  56.750  50.332  0.00  0.00    +0.000 HD
ATOM     17  H   UNL     1      -8.145  56.607  48.231  0.00  0.00    +0.000 HD
BRANCH  12  18
ATOM     18  S   UNL     1      -7.178  55.227  52.014  0.00  0.00    +0.000 S 
ATOM     19  O   UNL     1      -7.191  56.308  52.968  0.00  0.00    +0.000 OA
ATOM     20  O   UNL     1      -5.967  54.459  51.802  0.00  0.00    +0.000 OA
BRANCH  18  21
ATOM     21  C   UNL     1      -8.347  54.020  52.558  0.00  0.00    +0.000 A 
ATOM     22  N   UNL     1      -9.714  54.180  52.601  0.00  0.00    +0.000 N 
ATOM     23  C   UNL     1      -8.134  52.739  53.055  0.00  0.00    +0.000 A 
ATOM     24  N   UNL     1     -10.366  53.082  53.058  0.00  0.00    +0.000 NA
ATOM     25  C   UNL     1     -10.546  55.306  52.247  0.00  0.00    +0.000 C 
ATOM     26  C   UNL     1      -9.397  52.217  53.344  0.00  0.00    +0.000 A 
ENDBRANCH  18  21
ENDBRANCH  12  18
ENDBRANCH   1  15
BRANCH   3  27
ATOM     27  C   UNL     1     -11.209  55.354  47.226  0.00  0.00    +0.000 C 
ATOM     28  O   UNL     1     -11.951  56.006  46.502  0.00  0.00    +0.000 OA
BRANCH  27  29
ATOM     29  O   UNL     1     -11.414  55.167  48.558  0.00  0.00    +0.000 OA
BRANCH  29  30
ATOM     30  C   UNL     1     -12.341  54.158  48.964  0.00  0.00    +0.000 C 
ATOM     31  C   UNL     1     -11.597  52.975  49.545  0.00  0.00    +0.000 C 
ENDBRANCH  29  30
ENDBRANCH  27  29
ENDBRANCH   3  27
TORSDOF 6
ENDMDL
MODEL 5
REMARK VINA RESULT:      -6.8      2.234      2.818
REMARK  Name = 
REMARK  10 active torsions:
REMARK  status: ('A' for Active; 'I' for Inactive)
REMARK    1  A    between atoms: S_1  and  N_4
REMARK    2  A    between atoms: S_1  and  C_5
REMARK    3  A    between atoms: N_7  and  C_12
REMARK    4  A    between atoms: N_10  and  C_14
REMARK    5  A    between atoms: C_16  and  C_19
REMARK    6  A    between atoms: C_19  and  O_23
REMARK    7  A    between atoms: O_23  and  C_26
REMARK    8  A    between atoms: C_24  and  C_27
REMARK    9  A    between atoms: C_24  and  C_28
REMARK   10  A    between atoms: C_26  and  C_29
REMARK                            x       y       z     vdW  Elec       q    Type
REMARK                         _______ _______ _______ _____ _____    ______ ____
ROOT
ATOM      1  C   UNL     1      -8.621  55.752  49.924  0.00  0.00    +0.000 A 
ATOM      2  S   UNL     1      -8.045  55.986  51.511  0.00  0.00    +0.000 S 
ATOM      3  C   UNL     1      -7.963  54.753  49.235  0.00  0.00    +0.000 A 
ATOM      4  C   UNL     1      -7.081  54.583  51.413  0.00  0.00    +0.000 A 
ATOM      5  C   UNL     1      -7.122  54.010  50.152  0.00  0.00    +0.000 A 
ATOM      6  C   UNL     1      -6.288  54.047  52.581  0.00  0.00    +0.000 C 
ATOM      7  C   UNL     1      -6.323  52.783  49.819  0.00  0.00    +0.000 C 
ATOM      8  C   UNL     1      -5.178  53.061  52.099  0.00  0.00    +0.000 C 
ATOM      9  C   UNL     1      -5.775  52.082  51.059  0.00  0.00    +0.000 C 
ATOM     10  C   UNL     1      -4.645  52.221  53.273  0.00  0.00    +0.000 C 
ATOM     11  C   UNL     1      -3.994  53.847  51.499  0.00  0.00    +0.000 C 
ENDROOT
BRANCH   1  15
ATOM     12  N   UNL     1     -11.943  56.984  49.349  0.00  0.00    +0.000 N 
ATOM     13  C   UNL     1     -10.953  56.097  49.755  0.00  0.00    +0.000 C 
ATOM     14  O   UNL     1     -11.223  55.044  50.313  0.00  0.00    +0.000 OA
ATOM     15  N   UNL     1      -9.675  56.577  49.560  0.00  0.00    +0.000 N 
ATOM     16  H   UNL     1     -11.663  57.834  48.936  0.00  0.00    +0.000 HD
ATOM     17  H   UNL     1      -9.517  57.470  49.176  0.00  0.00    +0.000 HD
BRANCH  12  18
ATOM     18  S   UNL     1     -13.571  56.691  49.520  0.00  0.00    +0.000 S 
ATOM     19  O   UNL     1     -13.809  55.282  49.710  0.00  0.00    +0.000 OA
ATOM     20  O   UNL     1     -14.195  57.392  48.415  0.00  0.00    +0.000 OA
BRANCH  18  21
ATOM     21  C   UNL     1     -14.183  57.534  50.946  0.00  0.00    +0.000 A 
ATOM     22  N   UNL     1     -14.249  58.899  51.113  0.00  0.00    +0.000 N 
ATOM     23  C   UNL     1     -14.671  57.017  52.141  0.00  0.00    +0.000 A 
ATOM     24  N   UNL     1     -14.770  59.267  52.310  0.00  0.00    +0.000 NA
ATOM     25  C   UNL     1     -13.857  59.979  50.237  0.00  0.00    +0.000 C 
ATOM     26  C   UNL     1     -15.011  58.117  52.932  0.00  0.00    +0.000 A 
ENDBRANCH  18  21
ENDBRANCH  12  18
ENDBRANCH   1  15
BRANCH   3  27
ATOM     27  C   UNL     1      -8.121  54.517  47.793  0.00  0.00    +0.000 C 
ATOM     28  O   UNL     1      -7.243  54.716  46.962  0.00  0.00    +0.000 OA
BRANCH  27  29
ATOM     29  O   UNL     1      -9.348  54.010  47.498  0.00  0.00    +0.000 OA
BRANCH  29  30
ATOM     30  C   UNL     1      -9.905  54.289  46.212  0.00  0.00    +0.000 C 
ATOM     31  C   UNL     1     -11.216  55.030  46.365  0.00  0.00    +0.000 C 
ENDBRANCH  29  30
ENDBRANCH  27  29
ENDBRANCH   3  27
TORSDOF 6
ENDMDL
MODEL 6
REMARK VINA RESULT:      -6.7      1.429      1.908
REMARK  Name = 
REMARK  10 active torsions:
REMARK  status: ('A' for Active; 'I' for Inactive)
REMARK    1  A    between atoms: S_1  and  N_4
REMARK    2  A    between atoms: S_1  and  C_5
REMARK    3  A    between atoms: N_7  and  C_12
REMARK    4  A    between atoms: N_10  and  C_14
REMARK    5  A    between atoms: C_16  and  C_19
REMARK    6  A    between atoms: C_19  and  O_23
REMARK    7  A    between atoms: O_23  and  C_26
REMARK    8  A    between atoms: C_24  and  C_27
REMARK    9  A    between atoms: C_24  and  C_28
REMARK   10  A    between atoms: C_26  and  C_29
REMARK                            x       y       z     vdW  Elec       q    Type
REMARK                         _______ _______ _______ _____ _____    ______ ____
ROOT
ATOM      1  C   UNL     1     -11.093  53.934  50.437  0.00  0.00    +0.000 A 
ATOM      2  S   UNL     1     -10.241  54.525  51.790  0.00  0.00    +0.000 S 
ATOM      3  C   UNL     1     -10.279  53.433  49.441  0.00  0.00    +0.000 A 
ATOM      4  C   UNL     1      -8.775  53.888  51.197  0.00  0.00    +0.000 A 
ATOM      5  C   UNL     1      -8.922  53.326  49.939  0.00  0.00    +0.000 A 
ATOM      6  C   UNL     1      -7.481  53.938  51.976  0.00  0.00    +0.000 C 
ATOM      7  C   UNL     1      -7.756  52.732  49.201  0.00  0.00    +0.000 C 
ATOM      8  C   UNL     1      -6.255  53.709  51.039  0.00  0.00    +0.000 C 
ATOM      9  C   UNL     1      -6.541  52.513  50.098  0.00  0.00    +0.000 C 
ATOM     10  C   UNL     1      -4.998  53.363  51.858  0.00  0.00    +0.000 C 
ATOM     11  C   UNL     1      -5.959  54.988  50.230  0.00  0.00    +0.000 C 
ENDROOT
BRANCH   1  15
ATOM     12  N   UNL     1     -14.398  55.225  50.981  0.00  0.00    +0.000 N 
ATOM     13  C   UNL     1     -13.011  55.238  50.892  0.00  0.00    +0.000 C 
ATOM     14  O   UNL     1     -12.368  56.268  51.027  0.00  0.00    +0.000 OA
ATOM     15  N   UNL     1     -12.475  54.019  50.537  0.00  0.00    +0.000 N 
ATOM     16  H   UNL     1     -14.865  54.371  50.827  0.00  0.00    +0.000 HD
ATOM     17  H   UNL     1     -13.049  53.238  50.363  0.00  0.00    +0.000 HD
BRANCH  12  18
ATOM     18  S   UNL     1     -15.312  56.568  51.333  0.00  0.00    +0.000 S 
ATOM     19  O   UNL     1     -15.298  56.827  52.752  0.00  0.00    +0.000 OA
ATOM     20  O   UNL     1     -16.570  56.355  50.645  0.00  0.00    +0.000 OA
BRANCH  18  21
ATOM     21  C   UNL     1     -14.631  57.984  50.526  0.00  0.00    +0.000 A 
ATOM     22  N   UNL     1     -14.273  58.063  49.198  0.00  0.00    +0.000 N 
ATOM     23  C   UNL     1     -14.308  59.232  51.045  0.00  0.00    +0.000 A 
ATOM     24  N   UNL     1     -13.781  59.278  48.849  0.00  0.00    +0.000 NA
ATOM     25  C   UNL     1     -14.334  57.080  48.141  0.00  0.00    +0.000 C 
ATOM     26  C   UNL     1     -13.793  59.977  49.980  0.00  0.00    +0.000 A 
ENDBRANCH  18  21
ENDBRANCH  12  18
ENDBRANCH   1  15
BRANCH   3  27
ATOM     27  C   UNL     1     -10.757  53.078  48.098  0.00  0.00    +0.000 C 
ATOM     28  O   UNL     1     -10.667  51.959  47.608  0.00  0.00    +0.000 OA
BRANCH  27  29
ATOM     29  O   UNL     1     -11.351  54.135  47.481  0.00  0.00    +0.000 OA
BRANCH  29  30
ATOM     30  C   UNL     1     -10.807  54.587  46.239  0.00  0.00    +0.000 C 
ATOM     31  C   UNL     1     -11.552  53.951  45.085  0.00  0.00    +0.000 C 
ENDBRANCH  29  30
ENDBRANCH  27  29
ENDBRANCH   3  27
TORSDOF 6
ENDMDL
MODEL 7
REMARK VINA RESULT:      -6.5      3.947      7.624
REMARK  Name = 
REMARK  10 active torsions:
REMARK  status: ('A' for Active; 'I' for Inactive)
REMARK    1  A    between atoms: S_1  and  N_4
REMARK    2  A    between atoms: S_1  and  C_5
REMARK    3  A    between atoms: N_7  and  C_12
REMARK    4  A    between atoms: N_10  and  C_14
REMARK    5  A    between atoms: C_16  and  C_19
REMARK    6  A    between atoms: C_19  and  O_23
REMARK    7  A    between atoms: O_23  and  C_26
REMARK    8  A    between atoms: C_24  and  C_27
REMARK    9  A    between atoms: C_24  and  C_28
REMARK   10  A    between atoms: C_26  and  C_29
REMARK                            x       y       z     vdW  Elec       q    Type
REMARK                         _______ _______ _______ _____ _____    ______ ____
ROOT
ATOM      1  C   UNL     1     -11.963  56.055  47.792  0.00  0.00    +0.000 A 
ATOM      2  S   UNL     1     -13.604  56.518  47.786  0.00  0.00    +0.000 S 
ATOM      3  C   UNL     1     -11.365  56.137  49.033  0.00  0.00    +0.000 A 
ATOM      4  C   UNL     1     -13.632  56.588  49.489  0.00  0.00    +0.000 A 
ATOM      5  C   UNL     1     -12.381  56.363  50.042  0.00  0.00    +0.000 A 
ATOM      6  C   UNL     1     -14.890  56.861  50.280  0.00  0.00    +0.000 C 
ATOM      7  C   UNL     1     -12.156  56.410  51.525  0.00  0.00    +0.000 C 
ATOM      8  C   UNL     1     -14.549  57.311  51.735  0.00  0.00    +0.000 C 
ATOM      9  C   UNL     1     -13.458  56.382  52.320  0.00  0.00    +0.000 C 
ATOM     10  C   UNL     1     -15.786  57.203  52.645  0.00  0.00    +0.000 C 
ATOM     11  C   UNL     1     -14.082  58.781  51.740  0.00  0.00    +0.000 C 
ENDROOT
BRANCH   1  15
ATOM     12  N   UNL     1     -10.905  53.968  45.070  0.00  0.00    +0.000 N 
ATOM     13  C   UNL     1     -11.425  54.286  46.318  0.00  0.00    +0.000 C 
ATOM     14  O   UNL     1     -11.876  53.431  47.065  0.00  0.00    +0.000 OA
ATOM     15  N   UNL     1     -11.471  55.643  46.561  0.00  0.00    +0.000 N 
ATOM     16  H   UNL     1     -10.589  54.704  44.496  0.00  0.00    +0.000 HD
ATOM     17  H   UNL     1     -11.165  56.294  45.889  0.00  0.00    +0.000 HD
BRANCH  12  18
ATOM     18  S   UNL     1     -10.788  52.414  44.488  0.00  0.00    +0.000 S 
ATOM     19  O   UNL     1     -10.115  52.406  43.213  0.00  0.00    +0.000 OA
ATOM     20  O   UNL     1     -12.125  51.867  44.610  0.00  0.00    +0.000 OA
BRANCH  18  21
ATOM     21  C   UNL     1      -9.833  51.431  45.602  0.00  0.00    +0.000 A 
ATOM     22  N   UNL     1      -8.589  51.750  46.100  0.00  0.00    +0.000 N 
ATOM     23  C   UNL     1     -10.115  50.186  46.152  0.00  0.00    +0.000 A 
ATOM     24  N   UNL     1      -8.093  50.809  46.942  0.00  0.00    +0.000 NA
ATOM     25  C   UNL     1      -7.745  52.900  45.872  0.00  0.00    +0.000 C 
ATOM     26  C   UNL     1      -9.021  49.857  46.957  0.00  0.00    +0.000 A 
ENDBRANCH  18  21
ENDBRANCH  12  18
ENDBRANCH   1  15
BRANCH   3  27
ATOM     27  C   UNL     1      -9.917  56.011  49.251  0.00  0.00    +0.000 C 
ATOM     28  O   UNL     1      -9.190  56.934  49.596  0.00  0.00    +0.000 OA
BRANCH  27  29
ATOM     29  O   UNL     1      -9.490  54.733  49.063  0.00  0.00    +0.000 OA
BRANCH  29  30
ATOM     30  C   UNL     1      -9.330  53.898  50.211  0.00  0.00    +0.000 C 
ATOM     31  C   UNL     1     -10.337  52.768  50.175  0.00  0.00    +0.000 C 
ENDBRANCH  29  30
ENDBRANCH  27  29
ENDBRANCH   3  27
TORSDOF 6
ENDMDL
MODEL 8
REMARK VINA RESULT:      -6.5      4.153      8.011
REMARK  Name = 
REMARK  10 active torsions:
REMARK  status: ('A' for Active; 'I' for Inactive)
REMARK    1  A    between atoms: S_1  and  N_4
REMARK    2  A    between atoms: S_1  and  C_5
REMARK    3  A    between atoms: N_7  and  C_12
REMARK    4  A    between atoms: N_10  and  C_14
REMARK    5  A    between atoms: C_16  and  C_19
REMARK    6  A    between atoms: C_19  and  O_23
REMARK    7  A    between atoms: O_23  and  C_26
REMARK    8  A    between atoms: C_24  and  C_27
REMARK    9  A    between atoms: C_24  and  C_28
REMARK   10  A    between atoms: C_26  and  C_29
REMARK                            x       y       z     vdW  Elec       q    Type
REMARK                         _______ _______ _______ _____ _____    ______ ____
ROOT
ATOM      1  C   UNL     1     -10.818  55.572  48.495  0.00  0.00    +0.000 A 
ATOM      2  S   UNL     1     -12.304  55.913  47.733  0.00  0.00    +0.000 S 
ATOM      3  C   UNL     1     -10.822  55.809  49.855  0.00  0.00    +0.000 A 
ATOM      4  C   UNL     1     -13.072  56.135  49.239  0.00  0.00    +0.000 A 
ATOM      5  C   UNL     1     -12.180  56.051  50.297  0.00  0.00    +0.000 A 
ATOM      6  C   UNL     1     -14.556  56.386  49.377  0.00  0.00    +0.000 C 
ATOM      7  C   UNL     1     -12.624  56.248  51.717  0.00  0.00    +0.000 C 
ATOM      8  C   UNL     1     -14.893  56.989  50.776  0.00  0.00    +0.000 C 
ATOM      9  C   UNL     1     -14.141  56.197  51.874  0.00  0.00    +0.000 C 
ATOM     10  C   UNL     1     -16.399  56.874  51.072  0.00  0.00    +0.000 C 
ATOM     11  C   UNL     1     -14.513  58.483  50.816  0.00  0.00    +0.000 C 
ENDROOT
BRANCH   1  15
ATOM     12  N   UNL     1      -8.723  53.328  46.635  0.00  0.00    +0.000 N 
ATOM     13  C   UNL     1      -9.750  53.721  47.485  0.00  0.00    +0.000 C 
ATOM     14  O   UNL     1     -10.546  52.917  47.947  0.00  0.00    +0.000 OA
ATOM     15  N   UNL     1      -9.829  55.087  47.650  0.00  0.00    +0.000 N 
ATOM     16  H   UNL     1      -8.134  54.025  46.264  0.00  0.00    +0.000 HD
ATOM     17  H   UNL     1      -9.207  55.695  47.189  0.00  0.00    +0.000 HD
BRANCH  12  18
ATOM     18  S   UNL     1      -8.433  51.746  46.209  0.00  0.00    +0.000 S 
ATOM     19  O   UNL     1      -9.239  50.856  47.008  0.00  0.00    +0.000 OA
ATOM     20  O   UNL     1      -6.989  51.618  46.209  0.00  0.00    +0.000 OA
BRANCH  18  21
ATOM     21  C   UNL     1      -8.874  51.492  44.518  0.00  0.00    +0.000 A 
ATOM     22  N   UNL     1     -10.134  51.637  43.981  0.00  0.00    +0.000 N 
ATOM     23  C   UNL     1      -8.086  51.090  43.446  0.00  0.00    +0.000 A 
ATOM     24  N   UNL     1     -10.179  51.382  42.649  0.00  0.00    +0.000 NA
ATOM     25  C   UNL     1     -11.389  52.004  44.595  0.00  0.00    +0.000 C 
ATOM     26  C   UNL     1      -8.933  51.039  42.336  0.00  0.00    +0.000 A 
ENDBRANCH  18  21
ENDBRANCH  12  18
ENDBRANCH   1  15
BRANCH   3  27
ATOM     27  C   UNL     1      -9.610  55.808  50.686  0.00  0.00    +0.000 C 
ATOM     28  O   UNL     1      -9.508  55.216  51.754  0.00  0.00    +0.000 OA
BRANCH  27  29
ATOM     29  O   UNL     1      -8.600  56.510  50.105  0.00  0.00    +0.000 OA
BRANCH  29  30
ATOM     30  C   UNL     1      -7.256  56.194  50.474  0.00  0.00    +0.000 C 
ATOM     31  C   UNL     1      -6.629  55.297  49.428  0.00  0.00    +0.000 C 
ENDBRANCH  29  30
ENDBRANCH  27  29
ENDBRANCH   3  27
TORSDOF 6
ENDMDL
MODEL 9
REMARK VINA RESULT:      -6.5      1.916      2.429
REMARK  Name = 
REMARK  10 active torsions:
REMARK  status: ('A' for Active; 'I' for Inactive)
REMARK    1  A    between atoms: S_1  and  N_4
REMARK    2  A    between atoms: S_1  and  C_5
REMARK    3  A    between atoms: N_7  and  C_12
REMARK    4  A    between atoms: N_10  and  C_14
REMARK    5  A    between atoms: C_16  and  C_19
REMARK    6  A    between atoms: C_19  and  O_23
REMARK    7  A    between atoms: O_23  and  C_26
REMARK    8  A    between atoms: C_24  and  C_27
REMARK    9  A    between atoms: C_24  and  C_28
REMARK   10  A    between atoms: C_26  and  C_29
REMARK                            x       y       z     vdW  Elec       q    Type
REMARK                         _______ _______ _______ _____ _____    ______ ____
ROOT
ATOM      1  C   UNL     1     -10.080  53.781  51.040  0.00  0.00    +0.000 A 
ATOM      2  S   UNL     1     -10.394  53.208  52.614  0.00  0.00    +0.000 S 
ATOM      3  C   UNL     1      -8.736  53.890  50.745  0.00  0.00    +0.000 A 
ATOM      4  C   UNL     1      -8.747  52.839  52.854  0.00  0.00    +0.000 A 
ATOM      5  C   UNL     1      -7.961  53.245  51.786  0.00  0.00    +0.000 A 
ATOM      6  C   UNL     1      -8.231  52.145  54.092  0.00  0.00    +0.000 C 
ATOM      7  C   UNL     1      -6.472  53.057  51.789  0.00  0.00    +0.000 C 
ATOM      8  C   UNL     1      -6.690  52.345  54.245  0.00  0.00    +0.000 C 
ATOM      9  C   UNL     1      -6.001  52.099  52.880  0.00  0.00    +0.000 C 
ATOM     10  C   UNL     1      -6.104  51.336  55.248  0.00  0.00    +0.000 C 
ATOM     11  C   UNL     1      -6.389  53.765  54.767  0.00  0.00    +0.000 C 
ENDROOT
BRANCH   1  15
ATOM     12  N   UNL     1     -12.854  55.472  49.513  0.00  0.00    +0.000 N 
ATOM     13  C   UNL     1     -11.715  55.317  50.293  0.00  0.00    +0.000 C 
ATOM     14  O   UNL     1     -11.182  56.265  50.851  0.00  0.00    +0.000 OA
ATOM     15  N   UNL     1     -11.211  54.033  50.276  0.00  0.00    +0.000 N 
ATOM     16  H   UNL     1     -13.217  54.677  49.059  0.00  0.00    +0.000 HD
ATOM     17  H   UNL     1     -11.638  53.323  49.744  0.00  0.00    +0.000 HD
BRANCH  12  18
ATOM     18  S   UNL     1     -13.637  56.924  49.303  0.00  0.00    +0.000 S 
ATOM     19  O   UNL     1     -14.739  56.770  48.385  0.00  0.00    +0.000 OA
ATOM     20  O   UNL     1     -12.584  57.880  49.023  0.00  0.00    +0.000 OA
BRANCH  18  21
ATOM     21  C   UNL     1     -14.299  57.474  50.845  0.00  0.00    +0.000 A 
ATOM     22  N   UNL     1     -14.724  58.753  51.132  0.00  0.00    +0.000 N 
ATOM     23  C   UNL     1     -14.491  56.772  52.029  0.00  0.00    +0.000 A 
ATOM     24  N   UNL     1     -15.193  58.887  52.398  0.00  0.00    +0.000 NA
ATOM     25  C   UNL     1     -14.747  59.947  50.321  0.00  0.00    +0.000 C 
ATOM     26  C   UNL     1     -15.035  57.683  52.939  0.00  0.00    +0.000 A 
ENDBRANCH  18  21
ENDBRANCH  12  18
ENDBRANCH   1  15
BRANCH   3  27
ATOM     27  C   UNL     1      -8.216  54.566  49.548  0.00  0.00    +0.000 C 
ATOM     28  O   UNL     1      -7.322  55.403  49.564  0.00  0.00    +0.000 OA
BRANCH  27  29
ATOM     29  O   UNL     1      -8.821  54.119  48.415  0.00  0.00    +0.000 OA
BRANCH  29  30
ATOM     30  C   UNL     1      -9.245  55.082  47.448  0.00  0.00    +0.000 C 
ATOM     31  C   UNL     1      -8.434  54.933  46.179  0.00  0.00    +0.000 C 
ENDBRANCH  29  30
ENDBRANCH  27  29
ENDBRANCH   3  27
TORSDOF 6
ENDMDL
