MODEL 1
REMARK VINA RESULT:      -8.0      0.000      0.000
REMARK  Name = 
REMARK  10 active torsions:
REMARK  status: ('A' for Active; 'I' for Inactive)
REMARK    1  A    between atoms: S_1  and  N_4
REMARK    2  A    between atoms: S_1  and  C_5
REMARK    3  A    between atoms: N_8  and  C_13
REMARK    4  A    between atoms: N_10  and  C_14
REMARK    5  A    between atoms: C_16  and  C_19
REMARK    6  A    between atoms: C_19  and  O_23
REMARK    7  A    between atoms: O_23  and  C_26
REMARK    8  A    between atoms: C_24  and  C_27
REMARK    9  A    between atoms: C_24  and  C_28
REMARK   10  A    between atoms: C_26  and  C_29
REMARK                            x       y       z     vdW  Elec       q    Type
REMARK                         _______ _______ _______ _____ _____    ______ ____
ROOT
ATOM      1  C   UNL     1     -10.958  54.367  51.616  0.00  0.00    +0.000 A 
ATOM      2  S   UNL     1     -10.534  53.631  53.089  0.00  0.00    +0.000 S 
ATOM      3  C   UNL     1      -9.882  54.903  50.932  0.00  0.00    +0.000 A 
ATOM      4  C   UNL     1      -8.873  53.767  52.731  0.00  0.00    +0.000 A 
ATOM      5  C   UNL     1      -8.649  54.460  51.553  0.00  0.00    +0.000 A 
ATOM      6  C   UNL     1      -7.797  53.182  53.614  0.00  0.00    +0.000 C 
ATOM      7  C   UNL     1      -7.257  54.732  51.056  0.00  0.00    +0.000 C 
ATOM      8  C   UNL     1      -6.408  53.822  53.302  0.00  0.00    +0.000 C 
ATOM      9  C   UNL     1      -6.204  53.887  51.768  0.00  0.00    +0.000 C 
ATOM     10  C   UNL     1      -5.272  52.965  53.886  0.00  0.00    +0.000 C 
ATOM     11  C   UNL     1      -6.320  55.228  53.931  0.00  0.00    +0.000 C 
ENDROOT
BRANCH   1  15
ATOM     12  N   UNL     1     -14.398  55.275  51.206  0.00  0.00    +0.000 N 
ATOM     13  C   UNL     1     -13.059  55.456  51.528  0.00  0.00    +0.000 C 
ATOM     14  O   UNL     1     -12.620  56.540  51.887  0.00  0.00    +0.000 OA
ATOM     15  N   UNL     1     -12.305  54.323  51.308  0.00  0.00    +0.000 N 
ATOM     16  H   UNL     1     -14.703  54.391  50.899  0.00  0.00    +0.000 HD
ATOM     17  H   UNL     1     -12.714  53.505  50.942  0.00  0.00    +0.000 HD
BRANCH  12  18
ATOM     18  S   UNL     1     -15.502  56.517  51.326  0.00  0.00    +0.000 S 
ATOM     19  O   UNL     1     -15.680  56.830  52.726  0.00  0.00    +0.000 OA
ATOM     20  O   UNL     1     -16.646  56.125  50.529  0.00  0.00    +0.000 OA
BRANCH  18  21
ATOM     21  C   UNL     1     -14.835  57.969  50.515  0.00  0.00    +0.000 A 
ATOM     22  N   UNL     1     -14.864  59.173  51.085  0.00  0.00    +0.000 NA
ATOM     23  N   UNL     1     -14.269  58.066  49.264  0.00  0.00    +0.000 N 
ATOM     24  C   UNL     1     -14.269  60.035  50.207  0.00  0.00    +0.000 A 
ATOM     25  C   UNL     1     -13.896  59.376  49.065  0.00  0.00    +0.000 A 
ATOM     26  C   UNL     1     -14.062  57.054  48.255  0.00  0.00    +0.000 C 
ENDBRANCH  18  21
ENDBRANCH  12  18
ENDBRANCH   1  15
BRANCH   3  27
ATOM     27  C   UNL     1     -10.009  55.784  49.761  0.00  0.00    +0.000 C 
ATOM     28  O   UNL     1      -9.460  56.874  49.653  0.00  0.00    +0.000 OA
BRANCH  27  29
ATOM     29  O   UNL     1     -10.779  55.224  48.788  0.00  0.00    +0.000 OA
BRANCH  29  30
ATOM     30  C   UNL     1     -10.339  55.322  47.432  0.00  0.00    +0.000 C 
ATOM     31  C   UNL     1     -11.467  54.951  46.491  0.00  0.00    +0.000 C 
ENDBRANCH  29  30
ENDBRANCH  27  29
ENDBRANCH   3  27
TORSDOF 6
ENDMDL
MODEL 2
REMARK VINA RESULT:      -7.6      3.115      7.658
REMARK  Name = 
REMARK  10 active torsions:
REMARK  status: ('A' for Active; 'I' for Inactive)
REMARK    1  A    between atoms: S_1  and  N_4
REMARK    2  A    between atoms: S_1  and  C_5
REMARK    3  A    between atoms: N_8  and  C_13
REMARK    4  A    between atoms: N_10  and  C_14
REMARK    5  A    between atoms: C_16  and  C_19
REMARK    6  A    between atoms: C_19  and  O_23
REMARK    7  A    between atoms: O_23  and  C_26
REMARK    8  A    between atoms: C_24  and  C_27
REMARK    9  A    between atoms: C_24  and  C_28
REMARK   10  A    between atoms: C_26  and  C_29
REMARK                            x       y       z     vdW  Elec       q    Type
REMARK                         _______ _______ _______ _____ _____    ______ ____
ROOT
ATOM      1  C   UNL     1     -10.976  54.801  50.312  0.00  0.00    +0.000 A 
ATOM      2  S   UNL     1     -11.682  54.848  51.859  0.00  0.00    +0.000 S 
ATOM      3  C   UNL     1     -11.585  55.642  49.398  0.00  0.00    +0.000 A 
ATOM      4  C   UNL     1     -12.646  56.186  51.429  0.00  0.00    +0.000 A 
ATOM      5  C   UNL     1     -12.506  56.521  50.092  0.00  0.00    +0.000 A 
ATOM      6  C   UNL     1     -13.533  56.904  52.417  0.00  0.00    +0.000 C 
ATOM      7  C   UNL     1     -13.288  57.648  49.480  0.00  0.00    +0.000 C 
ATOM      8  C   UNL     1     -14.605  57.767  51.682  0.00  0.00    +0.000 C 
ATOM      9  C   UNL     1     -13.932  58.552  50.529  0.00  0.00    +0.000 C 
ATOM     10  C   UNL     1     -15.228  58.795  52.642  0.00  0.00    +0.000 C 
ATOM     11  C   UNL     1     -15.737  56.864  51.148  0.00  0.00    +0.000 C 
ENDROOT
BRANCH   1  15
ATOM     12  N   UNL     1      -7.662  53.447  50.395  0.00  0.00    +0.000 N 
ATOM     13  C   UNL     1      -8.663  54.389  50.599  0.00  0.00    +0.000 C 
ATOM     14  O   UNL     1      -8.443  55.455  51.157  0.00  0.00    +0.000 OA
ATOM     15  N   UNL     1      -9.900  53.942  50.187  0.00  0.00    +0.000 N 
ATOM     16  H   UNL     1      -7.888  52.592  49.962  0.00  0.00    +0.000 HD
ATOM     17  H   UNL     1     -10.015  53.038  49.816  0.00  0.00    +0.000 HD
BRANCH  12  18
ATOM     18  S   UNL     1      -6.089  53.725  50.866  0.00  0.00    +0.000 S 
ATOM     19  O   UNL     1      -5.663  54.985  50.299  0.00  0.00    +0.000 OA
ATOM     20  O   UNL     1      -5.351  52.517  50.562  0.00  0.00    +0.000 OA
BRANCH  18  21
ATOM     21  C   UNL     1      -6.035  53.876  52.652  0.00  0.00    +0.000 A 
ATOM     22  N   UNL     1      -5.464  54.917  53.256  0.00  0.00    +0.000 NA
ATOM     23  N   UNL     1      -6.502  52.994  53.600  0.00  0.00    +0.000 N 
ATOM     24  C   UNL     1      -5.611  54.718  54.600  0.00  0.00    +0.000 A 
ATOM     25  C   UNL     1      -6.246  53.528  54.842  0.00  0.00    +0.000 A 
ATOM     26  C   UNL     1      -7.147  51.712  53.440  0.00  0.00    +0.000 C 
ENDBRANCH  18  21
ENDBRANCH  12  18
ENDBRANCH   1  15
BRANCH   3  27
ATOM     27  C   UNL     1     -11.316  55.615  47.952  0.00  0.00    +0.000 C 
ATOM     28  O   UNL     1     -12.175  55.458  47.092  0.00  0.00    +0.000 OA
BRANCH  27  29
ATOM     29  O   UNL     1     -10.000  55.830  47.678  0.00  0.00    +0.000 OA
BRANCH  29  30
ATOM     30  C   UNL     1      -9.392  55.078  46.628  0.00  0.00    +0.000 C 
ATOM     31  C   UNL     1      -7.942  54.795  46.962  0.00  0.00    +0.000 C 
ENDBRANCH  29  30
ENDBRANCH  27  29
ENDBRANCH   3  27
TORSDOF 6
ENDMDL
MODEL 3
REMARK VINA RESULT:      -7.0      3.994      7.527
REMARK  Name = 
REMARK  10 active torsions:
REMARK  status: ('A' for Active; 'I' for Inactive)
REMARK    1  A    between atoms: S_1  and  N_4
REMARK    2  A    between atoms: S_1  and  C_5
REMARK    3  A    between atoms: N_8  and  C_13
REMARK    4  A    between atoms: N_10  and  C_14
REMARK    5  A    between atoms: C_16  and  C_19
REMARK    6  A    between atoms: C_19  and  O_23
REMARK    7  A    between atoms: O_23  and  C_26
REMARK    8  A    between atoms: C_24  and  C_27
REMARK    9  A    between atoms: C_24  and  C_28
REMARK   10  A    between atoms: C_26  and  C_29
REMARK                            x       y       z     vdW  Elec       q    Type
REMARK                         _______ _______ _______ _____ _____    ______ ____
ROOT
ATOM      1  C   UNL     1      -8.691  54.845  47.235  0.00  0.00    +0.000 A 
ATOM      2  S   UNL     1      -7.470  54.063  46.348  0.00  0.00    +0.000 S 
ATOM      3  C   UNL     1      -9.964  54.623  46.743  0.00  0.00    +0.000 A 
ATOM      4  C   UNL     1      -8.621  53.188  45.445  0.00  0.00    +0.000 A 
ATOM      5  C   UNL     1      -9.918  53.570  45.747  0.00  0.00    +0.000 A 
ATOM      6  C   UNL     1      -8.239  52.123  44.446  0.00  0.00    +0.000 C 
ATOM      7  C   UNL     1     -11.098  52.959  45.047  0.00  0.00    +0.000 C 
ATOM      8  C   UNL     1      -9.419  51.819  43.473  0.00  0.00    +0.000 C 
ATOM      9  C   UNL     1     -10.733  51.689  44.282  0.00  0.00    +0.000 C 
ATOM     10  C   UNL     1      -9.190  50.485  42.741  0.00  0.00    +0.000 C 
ATOM     11  C   UNL     1      -9.532  52.934  42.412  0.00  0.00    +0.000 C 
ENDROOT
BRANCH   1  15
ATOM     12  N   UNL     1      -7.598  55.771  50.518  0.00  0.00    +0.000 N 
ATOM     13  C   UNL     1      -8.013  54.917  49.502  0.00  0.00    +0.000 C 
ATOM     14  O   UNL     1      -8.076  53.706  49.661  0.00  0.00    +0.000 OA
ATOM     15  N   UNL     1      -8.246  55.582  48.317  0.00  0.00    +0.000 N 
ATOM     16  H   UNL     1      -7.539  56.737  50.339  0.00  0.00    +0.000 HD
ATOM     17  H   UNL     1      -8.099  56.552  48.242  0.00  0.00    +0.000 HD
BRANCH  12  18
ATOM     18  S   UNL     1      -7.195  55.200  52.030  0.00  0.00    +0.000 S 
ATOM     19  O   UNL     1      -7.177  56.318  52.945  0.00  0.00    +0.000 OA
ATOM     20  O   UNL     1      -6.003  54.394  51.858  0.00  0.00    +0.000 OA
BRANCH  18  21
ATOM     21  C   UNL     1      -8.463  54.057  52.577  0.00  0.00    +0.000 A 
ATOM     22  N   UNL     1      -8.170  52.837  53.024  0.00  0.00    +0.000 NA
ATOM     23  N   UNL     1      -9.829  54.234  52.585  0.00  0.00    +0.000 N 
ATOM     24  C   UNL     1      -9.356  52.249  53.362  0.00  0.00    +0.000 A 
ATOM     25  C   UNL     1     -10.403  53.091  53.094  0.00  0.00    +0.000 A 
ATOM     26  C   UNL     1     -10.623  55.360  52.154  0.00  0.00    +0.000 C 
ENDBRANCH  18  21
ENDBRANCH  12  18
ENDBRANCH   1  15
BRANCH   3  27
ATOM     27  C   UNL     1     -11.156  55.363  47.185  0.00  0.00    +0.000 C 
ATOM     28  O   UNL     1     -11.868  56.032  46.446  0.00  0.00    +0.000 OA
BRANCH  27  29
ATOM     29  O   UNL     1     -11.401  55.181  48.512  0.00  0.00    +0.000 OA
BRANCH  29  30
ATOM     30  C   UNL     1     -12.355  54.191  48.898  0.00  0.00    +0.000 C 
ATOM     31  C   UNL     1     -11.646  52.985  49.480  0.00  0.00    +0.000 C 
ENDBRANCH  29  30
ENDBRANCH  27  29
ENDBRANCH   3  27
TORSDOF 6
ENDMDL
MODEL 4
REMARK VINA RESULT:      -6.9      4.143      8.127
REMARK  Name = 
REMARK  10 active torsions:
REMARK  status: ('A' for Active; 'I' for Inactive)
REMARK    1  A    between atoms: S_1  and  N_4
REMARK    2  A    between atoms: S_1  and  C_5
REMARK    3  A    between atoms: N_8  and  C_13
REMARK    4  A    between atoms: N_10  and  C_14
REMARK    5  A    between atoms: C_16  and  C_19
REMARK    6  A    between atoms: C_19  and  O_23
REMARK    7  A    between atoms: O_23  and  C_26
REMARK    8  A    between atoms: C_24  and  C_27
REMARK    9  A    between atoms: C_24  and  C_28
REMARK   10  A    between atoms: C_26  and  C_29
REMARK                            x       y       z     vdW  Elec       q    Type
REMARK                         _______ _______ _______ _____ _____    ______ ____
ROOT
ATOM      1  C   UNL     1      -8.666  54.920  47.264  0.00  0.00    +0.000 A 
ATOM      2  S   UNL     1      -7.462  54.091  46.397  0.00  0.00    +0.000 S 
ATOM      3  C   UNL     1      -9.948  54.683  46.801  0.00  0.00    +0.000 A 
ATOM      4  C   UNL     1      -8.631  53.183  45.551  0.00  0.00    +0.000 A 
ATOM      5  C   UNL     1      -9.921  53.585  45.854  0.00  0.00    +0.000 A 
ATOM      6  C   UNL     1      -8.268  52.071  44.597  0.00  0.00    +0.000 C 
ATOM      7  C   UNL     1     -11.114  52.949  45.199  0.00  0.00    +0.000 C 
ATOM      8  C   UNL     1      -9.464  51.729  43.656  0.00  0.00    +0.000 C 
ATOM      9  C   UNL     1     -10.767  51.643  44.488  0.00  0.00    +0.000 C 
ATOM     10  C   UNL     1      -9.252  50.362  42.982  0.00  0.00    +0.000 C 
ATOM     11  C   UNL     1      -9.587  52.795  42.547  0.00  0.00    +0.000 C 
ENDROOT
BRANCH   1  15
ATOM     12  N   UNL     1      -7.684  56.035  50.523  0.00  0.00    +0.000 N 
ATOM     13  C   UNL     1      -8.139  55.140  49.562  0.00  0.00    +0.000 C 
ATOM     14  O   UNL     1      -8.371  53.969  49.827  0.00  0.00    +0.000 OA
ATOM     15  N   UNL     1      -8.202  55.703  48.304  0.00  0.00    +0.000 N 
ATOM     16  H   UNL     1      -7.487  56.963  50.260  0.00  0.00    +0.000 HD
ATOM     17  H   UNL     1      -7.924  56.635  48.151  0.00  0.00    +0.000 HD
BRANCH  12  18
ATOM     18  S   UNL     1      -7.462  55.577  52.109  0.00  0.00    +0.000 S 
ATOM     19  O   UNL     1      -8.575  54.742  52.499  0.00  0.00    +0.000 OA
ATOM     20  O   UNL     1      -7.182  56.790  52.849  0.00  0.00    +0.000 OA
BRANCH  18  21
ATOM     21  C   UNL     1      -5.966  54.595  52.226  0.00  0.00    +0.000 A 
ATOM     22  N   UNL     1      -5.187  54.365  51.170  0.00  0.00    +0.000 NA
ATOM     23  N   UNL     1      -5.451  53.949  53.327  0.00  0.00    +0.000 N 
ATOM     24  C   UNL     1      -4.144  53.603  51.614  0.00  0.00    +0.000 A 
ATOM     25  C   UNL     1      -4.285  53.324  52.947  0.00  0.00    +0.000 A 
ATOM     26  C   UNL     1      -5.958  53.862  54.677  0.00  0.00    +0.000 C 
ENDBRANCH  18  21
ENDBRANCH  12  18
ENDBRANCH   1  15
BRANCH   3  27
ATOM     27  C   UNL     1     -11.129  55.449  47.225  0.00  0.00    +0.000 C 
ATOM     28  O   UNL     1     -11.841  56.098  46.468  0.00  0.00    +0.000 OA
BRANCH  27  29
ATOM     29  O   UNL     1     -11.365  55.317  48.560  0.00  0.00    +0.000 OA
BRANCH  29  30
ATOM     30  C   UNL     1     -11.954  54.103  49.029  0.00  0.00    +0.000 C 
ATOM     31  C   UNL     1     -11.864  54.032  50.540  0.00  0.00    +0.000 C 
ENDBRANCH  29  30
ENDBRANCH  27  29
ENDBRANCH   3  27
TORSDOF 6
ENDMDL
MODEL 5
REMARK VINA RESULT:      -6.9      1.367      1.999
REMARK  Name = 
REMARK  10 active torsions:
REMARK  status: ('A' for Active; 'I' for Inactive)
REMARK    1  A    between atoms: S_1  and  N_4
REMARK    2  A    between atoms: S_1  and  C_5
REMARK    3  A    between atoms: N_8  and  C_13
REMARK    4  A    between atoms: N_10  and  C_14
REMARK    5  A    between atoms: C_16  and  C_19
REMARK    6  A    between atoms: C_19  and  O_23
REMARK    7  A    between atoms: O_23  and  C_26
REMARK    8  A    between atoms: C_24  and  C_27
REMARK    9  A    between atoms: C_24  and  C_28
REMARK   10  A    between atoms: C_26  and  C_29
REMARK                            x       y       z     vdW  Elec       q    Type
REMARK                         _______ _______ _______ _____ _____    ______ ____
ROOT
ATOM      1  C   UNL     1     -10.896  53.591  51.680  0.00  0.00    +0.000 A 
ATOM      2  S   UNL     1     -10.134  53.756  53.191  0.00  0.00    +0.000 S 
ATOM      3  C   UNL     1     -10.036  53.216  50.663  0.00  0.00    +0.000 A 
ATOM      4  C   UNL     1      -8.692  53.073  52.591  0.00  0.00    +0.000 A 
ATOM      5  C   UNL     1      -8.761  52.823  51.231  0.00  0.00    +0.000 A 
ATOM      6  C   UNL     1      -7.499  52.782  53.469  0.00  0.00    +0.000 C 
ATOM      7  C   UNL     1      -7.592  52.254  50.478  0.00  0.00    +0.000 C 
ATOM      8  C   UNL     1      -6.208  52.593  52.614  0.00  0.00    +0.000 C 
ATOM      9  C   UNL     1      -6.522  51.680  51.403  0.00  0.00    +0.000 C 
ATOM     10  C   UNL     1      -5.106  51.907  53.439  0.00  0.00    +0.000 C 
ATOM     11  C   UNL     1      -5.675  53.964  52.149  0.00  0.00    +0.000 C 
ENDROOT
BRANCH   1  15
ATOM     12  N   UNL     1     -14.052  55.280  51.594  0.00  0.00    +0.000 N 
ATOM     13  C   UNL     1     -12.669  55.154  51.552  0.00  0.00    +0.000 C 
ATOM     14  O   UNL     1     -11.938  56.112  51.342  0.00  0.00    +0.000 OA
ATOM     15  N   UNL     1     -12.254  53.845  51.680  0.00  0.00    +0.000 N 
ATOM     16  H   UNL     1     -14.603  54.478  51.743  0.00  0.00    +0.000 HD
ATOM     17  H   UNL     1     -12.906  53.113  51.769  0.00  0.00    +0.000 HD
BRANCH  12  18
ATOM     18  S   UNL     1     -14.803  56.754  51.400  0.00  0.00    +0.000 S 
ATOM     19  O   UNL     1     -14.236  57.680  52.354  0.00  0.00    +0.000 OA
ATOM     20  O   UNL     1     -16.227  56.493  51.413  0.00  0.00    +0.000 OA
BRANCH  18  21
ATOM     21  C   UNL     1     -14.451  57.373  49.753  0.00  0.00    +0.000 A 
ATOM     22  N   UNL     1     -14.301  56.558  48.710  0.00  0.00    +0.000 NA
ATOM     23  N   UNL     1     -14.261  58.675  49.351  0.00  0.00    +0.000 N 
ATOM     24  C   UNL     1     -14.058  57.353  47.626  0.00  0.00    +0.000 A 
ATOM     25  C   UNL     1     -14.021  58.671  47.996  0.00  0.00    +0.000 A 
ATOM     26  C   UNL     1     -14.275  59.897  50.119  0.00  0.00    +0.000 C 
ENDBRANCH  18  21
ENDBRANCH  12  18
ENDBRANCH   1  15
BRANCH   3  27
ATOM     27  C   UNL     1     -10.396  53.231  49.237  0.00  0.00    +0.000 C 
ATOM     28  O   UNL     1     -10.465  52.232  48.531  0.00  0.00    +0.000 OA
BRANCH  27  29
ATOM     29  O   UNL     1     -10.689  54.488  48.802  0.00  0.00    +0.000 OA
BRANCH  29  30
ATOM     30  C   UNL     1      -9.619  55.424  48.662  0.00  0.00    +0.000 C 
ATOM     31  C   UNL     1      -8.944  55.245  47.318  0.00  0.00    +0.000 C 
ENDBRANCH  29  30
ENDBRANCH  27  29
ENDBRANCH   3  27
TORSDOF 6
ENDMDL
MODEL 6
REMARK VINA RESULT:      -6.9      3.599      5.985
REMARK  Name = 
REMARK  10 active torsions:
REMARK  status: ('A' for Active; 'I' for Inactive)
REMARK    1  A    between atoms: S_1  and  N_4
REMARK    2  A    between atoms: S_1  and  C_5
REMARK    3  A    between atoms: N_8  and  C_13
REMARK    4  A    between atoms: N_10  and  C_14
REMARK    5  A    between atoms: C_16  and  C_19
REMARK    6  A    between atoms: C_19  and  O_23
REMARK    7  A    between atoms: O_23  and  C_26
REMARK    8  A    between atoms: C_24  and  C_27
REMARK    9  A    between atoms: C_24  and  C_28
REMARK   10  A    between atoms: C_26  and  C_29
REMARK                            x       y       z     vdW  Elec       q    Type
REMARK                         _______ _______ _______ _____ _____    ______ ____
ROOT
ATOM      1  C   UNL     1     -10.500  54.236  46.530  0.00  0.00    +0.000 A 
ATOM      2  S   UNL     1     -11.455  53.646  45.253  0.00  0.00    +0.000 S 
ATOM      3  C   UNL     1      -9.336  53.515  46.732  0.00  0.00    +0.000 A 
ATOM      4  C   UNL     1     -10.221  52.579  44.760  0.00  0.00    +0.000 A 
ATOM      5  C   UNL     1      -9.139  52.601  45.624  0.00  0.00    +0.000 A 
ATOM      6  C   UNL     1     -10.324  51.729  43.517  0.00  0.00    +0.000 C 
ATOM      7  C   UNL     1      -7.945  51.714  45.408  0.00  0.00    +0.000 C 
ATOM      8  C   UNL     1      -9.293  50.559  43.552  0.00  0.00    +0.000 C 
ATOM      9  C   UNL     1      -7.916  51.100  44.011  0.00  0.00    +0.000 C 
ATOM     10  C   UNL     1      -9.110  49.954  42.149  0.00  0.00    +0.000 C 
ATOM     11  C   UNL     1      -9.789  49.443  44.494  0.00  0.00    +0.000 C 
ENDROOT
BRANCH   1  15
ATOM     12  N   UNL     1     -12.228  56.334  48.861  0.00  0.00    +0.000 N 
ATOM     13  C   UNL     1     -11.749  55.146  48.323  0.00  0.00    +0.000 C 
ATOM     14  O   UNL     1     -11.919  54.069  48.879  0.00  0.00    +0.000 OA
ATOM     15  N   UNL     1     -11.010  55.346  47.176  0.00  0.00    +0.000 N 
ATOM     16  H   UNL     1     -12.049  57.180  48.392  0.00  0.00    +0.000 HD
ATOM     17  H   UNL     1     -10.849  56.253  46.828  0.00  0.00    +0.000 HD
BRANCH  12  18
ATOM     18  S   UNL     1     -13.099  56.363  50.281  0.00  0.00    +0.000 S 
ATOM     19  O   UNL     1     -12.172  56.233  51.383  0.00  0.00    +0.000 OA
ATOM     20  O   UNL     1     -14.167  55.397  50.125  0.00  0.00    +0.000 OA
BRANCH  18  21
ATOM     21  C   UNL     1     -13.915  57.952  50.430  0.00  0.00    +0.000 A 
ATOM     22  N   UNL     1     -13.715  58.934  49.553  0.00  0.00    +0.000 NA
ATOM     23  N   UNL     1     -14.777  58.382  51.414  0.00  0.00    +0.000 N 
ATOM     24  C   UNL     1     -14.492  59.983  49.957  0.00  0.00    +0.000 A 
ATOM     25  C   UNL     1     -15.156  59.671  51.114  0.00  0.00    +0.000 A 
ATOM     26  C   UNL     1     -15.255  57.702  52.595  0.00  0.00    +0.000 C 
ENDBRANCH  18  21
ENDBRANCH  12  18
ENDBRANCH   1  15
BRANCH   3  27
ATOM     27  C   UNL     1      -8.464  53.677  47.905  0.00  0.00    +0.000 C 
ATOM     28  O   UNL     1      -8.117  52.760  48.640  0.00  0.00    +0.000 OA
BRANCH  27  29
ATOM     29  O   UNL     1      -8.049  54.965  48.053  0.00  0.00    +0.000 OA
BRANCH  29  30
ATOM     30  C   UNL     1      -7.806  55.453  49.373  0.00  0.00    +0.000 C 
ATOM     31  C   UNL     1      -8.700  56.642  49.660  0.00  0.00    +0.000 C 
ENDBRANCH  29  30
ENDBRANCH  27  29
ENDBRANCH   3  27
TORSDOF 6
ENDMDL
MODEL 7
REMARK VINA RESULT:      -6.6      3.930      7.615
REMARK  Name = 
REMARK  10 active torsions:
REMARK  status: ('A' for Active; 'I' for Inactive)
REMARK    1  A    between atoms: S_1  and  N_4
REMARK    2  A    between atoms: S_1  and  C_5
REMARK    3  A    between atoms: N_8  and  C_13
REMARK    4  A    between atoms: N_10  and  C_14
REMARK    5  A    between atoms: C_16  and  C_19
REMARK    6  A    between atoms: C_19  and  O_23
REMARK    7  A    between atoms: O_23  and  C_26
REMARK    8  A    between atoms: C_24  and  C_27
REMARK    9  A    between atoms: C_24  and  C_28
REMARK   10  A    between atoms: C_26  and  C_29
REMARK                            x       y       z     vdW  Elec       q    Type
REMARK                         _______ _______ _______ _____ _____    ______ ____
ROOT
ATOM      1  C   UNL     1     -11.980  56.037  47.789  0.00  0.00    +0.000 A 
ATOM      2  S   UNL     1     -13.616  56.501  47.791  0.00  0.00    +0.000 S 
ATOM      3  C   UNL     1     -11.373  56.133  49.028  0.00  0.00    +0.000 A 
ATOM      4  C   UNL     1     -13.636  56.587  49.494  0.00  0.00    +0.000 A 
ATOM      5  C   UNL     1     -12.384  56.367  50.041  0.00  0.00    +0.000 A 
ATOM      6  C   UNL     1     -14.893  56.864  50.282  0.00  0.00    +0.000 C 
ATOM      7  C   UNL     1     -12.154  56.430  51.525  0.00  0.00    +0.000 C 
ATOM      8  C   UNL     1     -14.554  57.322  51.734  0.00  0.00    +0.000 C 
ATOM      9  C   UNL     1     -13.457  56.399  52.321  0.00  0.00    +0.000 C 
ATOM     10  C   UNL     1     -15.790  57.210  52.643  0.00  0.00    +0.000 C 
ATOM     11  C   UNL     1     -14.093  58.794  51.732  0.00  0.00    +0.000 C 
ENDROOT
BRANCH   1  15
ATOM     12  N   UNL     1     -10.904  53.990  45.054  0.00  0.00    +0.000 N 
ATOM     13  C   UNL     1     -11.439  54.273  46.305  0.00  0.00    +0.000 C 
ATOM     14  O   UNL     1     -11.878  53.395  47.034  0.00  0.00    +0.000 OA
ATOM     15  N   UNL     1     -11.491  55.627  46.562  0.00  0.00    +0.000 N 
ATOM     16  H   UNL     1     -10.584  54.730  44.490  0.00  0.00    +0.000 HD
ATOM     17  H   UNL     1     -11.190  56.282  45.893  0.00  0.00    +0.000 HD
BRANCH  12  18
ATOM     18  S   UNL     1     -10.792  52.429  44.483  0.00  0.00    +0.000 S 
ATOM     19  O   UNL     1     -10.144  52.465  43.192  0.00  0.00    +0.000 OA
ATOM     20  O   UNL     1     -12.115  51.853  44.607  0.00  0.00    +0.000 OA
BRANCH  18  21
ATOM     21  C   UNL     1      -9.756  51.477  45.595  0.00  0.00    +0.000 A 
ATOM     22  N   UNL     1     -10.141  50.299  46.084  0.00  0.00    +0.000 NA
ATOM     23  N   UNL     1      -8.520  51.805  46.105  0.00  0.00    +0.000 N 
ATOM     24  C   UNL     1      -9.120  49.853  46.876  0.00  0.00    +0.000 A 
ATOM     25  C   UNL     1      -8.104  50.771  46.912  0.00  0.00    +0.000 A 
ATOM     26  C   UNL     1      -7.717  52.989  45.909  0.00  0.00    +0.000 C 
ENDBRANCH  18  21
ENDBRANCH  12  18
ENDBRANCH   1  15
BRANCH   3  27
ATOM     27  C   UNL     1      -9.923  56.014  49.244  0.00  0.00    +0.000 C 
ATOM     28  O   UNL     1      -9.200  56.934  49.606  0.00  0.00    +0.000 OA
BRANCH  27  29
ATOM     29  O   UNL     1      -9.483  54.742  49.034  0.00  0.00    +0.000 OA
BRANCH  29  30
ATOM     30  C   UNL     1      -9.909  53.719  49.934  0.00  0.00    +0.000 C 
ATOM     31  C   UNL     1      -9.277  53.928  51.296  0.00  0.00    +0.000 C 
ENDBRANCH  29  30
ENDBRANCH  27  29
ENDBRANCH   3  27
TORSDOF 6
ENDMDL
MODEL 8
REMARK VINA RESULT:      -6.6      2.230      2.871
REMARK  Name = 
REMARK  10 active torsions:
REMARK  status: ('A' for Active; 'I' for Inactive)
REMARK    1  A    between atoms: S_1  and  N_4
REMARK    2  A    between atoms: S_1  and  C_5
REMARK    3  A    between atoms: N_8  and  C_13
REMARK    4  A    between atoms: N_10  and  C_14
REMARK    5  A    between atoms: C_16  and  C_19
REMARK    6  A    between atoms: C_19  and  O_23
REMARK    7  A    between atoms: O_23  and  C_26
REMARK    8  A    between atoms: C_24  and  C_27
REMARK    9  A    between atoms: C_24  and  C_28
REMARK   10  A    between atoms: C_26  and  C_29
REMARK                            x       y       z     vdW  Elec       q    Type
REMARK                         _______ _______ _______ _____ _____    ______ ____
ROOT
ATOM      1  C   UNL     1      -8.536  55.745  50.000  0.00  0.00    +0.000 A 
ATOM      2  S   UNL     1      -8.032  55.988  51.606  0.00  0.00    +0.000 S 
ATOM      3  C   UNL     1      -7.820  54.766  49.335  0.00  0.00    +0.000 A 
ATOM      4  C   UNL     1      -7.027  54.612  51.547  0.00  0.00    +0.000 A 
ATOM      5  C   UNL     1      -6.999  54.042  50.286  0.00  0.00    +0.000 A 
ATOM      6  C   UNL     1      -6.274  54.098  52.751  0.00  0.00    +0.000 C 
ATOM      7  C   UNL     1      -6.151  52.837  49.988  0.00  0.00    +0.000 C 
ATOM      8  C   UNL     1      -5.122  53.137  52.322  0.00  0.00    +0.000 C 
ATOM      9  C   UNL     1      -5.648  52.147  51.254  0.00  0.00    +0.000 C 
ATOM     10  C   UNL     1      -4.631  52.309  53.522  0.00  0.00    +0.000 C 
ATOM     11  C   UNL     1      -3.928  53.951  51.781  0.00  0.00    +0.000 C 
ENDROOT
BRANCH   1  15
ATOM     12  N   UNL     1     -11.829  56.972  49.309  0.00  0.00    +0.000 N 
ATOM     13  C   UNL     1     -10.869  56.089  49.789  0.00  0.00    +0.000 C 
ATOM     14  O   UNL     1     -11.172  55.066  50.387  0.00  0.00    +0.000 OA
ATOM     15  N   UNL     1      -9.584  56.548  49.590  0.00  0.00    +0.000 N 
ATOM     16  H   UNL     1     -11.539  57.795  48.854  0.00  0.00    +0.000 HD
ATOM     17  H   UNL     1      -9.417  57.421  49.168  0.00  0.00    +0.000 HD
BRANCH  12  18
ATOM     18  S   UNL     1     -13.458  56.673  49.486  0.00  0.00    +0.000 S 
ATOM     19  O   UNL     1     -13.637  55.254  49.695  0.00  0.00    +0.000 OA
ATOM     20  O   UNL     1     -14.115  57.322  48.371  0.00  0.00    +0.000 OA
BRANCH  18  21
ATOM     21  C   UNL     1     -14.051  57.527  50.947  0.00  0.00    +0.000 A 
ATOM     22  N   UNL     1     -14.472  56.870  52.027  0.00  0.00    +0.000 NA
ATOM     23  N   UNL     1     -14.187  58.881  51.150  0.00  0.00    +0.000 N 
ATOM     24  C   UNL     1     -14.837  57.817  52.942  0.00  0.00    +0.000 A 
ATOM     25  C   UNL     1     -14.677  59.074  52.422  0.00  0.00    +0.000 A 
ATOM     26  C   UNL     1     -13.911  59.987  50.264  0.00  0.00    +0.000 C 
ENDBRANCH  18  21
ENDBRANCH  12  18
ENDBRANCH   1  15
BRANCH   3  27
ATOM     27  C   UNL     1      -7.904  54.529  47.886  0.00  0.00    +0.000 C 
ATOM     28  O   UNL     1      -6.967  54.660  47.109  0.00  0.00    +0.000 OA
BRANCH  27  29
ATOM     29  O   UNL     1      -9.143  54.103  47.514  0.00  0.00    +0.000 OA
BRANCH  29  30
ATOM     30  C   UNL     1      -9.749  54.696  46.365  0.00  0.00    +0.000 C 
ATOM     31  C   UNL     1      -9.867  53.674  45.253  0.00  0.00    +0.000 C 
ENDBRANCH  29  30
ENDBRANCH  27  29
ENDBRANCH   3  27
TORSDOF 6
ENDMDL
MODEL 9
REMARK VINA RESULT:      -6.4      1.842      2.621
REMARK  Name = 
REMARK  10 active torsions:
REMARK  status: ('A' for Active; 'I' for Inactive)
REMARK    1  A    between atoms: S_1  and  N_4
REMARK    2  A    between atoms: S_1  and  C_5
REMARK    3  A    between atoms: N_8  and  C_13
REMARK    4  A    between atoms: N_10  and  C_14
REMARK    5  A    between atoms: C_16  and  C_19
REMARK    6  A    between atoms: C_19  and  O_23
REMARK    7  A    between atoms: O_23  and  C_26
REMARK    8  A    between atoms: C_24  and  C_27
REMARK    9  A    between atoms: C_24  and  C_28
REMARK   10  A    between atoms: C_26  and  C_29
REMARK                            x       y       z     vdW  Elec       q    Type
REMARK                         _______ _______ _______ _____ _____    ______ ____
ROOT
ATOM      1  C   UNL     1     -10.508  54.062  50.472  0.00  0.00    +0.000 A 
ATOM      2  S   UNL     1      -9.551  54.887  51.610  0.00  0.00    +0.000 S 
ATOM      3  C   UNL     1      -9.775  53.432  49.482  0.00  0.00    +0.000 A 
ATOM      4  C   UNL     1      -8.125  54.205  50.974  0.00  0.00    +0.000 A 
ATOM      5  C   UNL     1      -8.370  53.444  49.843  0.00  0.00    +0.000 A 
ATOM      6  C   UNL     1      -6.767  54.420  51.599  0.00  0.00    +0.000 C 
ATOM      7  C   UNL     1      -7.255  52.775  49.090  0.00  0.00    +0.000 C 
ATOM      8  C   UNL     1      -5.626  54.073  50.593  0.00  0.00    +0.000 C 
ATOM      9  C   UNL     1      -5.952  52.735  49.886  0.00  0.00    +0.000 C 
ATOM     10  C   UNL     1      -4.288  53.896  51.329  0.00  0.00    +0.000 C 
ATOM     11  C   UNL     1      -5.461  55.214  49.566  0.00  0.00    +0.000 C 
ENDROOT
BRANCH   1  15
ATOM     12  N   UNL     1     -13.921  55.147  50.445  0.00  0.00    +0.000 N 
ATOM     13  C   UNL     1     -12.569  55.174  50.124  0.00  0.00    +0.000 C 
ATOM     14  O   UNL     1     -12.103  56.001  49.352  0.00  0.00    +0.000 OA
ATOM     15  N   UNL     1     -11.870  54.131  50.694  0.00  0.00    +0.000 N 
ATOM     16  H   UNL     1     -14.257  54.449  51.052  0.00  0.00    +0.000 HD
ATOM     17  H   UNL     1     -12.328  53.455  51.244  0.00  0.00    +0.000 HD
BRANCH  12  18
ATOM     18  S   UNL     1     -14.989  56.267  49.827  0.00  0.00    +0.000 S 
ATOM     19  O   UNL     1     -16.327  55.870  50.203  0.00  0.00    +0.000 OA
ATOM     20  O   UNL     1     -14.653  56.422  48.427  0.00  0.00    +0.000 OA
BRANCH  18  21
ATOM     21  C   UNL     1     -14.654  57.863  50.573  0.00  0.00    +0.000 A 
ATOM     22  N   UNL     1     -14.203  58.894  49.861  0.00  0.00    +0.000 NA
ATOM     23  N   UNL     1     -14.766  58.229  51.895  0.00  0.00    +0.000 N 
ATOM     24  C   UNL     1     -14.071  59.940  50.731  0.00  0.00    +0.000 A 
ATOM     25  C   UNL     1     -14.407  59.554  52.001  0.00  0.00    +0.000 A 
ATOM     26  C   UNL     1     -15.165  57.453  53.045  0.00  0.00    +0.000 C 
ENDBRANCH  18  21
ENDBRANCH  12  18
ENDBRANCH   1  15
BRANCH   3  27
ATOM     27  C   UNL     1     -10.365  52.853  48.265  0.00  0.00    +0.000 C 
ATOM     28  O   UNL     1     -11.115  51.884  48.254  0.00  0.00    +0.000 OA
BRANCH  27  29
ATOM     29  O   UNL     1     -10.013  53.552  47.151  0.00  0.00    +0.000 OA
BRANCH  29  30
ATOM     30  C   UNL     1     -10.842  53.445  45.992  0.00  0.00    +0.000 C 
ATOM     31  C   UNL     1     -11.707  54.682  45.856  0.00  0.00    +0.000 C 
ENDBRANCH  29  30
ENDBRANCH  27  29
ENDBRANCH   3  27
TORSDOF 6
ENDMDL
