MODEL 1
REMARK VINA RESULT:      -8.3      0.000      0.000
REMARK  Name = 
REMARK  10 active torsions:
REMARK  status: ('A' for Active; 'I' for Inactive)
REMARK    1  A    between atoms: S_1  and  N_4
REMARK    2  A    between atoms: S_1  and  C_5
REMARK    3  A    between atoms: C_7  and  C_12
REMARK    4  A    between atoms: N_10  and  C_14
REMARK    5  A    between atoms: C_20  and  C_23
REMARK    6  A    between atoms: C_23  and  O_27
REMARK    7  A    between atoms: O_27  and  C_30
REMARK    8  A    between atoms: C_28  and  C_31
REMARK    9  A    between atoms: C_28  and  C_32
REMARK   10  A    between atoms: C_30  and  C_33
REMARK                            x       y       z     vdW  Elec       q    Type
REMARK                         _______ _______ _______ _____ _____    ______ ____
ROOT
ATOM      1  N   UNL     1     -11.786  56.814  49.556  0.00  0.00    +0.000 N 
ATOM      2  C   UNL     1     -10.720  55.934  49.378  0.00  0.00    +0.000 C 
ATOM      3  O   UNL     1     -10.863  54.744  49.641  0.00  0.00    +0.000 OA
ATOM      4  N   UNL     1      -9.536  56.511  48.984  0.00  0.00    +0.000 N 
ATOM      5  H   UNL     1     -11.632  57.778  49.428  0.00  0.00    +0.000 HD
ATOM      6  H   UNL     1      -9.487  57.466  48.752  0.00  0.00    +0.000 HD
ENDROOT
BRANCH   4   7
ATOM      7  C   UNL     1      -8.407  55.693  48.926  0.00  0.00    +0.000 A 
ATOM      8  S   UNL     1      -8.151  54.799  47.483  0.00  0.00    +0.000 S 
ATOM      9  C   UNL     1      -7.401  55.477  49.851  0.00  0.00    +0.000 A 
ATOM     10  C   UNL     1      -6.616  54.267  47.990  0.00  0.00    +0.000 A 
ATOM     11  C   UNL     1      -6.311  54.734  49.256  0.00  0.00    +0.000 A 
ATOM     12  C   UNL     1      -5.706  53.396  47.140  0.00  0.00    +0.000 C 
ATOM     13  C   UNL     1      -5.005  54.412  49.921  0.00  0.00    +0.000 C 
ATOM     14  C   UNL     1      -4.574  52.752  48.015  0.00  0.00    +0.000 C 
ATOM     15  C   UNL     1      -3.981  53.837  48.947  0.00  0.00    +0.000 C 
ATOM     16  C   UNL     1      -3.406  52.217  47.164  0.00  0.00    +0.000 C 
ATOM     17  C   UNL     1      -5.140  51.567  48.827  0.00  0.00    +0.000 C 
BRANCH   9  18
ATOM     18  C   UNL     1      -7.476  55.909  51.243  0.00  0.00    +0.000 C 
ATOM     19  O   UNL     1      -7.453  57.077  51.595  0.00  0.00    +0.000 OA
BRANCH  18  20
ATOM     20  O   UNL     1      -7.561  54.835  52.075  0.00  0.00    +0.000 OA
BRANCH  20  21
ATOM     21  C   UNL     1      -8.364  54.983  53.246  0.00  0.00    +0.000 C 
ATOM     22  C   UNL     1      -9.807  54.697  52.920  0.00  0.00    +0.000 C 
ENDBRANCH  20  21
ENDBRANCH  18  20
ENDBRANCH   9  18
ENDBRANCH   4   7
BRANCH   1  23
ATOM     23  S   UNL     1     -13.321  56.289  49.980  0.00  0.00    +0.000 S 
ATOM     24  O   UNL     1     -13.148  55.044  50.712  0.00  0.00    +0.000 OA
ATOM     25  O   UNL     1     -14.123  56.285  48.778  0.00  0.00    +0.000 OA
BRANCH  23  26
ATOM     26  C   UNL     1     -14.062  57.478  51.104  0.00  0.00    +0.000 A 
ATOM     27  C   UNL     1     -14.368  58.820  50.779  0.00  0.00    +0.000 A 
ATOM     28  C   UNL     1     -14.441  56.972  52.358  0.00  0.00    +0.000 A 
ATOM     29  C   UNL     1     -15.092  59.584  51.736  0.00  0.00    +0.000 A 
ATOM     30  C   UNL     1     -15.119  57.753  53.296  0.00  0.00    +0.000 A 
ATOM     31  C   UNL     1     -15.459  59.058  52.969  0.00  0.00    +0.000 A 
BRANCH  27  32
ATOM     32  C   UNL     1     -13.936  59.517  49.523  0.00  0.00    +0.000 C 
ATOM     33  F   UNL     1     -14.197  58.864  48.369  0.00  0.00    +0.000 F 
ATOM     34  F   UNL     1     -14.497  60.755  49.391  0.00  0.00    +0.000 F 
ATOM     35  F   UNL     1     -12.586  59.734  49.508  0.00  0.00    +0.000 F 
ENDBRANCH  27  32
ENDBRANCH  23  26
ENDBRANCH   1  23
TORSDOF 7
ENDMDL
MODEL 2
REMARK VINA RESULT:      -8.3      2.404      3.778
REMARK  Name = 
REMARK  10 active torsions:
REMARK  status: ('A' for Active; 'I' for Inactive)
REMARK    1  A    between atoms: S_1  and  N_4
REMARK    2  A    between atoms: S_1  and  C_5
REMARK    3  A    between atoms: C_7  and  C_12
REMARK    4  A    between atoms: N_10  and  C_14
REMARK    5  A    between atoms: C_20  and  C_23
REMARK    6  A    between atoms: C_23  and  O_27
REMARK    7  A    between atoms: O_27  and  C_30
REMARK    8  A    between atoms: C_28  and  C_31
REMARK    9  A    between atoms: C_28  and  C_32
REMARK   10  A    between atoms: C_30  and  C_33
REMARK                            x       y       z     vdW  Elec       q    Type
REMARK                         _______ _______ _______ _____ _____    ______ ____
ROOT
ATOM      1  N   UNL     1     -11.214  56.472  49.471  0.00  0.00    +0.000 N 
ATOM      2  C   UNL     1     -10.268  55.468  49.269  0.00  0.00    +0.000 C 
ATOM      3  O   UNL     1     -10.349  54.419  49.900  0.00  0.00    +0.000 OA
ATOM      4  N   UNL     1      -9.246  55.784  48.406  0.00  0.00    +0.000 N 
ATOM      5  H   UNL     1     -11.086  57.340  49.026  0.00  0.00    +0.000 HD
ATOM      6  H   UNL     1      -9.250  56.627  47.898  0.00  0.00    +0.000 HD
ENDROOT
BRANCH   4   7
ATOM      7  C   UNL     1      -8.203  54.866  48.277  0.00  0.00    +0.000 A 
ATOM      8  S   UNL     1      -6.907  54.977  49.398  0.00  0.00    +0.000 S 
ATOM      9  C   UNL     1      -8.023  53.825  47.384  0.00  0.00    +0.000 A 
ATOM     10  C   UNL     1      -6.193  53.537  48.838  0.00  0.00    +0.000 A 
ATOM     11  C   UNL     1      -6.909  52.992  47.788  0.00  0.00    +0.000 A 
ATOM     12  C   UNL     1      -4.931  52.938  49.436  0.00  0.00    +0.000 C 
ATOM     13  C   UNL     1      -6.488  51.713  47.127  0.00  0.00    +0.000 C 
ATOM     14  C   UNL     1      -4.310  51.870  48.470  0.00  0.00    +0.000 C 
ATOM     15  C   UNL     1      -5.440  50.955  47.937  0.00  0.00    +0.000 C 
ATOM     16  C   UNL     1      -3.300  50.949  49.183  0.00  0.00    +0.000 C 
ATOM     17  C   UNL     1      -3.566  52.569  47.312  0.00  0.00    +0.000 C 
BRANCH   9  18
ATOM     18  C   UNL     1      -8.831  53.640  46.183  0.00  0.00    +0.000 C 
ATOM     19  O   UNL     1      -8.382  53.678  45.049  0.00  0.00    +0.000 OA
BRANCH  18  20
ATOM     20  O   UNL     1     -10.137  53.437  46.509  0.00  0.00    +0.000 OA
BRANCH  20  21
ATOM     21  C   UNL     1     -11.116  53.845  45.553  0.00  0.00    +0.000 C 
ATOM     22  C   UNL     1     -11.920  54.995  46.101  0.00  0.00    +0.000 C 
ENDBRANCH  20  21
ENDBRANCH  18  20
ENDBRANCH   9  18
ENDBRANCH   4   7
BRANCH   1  23
ATOM     23  S   UNL     1     -12.561  56.252  50.445  0.00  0.00    +0.000 S 
ATOM     24  O   UNL     1     -12.073  56.139  51.810  0.00  0.00    +0.000 OA
ATOM     25  O   UNL     1     -13.324  55.160  49.886  0.00  0.00    +0.000 OA
BRANCH  23  26
ATOM     26  C   UNL     1     -13.596  57.717  50.361  0.00  0.00    +0.000 A 
ATOM     27  C   UNL     1     -14.391  58.210  51.423  0.00  0.00    +0.000 A 
ATOM     28  C   UNL     1     -13.508  58.455  49.170  0.00  0.00    +0.000 A 
ATOM     29  C   UNL     1     -15.032  59.467  51.240  0.00  0.00    +0.000 A 
ATOM     30  C   UNL     1     -14.177  59.668  49.001  0.00  0.00    +0.000 A 
ATOM     31  C   UNL     1     -14.925  60.179  50.052  0.00  0.00    +0.000 A 
BRANCH  27  32
ATOM     32  C   UNL     1     -14.654  57.480  52.706  0.00  0.00    +0.000 C 
ATOM     33  F   UNL     1     -13.598  57.356  53.540  0.00  0.00    +0.000 F 
ATOM     34  F   UNL     1     -15.650  58.055  53.442  0.00  0.00    +0.000 F 
ATOM     35  F   UNL     1     -15.076  56.199  52.478  0.00  0.00    +0.000 F 
ENDBRANCH  27  32
ENDBRANCH  23  26
ENDBRANCH   1  23
TORSDOF 7
ENDMDL
MODEL 3
REMARK VINA RESULT:      -8.3      1.984      3.123
REMARK  Name = 
REMARK  10 active torsions:
REMARK  status: ('A' for Active; 'I' for Inactive)
REMARK    1  A    between atoms: S_1  and  N_4
REMARK    2  A    between atoms: S_1  and  C_5
REMARK    3  A    between atoms: C_7  and  C_12
REMARK    4  A    between atoms: N_10  and  C_14
REMARK    5  A    between atoms: C_20  and  C_23
REMARK    6  A    between atoms: C_23  and  O_27
REMARK    7  A    between atoms: O_27  and  C_30
REMARK    8  A    between atoms: C_28  and  C_31
REMARK    9  A    between atoms: C_28  and  C_32
REMARK   10  A    between atoms: C_30  and  C_33
REMARK                            x       y       z     vdW  Elec       q    Type
REMARK                         _______ _______ _______ _____ _____    ______ ____
ROOT
ATOM      1  N   UNL     1     -11.748  56.719  49.276  0.00  0.00    +0.000 N 
ATOM      2  C   UNL     1     -10.723  55.865  49.679  0.00  0.00    +0.000 C 
ATOM      3  O   UNL     1     -10.991  54.849  50.311  0.00  0.00    +0.000 OA
ATOM      4  N   UNL     1      -9.449  56.293  49.388  0.00  0.00    +0.000 N 
ATOM      5  H   UNL     1     -11.513  57.574  48.849  0.00  0.00    +0.000 HD
ATOM      6  H   UNL     1      -9.293  57.098  48.846  0.00  0.00    +0.000 HD
ENDROOT
BRANCH   4   7
ATOM      7  C   UNL     1      -8.386  55.542  49.891  0.00  0.00    +0.000 A 
ATOM      8  S   UNL     1      -7.920  55.821  51.519  0.00  0.00    +0.000 S 
ATOM      9  C   UNL     1      -7.618  54.556  49.297  0.00  0.00    +0.000 A 
ATOM     10  C   UNL     1      -6.829  54.514  51.516  0.00  0.00    +0.000 A 
ATOM     11  C   UNL     1      -6.792  53.889  50.282  0.00  0.00    +0.000 A 
ATOM     12  C   UNL     1      -6.015  54.096  52.729  0.00  0.00    +0.000 C 
ATOM     13  C   UNL     1      -5.914  52.700  50.028  0.00  0.00    +0.000 C 
ATOM     14  C   UNL     1      -4.837  53.150  52.310  0.00  0.00    +0.000 C 
ATOM     15  C   UNL     1      -5.371  52.089  51.317  0.00  0.00    +0.000 C 
ATOM     16  C   UNL     1      -4.251  52.376  53.506  0.00  0.00    +0.000 C 
ATOM     17  C   UNL     1      -3.691  53.974  51.683  0.00  0.00    +0.000 C 
BRANCH   9  18
ATOM     18  C   UNL     1      -7.625  54.277  47.865  0.00  0.00    +0.000 C 
ATOM     19  O   UNL     1      -6.632  54.328  47.157  0.00  0.00    +0.000 OA
BRANCH  18  20
ATOM     20  O   UNL     1      -8.882  53.971  47.441  0.00  0.00    +0.000 OA
BRANCH  20  21
ATOM     21  C   UNL     1      -9.358  54.649  46.279  0.00  0.00    +0.000 C 
ATOM     22  C   UNL     1     -10.853  54.496  46.171  0.00  0.00    +0.000 C 
ENDBRANCH  20  21
ENDBRANCH  18  20
ENDBRANCH   9  18
ENDBRANCH   4   7
BRANCH   1  23
ATOM     23  S   UNL     1     -13.367  56.342  49.493  0.00  0.00    +0.000 S 
ATOM     24  O   UNL     1     -13.414  54.964  49.958  0.00  0.00    +0.000 OA
ATOM     25  O   UNL     1     -14.060  56.690  48.274  0.00  0.00    +0.000 OA
BRANCH  23  26
ATOM     26  C   UNL     1     -14.044  57.374  50.798  0.00  0.00    +0.000 A 
ATOM     27  C   UNL     1     -14.274  58.766  50.694  0.00  0.00    +0.000 A 
ATOM     28  C   UNL     1     -14.455  56.696  51.957  0.00  0.00    +0.000 A 
ATOM     29  C   UNL     1     -14.958  59.405  51.765  0.00  0.00    +0.000 A 
ATOM     30  C   UNL     1     -15.091  57.353  53.011  0.00  0.00    +0.000 A 
ATOM     31  C   UNL     1     -15.357  58.711  52.900  0.00  0.00    +0.000 A 
BRANCH  27  32
ATOM     32  C   UNL     1     -13.800  59.630  49.563  0.00  0.00    +0.000 C 
ATOM     33  F   UNL     1     -14.265  59.301  48.337  0.00  0.00    +0.000 F 
ATOM     34  F   UNL     1     -14.111  60.947  49.743  0.00  0.00    +0.000 F 
ATOM     35  F   UNL     1     -12.439  59.599  49.444  0.00  0.00    +0.000 F 
ENDBRANCH  27  32
ENDBRANCH  23  26
ENDBRANCH   1  23
TORSDOF 7
ENDMDL
MODEL 4
REMARK VINA RESULT:      -8.3      1.921      3.121
REMARK  Name = 
REMARK  10 active torsions:
REMARK  status: ('A' for Active; 'I' for Inactive)
REMARK    1  A    between atoms: S_1  and  N_4
REMARK    2  A    between atoms: S_1  and  C_5
REMARK    3  A    between atoms: C_7  and  C_12
REMARK    4  A    between atoms: N_10  and  C_14
REMARK    5  A    between atoms: C_20  and  C_23
REMARK    6  A    between atoms: C_23  and  O_27
REMARK    7  A    between atoms: O_27  and  C_30
REMARK    8  A    between atoms: C_28  and  C_31
REMARK    9  A    between atoms: C_28  and  C_32
REMARK   10  A    between atoms: C_30  and  C_33
REMARK                            x       y       z     vdW  Elec       q    Type
REMARK                         _______ _______ _______ _____ _____    ______ ____
ROOT
ATOM      1  N   UNL     1     -11.787  56.585  49.561  0.00  0.00    +0.000 N 
ATOM      2  C   UNL     1     -10.854  55.612  49.208  0.00  0.00    +0.000 C 
ATOM      3  O   UNL     1     -11.167  54.427  49.245  0.00  0.00    +0.000 OA
ATOM      4  N   UNL     1      -9.594  56.079  48.916  0.00  0.00    +0.000 N 
ATOM      5  H   UNL     1     -11.496  57.524  49.613  0.00  0.00    +0.000 HD
ATOM      6  H   UNL     1      -9.407  57.044  48.866  0.00  0.00    +0.000 HD
ENDROOT
BRANCH   4   7
ATOM      7  C   UNL     1      -8.591  55.135  48.692  0.00  0.00    +0.000 A 
ATOM      8  S   UNL     1      -7.611  54.689  50.029  0.00  0.00    +0.000 S 
ATOM      9  C   UNL     1      -8.240  54.448  47.544  0.00  0.00    +0.000 A 
ATOM     10  C   UNL     1      -6.841  53.448  49.154  0.00  0.00    +0.000 A 
ATOM     11  C   UNL     1      -7.297  53.392  47.849  0.00  0.00    +0.000 A 
ATOM     12  C   UNL     1      -5.794  52.525  49.752  0.00  0.00    +0.000 C 
ATOM     13  C   UNL     1      -6.779  52.373  46.878  0.00  0.00    +0.000 C 
ATOM     14  C   UNL     1      -4.998  51.781  48.624  0.00  0.00    +0.000 C 
ATOM     15  C   UNL     1      -5.998  51.256  47.564  0.00  0.00    +0.000 C 
ATOM     16  C   UNL     1      -4.236  50.551  49.155  0.00  0.00    +0.000 C 
ATOM     17  C   UNL     1      -3.961  52.732  47.989  0.00  0.00    +0.000 C 
BRANCH   9  18
ATOM     18  C   UNL     1      -8.731  54.790  46.213  0.00  0.00    +0.000 C 
ATOM     19  O   UNL     1      -8.012  55.149  45.294  0.00  0.00    +0.000 OA
BRANCH  18  20
ATOM     20  O   UNL     1     -10.085  54.664  46.154  0.00  0.00    +0.000 OA
BRANCH  20  21
ATOM     21  C   UNL     1     -10.605  53.358  45.905  0.00  0.00    +0.000 C 
ATOM     22  C   UNL     1     -11.016  53.235  44.461  0.00  0.00    +0.000 C 
ENDBRANCH  20  21
ENDBRANCH  18  20
ENDBRANCH   9  18
ENDBRANCH   4   7
BRANCH   1  23
ATOM     23  S   UNL     1     -13.387  56.214  49.897  0.00  0.00    +0.000 S 
ATOM     24  O   UNL     1     -13.381  54.926  50.574  0.00  0.00    +0.000 OA
ATOM     25  O   UNL     1     -14.130  56.349  48.665  0.00  0.00    +0.000 OA
BRANCH  23  26
ATOM     26  C   UNL     1     -14.046  57.425  51.047  0.00  0.00    +0.000 A 
ATOM     27  C   UNL     1     -14.288  58.786  50.741  0.00  0.00    +0.000 A 
ATOM     28  C   UNL     1     -14.429  56.926  52.302  0.00  0.00    +0.000 A 
ATOM     29  C   UNL     1     -14.955  59.574  51.719  0.00  0.00    +0.000 A 
ATOM     30  C   UNL     1     -15.049  57.730  53.259  0.00  0.00    +0.000 A 
ATOM     31  C   UNL     1     -15.327  59.054  52.952  0.00  0.00    +0.000 A 
BRANCH  27  32
ATOM     32  C   UNL     1     -13.842  59.474  49.485  0.00  0.00    +0.000 C 
ATOM     33  F   UNL     1     -14.248  58.905  48.328  0.00  0.00    +0.000 F 
ATOM     34  F   UNL     1     -14.248  60.776  49.428  0.00  0.00    +0.000 F 
ATOM     35  F   UNL     1     -12.479  59.522  49.396  0.00  0.00    +0.000 F 
ENDBRANCH  27  32
ENDBRANCH  23  26
ENDBRANCH   1  23
TORSDOF 7
ENDMDL
MODEL 5
REMARK VINA RESULT:      -8.3      1.779      2.164
REMARK  Name = 
REMARK  10 active torsions:
REMARK  status: ('A' for Active; 'I' for Inactive)
REMARK    1  A    between atoms: S_1  and  N_4
REMARK    2  A    between atoms: S_1  and  C_5
REMARK    3  A    between atoms: C_7  and  C_12
REMARK    4  A    between atoms: N_10  and  C_14
REMARK    5  A    between atoms: C_20  and  C_23
REMARK    6  A    between atoms: C_23  and  O_27
REMARK    7  A    between atoms: O_27  and  C_30
REMARK    8  A    between atoms: C_28  and  C_31
REMARK    9  A    between atoms: C_28  and  C_32
REMARK   10  A    between atoms: C_30  and  C_33
REMARK                            x       y       z     vdW  Elec       q    Type
REMARK                         _______ _______ _______ _____ _____    ______ ____
ROOT
ATOM      1  N   UNL     1     -12.031  55.362  50.801  0.00  0.00    +0.000 N 
ATOM      2  C   UNL     1     -10.678  55.057  50.662  0.00  0.00    +0.000 C 
ATOM      3  O   UNL     1     -10.009  55.635  49.812  0.00  0.00    +0.000 OA
ATOM      4  N   UNL     1     -10.214  54.043  51.466  0.00  0.00    +0.000 N 
ATOM      5  H   UNL     1     -12.575  54.828  51.424  0.00  0.00    +0.000 HD
ATOM      6  H   UNL     1     -10.786  53.638  52.157  0.00  0.00    +0.000 HD
ENDROOT
BRANCH   4   7
ATOM      7  C   UNL     1      -8.903  53.610  51.266  0.00  0.00    +0.000 A 
ATOM      8  S   UNL     1      -8.676  52.154  50.384  0.00  0.00    +0.000 S 
ATOM      9  C   UNL     1      -7.699  54.173  51.649  0.00  0.00    +0.000 A 
ATOM     10  C   UNL     1      -6.986  52.354  50.333  0.00  0.00    +0.000 A 
ATOM     11  C   UNL     1      -6.591  53.495  51.008  0.00  0.00    +0.000 A 
ATOM     12  C   UNL     1      -6.048  51.392  49.625  0.00  0.00    +0.000 C 
ATOM     13  C   UNL     1      -5.149  53.897  51.097  0.00  0.00    +0.000 C 
ATOM     14  C   UNL     1      -4.567  51.612  50.091  0.00  0.00    +0.000 C 
ATOM     15  C   UNL     1      -4.267  53.131  50.114  0.00  0.00    +0.000 C 
ATOM     16  C   UNL     1      -3.546  50.978  49.127  0.00  0.00    +0.000 C 
ATOM     17  C   UNL     1      -4.349  50.979  51.482  0.00  0.00    +0.000 C 
BRANCH   9  18
ATOM     18  C   UNL     1      -7.586  55.269  52.605  0.00  0.00    +0.000 C 
ATOM     19  O   UNL     1      -7.371  56.429  52.289  0.00  0.00    +0.000 OA
BRANCH  18  20
ATOM     20  O   UNL     1      -7.741  54.814  53.878  0.00  0.00    +0.000 OA
BRANCH  20  21
ATOM     21  C   UNL     1      -6.574  54.774  54.700  0.00  0.00    +0.000 C 
ATOM     22  C   UNL     1      -6.085  53.355  54.830  0.00  0.00    +0.000 C 
ENDBRANCH  20  21
ENDBRANCH  18  20
ENDBRANCH   9  18
ENDBRANCH   4   7
BRANCH   1  23
ATOM     23  S   UNL     1     -12.763  56.604  49.947  0.00  0.00    +0.000 S 
ATOM     24  O   UNL     1     -13.700  55.979  49.026  0.00  0.00    +0.000 OA
ATOM     25  O   UNL     1     -11.713  57.438  49.411  0.00  0.00    +0.000 OA
BRANCH  23  26
ATOM     26  C   UNL     1     -13.717  57.619  51.080  0.00  0.00    +0.000 A 
ATOM     27  C   UNL     1     -14.290  58.873  50.761  0.00  0.00    +0.000 A 
ATOM     28  C   UNL     1     -13.976  57.047  52.336  0.00  0.00    +0.000 A 
ATOM     29  C   UNL     1     -15.143  59.475  51.726  0.00  0.00    +0.000 A 
ATOM     30  C   UNL     1     -14.787  57.676  53.282  0.00  0.00    +0.000 A 
ATOM     31  C   UNL     1     -15.385  58.887  52.961  0.00  0.00    +0.000 A 
BRANCH  27  32
ATOM     32  C   UNL     1     -14.018  59.643  49.502  0.00  0.00    +0.000 C 
ATOM     33  F   UNL     1     -14.804  60.722  49.292  0.00  0.00    +0.000 F 
ATOM     34  F   UNL     1     -12.731  60.094  49.431  0.00  0.00    +0.000 F 
ATOM     35  F   UNL     1     -14.183  58.863  48.391  0.00  0.00    +0.000 F 
ENDBRANCH  27  32
ENDBRANCH  23  26
ENDBRANCH   1  23
TORSDOF 7
ENDMDL
MODEL 6
REMARK VINA RESULT:      -8.0      4.065      8.765
REMARK  Name = 
REMARK  10 active torsions:
REMARK  status: ('A' for Active; 'I' for Inactive)
REMARK    1  A    between atoms: S_1  and  N_4
REMARK    2  A    between atoms: S_1  and  C_5
REMARK    3  A    between atoms: C_7  and  C_12
REMARK    4  A    between atoms: N_10  and  C_14
REMARK    5  A    between atoms: C_20  and  C_23
REMARK    6  A    between atoms: C_23  and  O_27
REMARK    7  A    between atoms: O_27  and  C_30
REMARK    8  A    between atoms: C_28  and  C_31
REMARK    9  A    between atoms: C_28  and  C_32
REMARK   10  A    between atoms: C_30  and  C_33
REMARK                            x       y       z     vdW  Elec       q    Type
REMARK                         _______ _______ _______ _____ _____    ______ ____
ROOT
ATOM      1  N   UNL     1      -8.037  53.089  50.058  0.00  0.00    +0.000 N 
ATOM      2  C   UNL     1      -8.971  54.111  50.217  0.00  0.00    +0.000 C 
ATOM      3  O   UNL     1      -8.654  55.139  50.807  0.00  0.00    +0.000 OA
ATOM      4  N   UNL     1     -10.235  53.836  49.750  0.00  0.00    +0.000 N 
ATOM      5  H   UNL     1      -8.330  52.236  49.663  0.00  0.00    +0.000 HD
ATOM      6  H   UNL     1     -10.425  53.009  49.251  0.00  0.00    +0.000 HD
ENDROOT
BRANCH   4   7
ATOM      7  C   UNL     1     -11.236  54.771  50.008  0.00  0.00    +0.000 A 
ATOM      8  S   UNL     1     -11.908  54.796  51.588  0.00  0.00    +0.000 S 
ATOM      9  C   UNL     1     -11.799  55.738  49.195  0.00  0.00    +0.000 A 
ATOM     10  C   UNL     1     -12.809  56.205  51.271  0.00  0.00    +0.000 A 
ATOM     11  C   UNL     1     -12.631  56.636  49.968  0.00  0.00    +0.000 A 
ATOM     12  C   UNL     1     -13.685  56.892  52.304  0.00  0.00    +0.000 C 
ATOM     13  C   UNL     1     -13.311  57.867  49.447  0.00  0.00    +0.000 C 
ATOM     14  C   UNL     1     -14.677  57.894  51.616  0.00  0.00    +0.000 C 
ATOM     15  C   UNL     1     -13.904  58.724  50.562  0.00  0.00    +0.000 C 
ATOM     16  C   UNL     1     -15.280  58.902  52.613  0.00  0.00    +0.000 C 
ATOM     17  C   UNL     1     -15.847  57.122  50.969  0.00  0.00    +0.000 C 
BRANCH   9  18
ATOM     18  C   UNL     1     -11.602  55.795  47.750  0.00  0.00    +0.000 C 
ATOM     19  O   UNL     1     -12.515  55.809  46.939  0.00  0.00    +0.000 OA
BRANCH  18  20
ATOM     20  O   UNL     1     -10.276  55.817  47.446  0.00  0.00    +0.000 OA
BRANCH  20  21
ATOM     21  C   UNL     1      -9.831  54.932  46.417  0.00  0.00    +0.000 C 
ATOM     22  C   UNL     1      -8.325  54.878  46.403  0.00  0.00    +0.000 C 
ENDBRANCH  20  21
ENDBRANCH  18  20
ENDBRANCH   9  18
ENDBRANCH   4   7
BRANCH   1  23
ATOM     23  S   UNL     1      -6.434  53.260  50.515  0.00  0.00    +0.000 S 
ATOM     24  O   UNL     1      -5.930  54.440  49.830  0.00  0.00    +0.000 OA
ATOM     25  O   UNL     1      -5.781  51.991  50.288  0.00  0.00    +0.000 OA
BRANCH  23  26
ATOM     26  C   UNL     1      -6.354  53.587  52.279  0.00  0.00    +0.000 A 
ATOM     27  C   UNL     1      -6.811  52.706  53.288  0.00  0.00    +0.000 A 
ATOM     28  C   UNL     1      -5.693  54.769  52.649  0.00  0.00    +0.000 A 
ATOM     29  C   UNL     1      -6.535  53.050  54.641  0.00  0.00    +0.000 A 
ATOM     30  C   UNL     1      -5.466  55.102  53.985  0.00  0.00    +0.000 A 
ATOM     31  C   UNL     1      -5.876  54.225  54.979  0.00  0.00    +0.000 A 
BRANCH  27  32
ATOM     32  C   UNL     1      -7.617  51.465  53.041  0.00  0.00    +0.000 C 
ATOM     33  F   UNL     1      -8.783  51.643  52.380  0.00  0.00    +0.000 F 
ATOM     34  F   UNL     1      -6.924  50.521  52.339  0.00  0.00    +0.000 F 
ATOM     35  F   UNL     1      -7.966  50.852  54.213  0.00  0.00    +0.000 F 
ENDBRANCH  27  32
ENDBRANCH  23  26
ENDBRANCH   1  23
TORSDOF 7
ENDMDL
MODEL 7
REMARK VINA RESULT:      -7.8      3.169      4.342
REMARK  Name = 
REMARK  10 active torsions:
REMARK  status: ('A' for Active; 'I' for Inactive)
REMARK    1  A    between atoms: S_1  and  N_4
REMARK    2  A    between atoms: S_1  and  C_5
REMARK    3  A    between atoms: C_7  and  C_12
REMARK    4  A    between atoms: N_10  and  C_14
REMARK    5  A    between atoms: C_20  and  C_23
REMARK    6  A    between atoms: C_23  and  O_27
REMARK    7  A    between atoms: O_27  and  C_30
REMARK    8  A    between atoms: C_28  and  C_31
REMARK    9  A    between atoms: C_28  and  C_32
REMARK   10  A    between atoms: C_30  and  C_33
REMARK                            x       y       z     vdW  Elec       q    Type
REMARK                         _______ _______ _______ _____ _____    ______ ____
ROOT
ATOM      1  N   UNL     1     -13.612  55.090  51.729  0.00  0.00    +0.000 N 
ATOM      2  C   UNL     1     -12.244  54.882  51.901  0.00  0.00    +0.000 C 
ATOM      3  O   UNL     1     -11.474  55.835  51.863  0.00  0.00    +0.000 OA
ATOM      4  N   UNL     1     -11.857  53.568  52.024  0.00  0.00    +0.000 N 
ATOM      5  H   UNL     1     -14.207  54.309  51.672  0.00  0.00    +0.000 HD
ATOM      6  H   UNL     1     -12.521  52.845  52.085  0.00  0.00    +0.000 HD
ENDROOT
BRANCH   4   7
ATOM      7  C   UNL     1     -10.489  53.299  52.061  0.00  0.00    +0.000 A 
ATOM      8  S   UNL     1      -9.748  53.168  53.604  0.00  0.00    +0.000 S 
ATOM      9  C   UNL     1      -9.583  53.089  51.036  0.00  0.00    +0.000 A 
ATOM     10  C   UNL     1      -8.270  52.646  52.940  0.00  0.00    +0.000 A 
ATOM     11  C   UNL     1      -8.324  52.603  51.559  0.00  0.00    +0.000 A 
ATOM     12  C   UNL     1      -7.059  52.272  53.777  0.00  0.00    +0.000 C 
ATOM     13  C   UNL     1      -7.147  52.162  50.739  0.00  0.00    +0.000 C 
ATOM     14  C   UNL     1      -5.763  52.230  52.896  0.00  0.00    +0.000 C 
ATOM     15  C   UNL     1      -6.074  51.476  51.580  0.00  0.00    +0.000 C 
ATOM     16  C   UNL     1      -4.612  51.466  53.578  0.00  0.00    +0.000 C 
ATOM     17  C   UNL     1      -5.267  53.664  52.613  0.00  0.00    +0.000 C 
BRANCH   9  18
ATOM     18  C   UNL     1      -9.869  53.372  49.633  0.00  0.00    +0.000 C 
ATOM     19  O   UNL     1      -9.338  54.269  48.998  0.00  0.00    +0.000 OA
BRANCH  18  20
ATOM     20  O   UNL     1     -10.807  52.512  49.151  0.00  0.00    +0.000 OA
BRANCH  20  21
ATOM     21  C   UNL     1     -11.971  53.087  48.557  0.00  0.00    +0.000 C 
ATOM     22  C   UNL     1     -11.933  52.893  47.063  0.00  0.00    +0.000 C 
ENDBRANCH  20  21
ENDBRANCH  18  20
ENDBRANCH   9  18
ENDBRANCH   4   7
BRANCH   1  23
ATOM     23  S   UNL     1     -14.277  56.624  51.616  0.00  0.00    +0.000 S 
ATOM     24  O   UNL     1     -13.422  57.507  52.394  0.00  0.00    +0.000 OA
ATOM     25  O   UNL     1     -15.674  56.517  51.972  0.00  0.00    +0.000 OA
BRANCH  23  26
ATOM     26  C   UNL     1     -14.209  57.174  49.908  0.00  0.00    +0.000 A 
ATOM     27  C   UNL     1     -14.359  58.515  49.480  0.00  0.00    +0.000 A 
ATOM     28  C   UNL     1     -13.882  56.186  48.965  0.00  0.00    +0.000 A 
ATOM     29  C   UNL     1     -14.126  58.801  48.107  0.00  0.00    +0.000 A 
ATOM     30  C   UNL     1     -13.694  56.487  47.615  0.00  0.00    +0.000 A 
ATOM     31  C   UNL     1     -13.800  57.805  47.195  0.00  0.00    +0.000 A 
BRANCH  27  32
ATOM     32  C   UNL     1     -14.803  59.648  50.357  0.00  0.00    +0.000 C 
ATOM     33  F   UNL     1     -15.844  59.384  51.178  0.00  0.00    +0.000 F 
ATOM     34  F   UNL     1     -13.801  60.116  51.157  0.00  0.00    +0.000 F 
ATOM     35  F   UNL     1     -15.202  60.728  49.618  0.00  0.00    +0.000 F 
ENDBRANCH  27  32
ENDBRANCH  23  26
ENDBRANCH   1  23
TORSDOF 7
ENDMDL
MODEL 8
REMARK VINA RESULT:      -7.8      3.657      9.403
REMARK  Name = 
REMARK  10 active torsions:
REMARK  status: ('A' for Active; 'I' for Inactive)
REMARK    1  A    between atoms: S_1  and  N_4
REMARK    2  A    between atoms: S_1  and  C_5
REMARK    3  A    between atoms: C_7  and  C_12
REMARK    4  A    between atoms: N_10  and  C_14
REMARK    5  A    between atoms: C_20  and  C_23
REMARK    6  A    between atoms: C_23  and  O_27
REMARK    7  A    between atoms: O_27  and  C_30
REMARK    8  A    between atoms: C_28  and  C_31
REMARK    9  A    between atoms: C_28  and  C_32
REMARK   10  A    between atoms: C_30  and  C_33
REMARK                            x       y       z     vdW  Elec       q    Type
REMARK                         _______ _______ _______ _____ _____    ______ ____
ROOT
ATOM      1  N   UNL     1      -7.965  53.921  49.173  0.00  0.00    +0.000 N 
ATOM      2  C   UNL     1      -9.051  54.771  49.374  0.00  0.00    +0.000 C 
ATOM      3  O   UNL     1      -8.910  55.982  49.237  0.00  0.00    +0.000 OA
ATOM      4  N   UNL     1     -10.208  54.162  49.800  0.00  0.00    +0.000 N 
ATOM      5  H   UNL     1      -8.070  52.963  49.374  0.00  0.00    +0.000 HD
ATOM      6  H   UNL     1     -10.277  53.183  49.858  0.00  0.00    +0.000 HD
ENDROOT
BRANCH   4   7
ATOM      7  C   UNL     1     -11.281  54.985  50.146  0.00  0.00    +0.000 A 
ATOM      8  S   UNL     1     -11.588  55.223  51.818  0.00  0.00    +0.000 S 
ATOM      9  C   UNL     1     -12.169  55.691  49.354  0.00  0.00    +0.000 A 
ATOM     10  C   UNL     1     -12.772  56.408  51.514  0.00  0.00    +0.000 A 
ATOM     11  C   UNL     1     -12.959  56.599  50.157  0.00  0.00    +0.000 A 
ATOM     12  C   UNL     1     -13.513  57.155  52.610  0.00  0.00    +0.000 C 
ATOM     13  C   UNL     1     -13.944  57.602  49.632  0.00  0.00    +0.000 C 
ATOM     14  C   UNL     1     -14.792  57.860  52.038  0.00  0.00    +0.000 C 
ATOM     15  C   UNL     1     -14.424  58.568  50.711  0.00  0.00    +0.000 C 
ATOM     16  C   UNL     1     -15.335  58.950  52.981  0.00  0.00    +0.000 C 
ATOM     17  C   UNL     1     -15.918  56.826  51.824  0.00  0.00    +0.000 C 
BRANCH   9  18
ATOM     18  C   UNL     1     -12.301  55.493  47.914  0.00  0.00    +0.000 C 
ATOM     19  O   UNL     1     -12.640  56.370  47.135  0.00  0.00    +0.000 OA
BRANCH  18  20
ATOM     20  O   UNL     1     -12.008  54.208  47.577  0.00  0.00    +0.000 OA
BRANCH  20  21
ATOM     21  C   UNL     1     -11.675  53.955  46.211  0.00  0.00    +0.000 C 
ATOM     22  C   UNL     1     -10.197  54.159  45.997  0.00  0.00    +0.000 C 
ENDBRANCH  20  21
ENDBRANCH  18  20
ENDBRANCH   9  18
ENDBRANCH   4   7
BRANCH   1  23
ATOM     23  S   UNL     1      -6.489  54.472  48.602  0.00  0.00    +0.000 S 
ATOM     24  O   UNL     1      -6.110  55.596  49.444  0.00  0.00    +0.000 OA
ATOM     25  O   UNL     1      -6.627  54.683  47.179  0.00  0.00    +0.000 OA
BRANCH  23  26
ATOM     26  C   UNL     1      -5.252  53.189  48.827  0.00  0.00    +0.000 A 
ATOM     27  C   UNL     1      -4.832  52.679  50.078  0.00  0.00    +0.000 A 
ATOM     28  C   UNL     1      -4.761  52.605  47.648  0.00  0.00    +0.000 A 
ATOM     29  C   UNL     1      -3.956  51.558  50.074  0.00  0.00    +0.000 A 
ATOM     30  C   UNL     1      -3.873  51.530  47.671  0.00  0.00    +0.000 A 
ATOM     31  C   UNL     1      -3.487  50.997  48.893  0.00  0.00    +0.000 A 
BRANCH  27  32
ATOM     32  C   UNL     1      -5.196  53.267  51.409  0.00  0.00    +0.000 C 
ATOM     33  F   UNL     1      -6.519  53.394  51.654  0.00  0.00    +0.000 F 
ATOM     34  F   UNL     1      -4.685  52.553  52.455  0.00  0.00    +0.000 F 
ATOM     35  F   UNL     1      -4.687  54.528  51.557  0.00  0.00    +0.000 F 
ENDBRANCH  27  32
ENDBRANCH  23  26
ENDBRANCH   1  23
TORSDOF 7
ENDMDL
MODEL 9
REMARK VINA RESULT:      -7.7      2.696      3.458
REMARK  Name = 
REMARK  10 active torsions:
REMARK  status: ('A' for Active; 'I' for Inactive)
REMARK    1  A    between atoms: S_1  and  N_4
REMARK    2  A    between atoms: S_1  and  C_5
REMARK    3  A    between atoms: C_7  and  C_12
REMARK    4  A    between atoms: N_10  and  C_14
REMARK    5  A    between atoms: C_20  and  C_23
REMARK    6  A    between atoms: C_23  and  O_27
REMARK    7  A    between atoms: O_27  and  C_30
REMARK    8  A    between atoms: C_28  and  C_31
REMARK    9  A    between atoms: C_28  and  C_32
REMARK   10  A    between atoms: C_30  and  C_33
REMARK                            x       y       z     vdW  Elec       q    Type
REMARK                         _______ _______ _______ _____ _____    ______ ____
ROOT
ATOM      1  N   UNL     1     -12.272  55.237  50.635  0.00  0.00    +0.000 N 
ATOM      2  C   UNL     1     -10.906  55.041  50.833  0.00  0.00    +0.000 C 
ATOM      3  O   UNL     1     -10.101  55.817  50.329  0.00  0.00    +0.000 OA
ATOM      4  N   UNL     1     -10.567  53.909  51.535  0.00  0.00    +0.000 N 
ATOM      5  H   UNL     1     -12.902  54.558  50.969  0.00  0.00    +0.000 HD
ATOM      6  H   UNL     1     -11.255  53.340  51.948  0.00  0.00    +0.000 HD
ENDROOT
BRANCH   4   7
ATOM      7  C   UNL     1      -9.211  53.597  51.640  0.00  0.00    +0.000 A 
ATOM      8  S   UNL     1      -8.355  54.230  52.987  0.00  0.00    +0.000 S 
ATOM      9  C   UNL     1      -8.399  52.820  50.833  0.00  0.00    +0.000 A 
ATOM     10  C   UNL     1      -6.956  53.331  52.622  0.00  0.00    +0.000 A 
ATOM     11  C   UNL     1      -7.121  52.583  51.471  0.00  0.00    +0.000 A 
ATOM     12  C   UNL     1      -5.697  53.356  53.472  0.00  0.00    +0.000 C 
ATOM     13  C   UNL     1      -6.032  51.695  50.946  0.00  0.00    +0.000 C 
ATOM     14  C   UNL     1      -4.478  52.767  52.680  0.00  0.00    +0.000 C 
ATOM     15  C   UNL     1      -4.922  51.466  51.967  0.00  0.00    +0.000 C 
ATOM     16  C   UNL     1      -3.306  52.384  53.604  0.00  0.00    +0.000 C 
ATOM     17  C   UNL     1      -3.951  53.806  51.667  0.00  0.00    +0.000 C 
BRANCH   9  18
ATOM     18  C   UNL     1      -8.785  52.357  49.504  0.00  0.00    +0.000 C 
ATOM     19  O   UNL     1      -8.850  53.080  48.523  0.00  0.00    +0.000 OA
BRANCH  18  20
ATOM     20  O   UNL     1      -9.068  51.025  49.524  0.00  0.00    +0.000 OA
BRANCH  20  21
ATOM     21  C   UNL     1     -10.406  50.651  49.853  0.00  0.00    +0.000 C 
ATOM     22  C   UNL     1     -10.410  49.805  51.100  0.00  0.00    +0.000 C 
ENDBRANCH  20  21
ENDBRANCH  18  20
ENDBRANCH   9  18
ENDBRANCH   4   7
BRANCH   1  23
ATOM     23  S   UNL     1     -12.880  56.588  49.851  0.00  0.00    +0.000 S 
ATOM     24  O   UNL     1     -13.845  56.105  48.876  0.00  0.00    +0.000 OA
ATOM     25  O   UNL     1     -11.752  57.364  49.389  0.00  0.00    +0.000 OA
BRANCH  23  26
ATOM     26  C   UNL     1     -13.771  57.606  51.033  0.00  0.00    +0.000 A 
ATOM     27  C   UNL     1     -14.322  58.879  50.753  0.00  0.00    +0.000 A 
ATOM     28  C   UNL     1     -14.004  57.018  52.286  0.00  0.00    +0.000 A 
ATOM     29  C   UNL     1     -15.129  59.485  51.756  0.00  0.00    +0.000 A 
ATOM     30  C   UNL     1     -14.768  57.650  53.268  0.00  0.00    +0.000 A 
ATOM     31  C   UNL     1     -15.346  58.880  52.988  0.00  0.00    +0.000 A 
BRANCH  27  32
ATOM     32  C   UNL     1     -14.072  59.664  49.500  0.00  0.00    +0.000 C 
ATOM     33  F   UNL     1     -14.170  58.972  48.343  0.00  0.00    +0.000 F 
ATOM     34  F   UNL     1     -14.913  60.732  49.373  0.00  0.00    +0.000 F 
ATOM     35  F   UNL     1     -12.814  60.199  49.485  0.00  0.00    +0.000 F 
ENDBRANCH  27  32
ENDBRANCH  23  26
ENDBRANCH   1  23
TORSDOF 7
ENDMDL
