MODEL 1
REMARK VINA RESULT:      -7.4      0.000      0.000
REMARK  Name = 
REMARK  11 active torsions:
REMARK  status: ('A' for Active; 'I' for Inactive)
REMARK    1  A    between atoms: S_1  and  N_4
REMARK    2  A    between atoms: S_1  and  C_5
REMARK    3  A    between atoms: C_7  and  O_11
REMARK    4  A    between atoms: N_10  and  C_14
REMARK    5  A    between atoms: O_11  and  C_15
REMARK    6  A    between atoms: C_18  and  C_24
REMARK    7  A    between atoms: C_24  and  O_28
REMARK    8  A    between atoms: O_28  and  C_31
REMARK    9  A    between atoms: C_29  and  C_32
REMARK   10  A    between atoms: C_29  and  C_33
REMARK   11  A    between atoms: C_31  and  C_34
REMARK                            x       y       z     vdW  Elec       q    Type
REMARK                         _______ _______ _______ _____ _____    ______ ____
ROOT
ATOM      1  N   UNL     1      -7.915  52.888  49.962  0.00  0.00    +0.000 N 
ATOM      2  C   UNL     1      -8.652  54.028  50.236  0.00  0.00    +0.000 C 
ATOM      3  O   UNL     1      -8.115  55.103  50.423  0.00  0.00    +0.000 OA
ATOM      4  N   UNL     1      -9.999  53.750  50.373  0.00  0.00    +0.000 N 
ATOM      5  H   UNL     1      -8.413  52.053  49.818  0.00  0.00    +0.000 HD
ATOM      6  H   UNL     1     -10.263  52.802  50.335  0.00  0.00    +0.000 HD
ENDROOT
BRANCH   4   7
ATOM      7  C   UNL     1     -11.019  54.678  50.561  0.00  0.00    +0.000 A 
ATOM      8  S   UNL     1     -11.495  55.087  52.144  0.00  0.00    +0.000 S 
ATOM      9  C   UNL     1     -11.703  55.407  49.593  0.00  0.00    +0.000 A 
ATOM     10  C   UNL     1     -12.596  56.246  51.598  0.00  0.00    +0.000 A 
ATOM     11  C   UNL     1     -12.588  56.375  50.223  0.00  0.00    +0.000 A 
ATOM     12  C   UNL     1     -13.433  57.050  52.554  0.00  0.00    +0.000 C 
ATOM     13  C   UNL     1     -13.452  57.394  49.534  0.00  0.00    +0.000 C 
ATOM     14  C   UNL     1     -14.576  57.797  51.810  0.00  0.00    +0.000 C 
ATOM     15  C   UNL     1     -14.017  58.429  50.510  0.00  0.00    +0.000 C 
ATOM     16  C   UNL     1     -15.124  58.927  52.696  0.00  0.00    +0.000 C 
ATOM     17  C   UNL     1     -15.733  56.826  51.497  0.00  0.00    +0.000 C 
BRANCH   9  18
ATOM     18  C   UNL     1     -11.520  55.216  48.147  0.00  0.00    +0.000 C 
ATOM     19  O   UNL     1     -12.384  54.729  47.426  0.00  0.00    +0.000 OA
BRANCH  18  20
ATOM     20  O   UNL     1     -10.293  55.625  47.727  0.00  0.00    +0.000 OA
BRANCH  20  21
ATOM     21  C   UNL     1      -9.695  55.002  46.584  0.00  0.00    +0.000 C 
ATOM     22  C   UNL     1      -8.185  55.048  46.707  0.00  0.00    +0.000 C 
ENDBRANCH  20  21
ENDBRANCH  18  20
ENDBRANCH   9  18
ENDBRANCH   4   7
BRANCH   1  23
ATOM     23  S   UNL     1      -6.254  52.815  49.857  0.00  0.00    +0.000 S 
ATOM     24  O   UNL     1      -5.783  53.746  48.859  0.00  0.00    +0.000 OA
ATOM     25  O   UNL     1      -6.032  51.391  49.721  0.00  0.00    +0.000 OA
BRANCH  23  26
ATOM     26  C   UNL     1      -5.607  53.295  51.444  0.00  0.00    +0.000 A 
ATOM     27  C   UNL     1      -6.173  52.840  52.657  0.00  0.00    +0.000 A 
ATOM     28  C   UNL     1      -4.438  54.070  51.489  0.00  0.00    +0.000 A 
ATOM     29  C   UNL     1      -5.525  53.140  53.872  0.00  0.00    +0.000 A 
ATOM     30  C   UNL     1      -3.794  54.339  52.697  0.00  0.00    +0.000 A 
ATOM     31  C   UNL     1      -4.338  53.878  53.891  0.00  0.00    +0.000 A 
BRANCH  27  32
ATOM     32  O   UNL     1      -7.171  51.908  52.748  0.00  0.00    +0.000 OA
BRANCH  32  33
ATOM     33  C   UNL     1      -8.355  52.278  53.451  0.00  0.00    +0.000 C 
ATOM     34  F   UNL     1      -8.550  53.605  53.480  0.00  0.00    +0.000 F 
ATOM     35  F   UNL     1      -9.409  51.697  52.838  0.00  0.00    +0.000 F 
ATOM     36  F   UNL     1      -8.312  51.830  54.725  0.00  0.00    +0.000 F 
ENDBRANCH  32  33
ENDBRANCH  27  32
ENDBRANCH  23  26
ENDBRANCH   1  23
TORSDOF 8
ENDMDL
MODEL 2
REMARK VINA RESULT:      -7.0      1.662      2.068
REMARK  Name = 
REMARK  11 active torsions:
REMARK  status: ('A' for Active; 'I' for Inactive)
REMARK    1  A    between atoms: S_1  and  N_4
REMARK    2  A    between atoms: S_1  and  C_5
REMARK    3  A    between atoms: C_7  and  O_11
REMARK    4  A    between atoms: N_10  and  C_14
REMARK    5  A    between atoms: O_11  and  C_15
REMARK    6  A    between atoms: C_18  and  C_24
REMARK    7  A    between atoms: C_24  and  O_28
REMARK    8  A    between atoms: O_28  and  C_31
REMARK    9  A    between atoms: C_29  and  C_32
REMARK   10  A    between atoms: C_29  and  C_33
REMARK   11  A    between atoms: C_31  and  C_34
REMARK                            x       y       z     vdW  Elec       q    Type
REMARK                         _______ _______ _______ _____ _____    ______ ____
ROOT
ATOM      1  N   UNL     1      -7.325  53.412  50.236  0.00  0.00    +0.000 N 
ATOM      2  C   UNL     1      -8.192  54.479  50.395  0.00  0.00    +0.000 C 
ATOM      3  O   UNL     1      -7.786  55.623  50.477  0.00  0.00    +0.000 OA
ATOM      4  N   UNL     1      -9.499  54.060  50.557  0.00  0.00    +0.000 N 
ATOM      5  H   UNL     1      -7.721  52.514  50.173  0.00  0.00    +0.000 HD
ATOM      6  H   UNL     1      -9.651  53.089  50.612  0.00  0.00    +0.000 HD
ENDROOT
BRANCH   4   7
ATOM      7  C   UNL     1     -10.622  54.877  50.652  0.00  0.00    +0.000 A 
ATOM      8  S   UNL     1     -11.301  55.190  52.182  0.00  0.00    +0.000 S 
ATOM      9  C   UNL     1     -11.272  55.563  49.630  0.00  0.00    +0.000 A 
ATOM     10  C   UNL     1     -12.451  56.250  51.544  0.00  0.00    +0.000 A 
ATOM     11  C   UNL     1     -12.311  56.419  50.180  0.00  0.00    +0.000 A 
ATOM     12  C   UNL     1     -13.460  56.939  52.419  0.00  0.00    +0.000 C 
ATOM     13  C   UNL     1     -13.198  57.368  49.422  0.00  0.00    +0.000 C 
ATOM     14  C   UNL     1     -14.589  57.590  51.571  0.00  0.00    +0.000 C 
ATOM     15  C   UNL     1     -13.964  58.313  50.350  0.00  0.00    +0.000 C 
ATOM     16  C   UNL     1     -15.339  58.634  52.415  0.00  0.00    +0.000 C 
ATOM     17  C   UNL     1     -15.602  56.519  51.118  0.00  0.00    +0.000 C 
BRANCH   9  18
ATOM     18  C   UNL     1     -10.920  55.434  48.209  0.00  0.00    +0.000 C 
ATOM     19  O   UNL     1      -9.844  55.804  47.754  0.00  0.00    +0.000 OA
BRANCH  18  20
ATOM     20  O   UNL     1     -11.925  54.880  47.480  0.00  0.00    +0.000 OA
BRANCH  20  21
ATOM     21  C   UNL     1     -11.893  54.970  46.051  0.00  0.00    +0.000 C 
ATOM     22  C   UNL     1     -11.518  53.625  45.460  0.00  0.00    +0.000 C 
ENDBRANCH  20  21
ENDBRANCH  18  20
ENDBRANCH   9  18
ENDBRANCH   4   7
BRANCH   1  23
ATOM     23  S   UNL     1      -5.665  53.523  50.140  0.00  0.00    +0.000 S 
ATOM     24  O   UNL     1      -5.257  54.903  50.253  0.00  0.00    +0.000 OA
ATOM     25  O   UNL     1      -5.388  52.753  48.946  0.00  0.00    +0.000 OA
BRANCH  23  26
ATOM     26  C   UNL     1      -5.000  52.611  51.516  0.00  0.00    +0.000 A 
ATOM     27  C   UNL     1      -5.432  52.830  52.844  0.00  0.00    +0.000 A 
ATOM     28  C   UNL     1      -4.090  51.573  51.260  0.00  0.00    +0.000 A 
ATOM     29  C   UNL     1      -4.971  51.975  53.865  0.00  0.00    +0.000 A 
ATOM     30  C   UNL     1      -3.661  50.720  52.277  0.00  0.00    +0.000 A 
ATOM     31  C   UNL     1      -4.098  50.921  53.582  0.00  0.00    +0.000 A 
BRANCH  27  32
ATOM     32  O   UNL     1      -6.467  53.651  53.199  0.00  0.00    +0.000 OA
BRANCH  32  33
ATOM     33  C   UNL     1      -6.142  54.868  53.868  0.00  0.00    +0.000 C 
ATOM     34  F   UNL     1      -6.899  55.900  53.467  0.00  0.00    +0.000 F 
ATOM     35  F   UNL     1      -6.325  54.684  55.193  0.00  0.00    +0.000 F 
ATOM     36  F   UNL     1      -4.845  55.192  53.665  0.00  0.00    +0.000 F 
ENDBRANCH  32  33
ENDBRANCH  27  32
ENDBRANCH  23  26
ENDBRANCH   1  23
TORSDOF 8
ENDMDL
MODEL 3
REMARK VINA RESULT:      -6.9      3.712      8.554
REMARK  Name = 
REMARK  11 active torsions:
REMARK  status: ('A' for Active; 'I' for Inactive)
REMARK    1  A    between atoms: S_1  and  N_4
REMARK    2  A    between atoms: S_1  and  C_5
REMARK    3  A    between atoms: C_7  and  O_11
REMARK    4  A    between atoms: N_10  and  C_14
REMARK    5  A    between atoms: O_11  and  C_15
REMARK    6  A    between atoms: C_18  and  C_24
REMARK    7  A    between atoms: C_24  and  O_28
REMARK    8  A    between atoms: O_28  and  C_31
REMARK    9  A    between atoms: C_29  and  C_32
REMARK   10  A    between atoms: C_29  and  C_33
REMARK   11  A    between atoms: C_31  and  C_34
REMARK                            x       y       z     vdW  Elec       q    Type
REMARK                         _______ _______ _______ _____ _____    ______ ____
ROOT
ATOM      1  N   UNL     1     -11.591  55.986  50.296  0.00  0.00    +0.000 N 
ATOM      2  C   UNL     1     -10.634  54.986  50.327  0.00  0.00    +0.000 C 
ATOM      3  O   UNL     1     -10.699  54.067  51.120  0.00  0.00    +0.000 OA
ATOM      4  N   UNL     1      -9.594  55.242  49.452  0.00  0.00    +0.000 N 
ATOM      5  H   UNL     1     -11.480  56.698  49.627  0.00  0.00    +0.000 HD
ATOM      6  H   UNL     1      -9.613  56.106  48.979  0.00  0.00    +0.000 HD
ENDROOT
BRANCH   4   7
ATOM      7  C   UNL     1      -8.521  54.400  49.176  0.00  0.00    +0.000 A 
ATOM      8  S   UNL     1      -7.141  54.451  50.172  0.00  0.00    +0.000 S 
ATOM      9  C   UNL     1      -8.430  53.425  48.188  0.00  0.00    +0.000 A 
ATOM     10  C   UNL     1      -6.398  53.180  49.343  0.00  0.00    +0.000 A 
ATOM     11  C   UNL     1      -7.196  52.669  48.338  0.00  0.00    +0.000 A 
ATOM     12  C   UNL     1      -5.038  52.674  49.732  0.00  0.00    +0.000 C 
ATOM     13  C   UNL     1      -6.748  51.493  47.515  0.00  0.00    +0.000 C 
ATOM     14  C   UNL     1      -4.449  51.743  48.635  0.00  0.00    +0.000 C 
ATOM     15  C   UNL     1      -5.550  50.773  48.138  0.00  0.00    +0.000 C 
ATOM     16  C   UNL     1      -3.301  50.906  49.223  0.00  0.00    +0.000 C 
ATOM     17  C   UNL     1      -3.886  52.581  47.469  0.00  0.00    +0.000 C 
BRANCH   9  18
ATOM     18  C   UNL     1      -9.461  53.201  47.164  0.00  0.00    +0.000 C 
ATOM     19  O   UNL     1     -10.180  52.209  47.150  0.00  0.00    +0.000 OA
BRANCH  18  20
ATOM     20  O   UNL     1      -9.501  54.206  46.248  0.00  0.00    +0.000 OA
BRANCH  20  21
ATOM     21  C   UNL     1      -8.422  54.354  45.318  0.00  0.00    +0.000 C 
ATOM     22  C   UNL     1      -8.502  53.268  44.263  0.00  0.00    +0.000 C 
ENDBRANCH  20  21
ENDBRANCH  18  20
ENDBRANCH   9  18
ENDBRANCH   4   7
BRANCH   1  23
ATOM     23  S   UNL     1     -12.919  56.082  51.299  0.00  0.00    +0.000 S 
ATOM     24  O   UNL     1     -12.498  56.022  52.678  0.00  0.00    +0.000 OA
ATOM     25  O   UNL     1     -13.787  55.071  50.733  0.00  0.00    +0.000 OA
BRANCH  23  26
ATOM     26  C   UNL     1     -13.688  57.658  50.998  0.00  0.00    +0.000 A 
ATOM     27  C   UNL     1     -13.551  58.341  49.768  0.00  0.00    +0.000 A 
ATOM     28  C   UNL     1     -14.538  58.191  51.980  0.00  0.00    +0.000 A 
ATOM     29  C   UNL     1     -14.302  59.512  49.546  0.00  0.00    +0.000 A 
ATOM     30  C   UNL     1     -15.295  59.338  51.736  0.00  0.00    +0.000 A 
ATOM     31  C   UNL     1     -15.176  60.003  50.520  0.00  0.00    +0.000 A 
BRANCH  27  32
ATOM     32  O   UNL     1     -12.936  57.828  48.659  0.00  0.00    +0.000 OA
BRANCH  32  33
ATOM     33  C   UNL     1     -13.760  57.201  47.680  0.00  0.00    +0.000 C 
ATOM     34  F   UNL     1     -14.849  56.623  48.209  0.00  0.00    +0.000 F 
ATOM     35  F   UNL     1     -14.155  58.141  46.794  0.00  0.00    +0.000 F 
ATOM     36  F   UNL     1     -13.067  56.257  47.006  0.00  0.00    +0.000 F 
ENDBRANCH  32  33
ENDBRANCH  27  32
ENDBRANCH  23  26
ENDBRANCH   1  23
TORSDOF 8
ENDMDL
MODEL 4
REMARK VINA RESULT:      -6.8      2.039      2.603
REMARK  Name = 
REMARK  11 active torsions:
REMARK  status: ('A' for Active; 'I' for Inactive)
REMARK    1  A    between atoms: S_1  and  N_4
REMARK    2  A    between atoms: S_1  and  C_5
REMARK    3  A    between atoms: C_7  and  O_11
REMARK    4  A    between atoms: N_10  and  C_14
REMARK    5  A    between atoms: O_11  and  C_15
REMARK    6  A    between atoms: C_18  and  C_24
REMARK    7  A    between atoms: C_24  and  O_28
REMARK    8  A    between atoms: O_28  and  C_31
REMARK    9  A    between atoms: C_29  and  C_32
REMARK   10  A    between atoms: C_29  and  C_33
REMARK   11  A    between atoms: C_31  and  C_34
REMARK                            x       y       z     vdW  Elec       q    Type
REMARK                         _______ _______ _______ _____ _____    ______ ____
ROOT
ATOM      1  N   UNL     1      -8.415  52.409  50.685  0.00  0.00    +0.000 N 
ATOM      2  C   UNL     1      -9.345  53.292  51.206  0.00  0.00    +0.000 C 
ATOM      3  O   UNL     1      -9.420  53.506  52.401  0.00  0.00    +0.000 OA
ATOM      4  N   UNL     1     -10.202  53.772  50.232  0.00  0.00    +0.000 N 
ATOM      5  H   UNL     1      -8.407  52.285  49.709  0.00  0.00    +0.000 HD
ATOM      6  H   UNL     1     -10.105  53.392  49.328  0.00  0.00    +0.000 HD
ENDROOT
BRANCH   4   7
ATOM      7  C   UNL     1     -11.189  54.738  50.403  0.00  0.00    +0.000 A 
ATOM      8  S   UNL     1     -11.814  55.026  51.961  0.00  0.00    +0.000 S 
ATOM      9  C   UNL     1     -11.726  55.594  49.447  0.00  0.00    +0.000 A 
ATOM     10  C   UNL     1     -12.790  56.295  51.421  0.00  0.00    +0.000 A 
ATOM     11  C   UNL     1     -12.625  56.550  50.074  0.00  0.00    +0.000 A 
ATOM     12  C   UNL     1     -13.684  57.056  52.360  0.00  0.00    +0.000 C 
ATOM     13  C   UNL     1     -13.357  57.680  49.403  0.00  0.00    +0.000 C 
ATOM     14  C   UNL     1     -14.701  57.936  51.579  0.00  0.00    +0.000 C 
ATOM     15  C   UNL     1     -13.973  58.651  50.412  0.00  0.00    +0.000 C 
ATOM     16  C   UNL     1     -15.285  59.009  52.511  0.00  0.00    +0.000 C 
ATOM     17  C   UNL     1     -15.864  57.069  51.053  0.00  0.00    +0.000 C 
BRANCH   9  18
ATOM     18  C   UNL     1     -11.396  55.527  48.015  0.00  0.00    +0.000 C 
ATOM     19  O   UNL     1     -12.204  55.180  47.162  0.00  0.00    +0.000 OA
BRANCH  18  20
ATOM     20  O   UNL     1     -10.105  55.878  47.770  0.00  0.00    +0.000 OA
BRANCH  20  21
ATOM     21  C   UNL     1      -9.291  55.036  46.945  0.00  0.00    +0.000 C 
ATOM     22  C   UNL     1      -7.915  54.889  47.564  0.00  0.00    +0.000 C 
ENDBRANCH  20  21
ENDBRANCH  18  20
ENDBRANCH   9  18
ENDBRANCH   4   7
BRANCH   1  23
ATOM     23  S   UNL     1      -7.307  51.539  51.574  0.00  0.00    +0.000 S 
ATOM     24  O   UNL     1      -6.317  50.962  50.695  0.00  0.00    +0.000 OA
ATOM     25  O   UNL     1      -8.171  50.705  52.383  0.00  0.00    +0.000 OA
BRANCH  23  26
ATOM     26  C   UNL     1      -6.504  52.684  52.674  0.00  0.00    +0.000 A 
ATOM     27  C   UNL     1      -5.975  53.915  52.225  0.00  0.00    +0.000 A 
ATOM     28  C   UNL     1      -6.486  52.398  54.048  0.00  0.00    +0.000 A 
ATOM     29  C   UNL     1      -5.483  54.837  53.171  0.00  0.00    +0.000 A 
ATOM     30  C   UNL     1      -6.019  53.330  54.975  0.00  0.00    +0.000 A 
ATOM     31  C   UNL     1      -5.513  54.550  54.538  0.00  0.00    +0.000 A 
BRANCH  27  32
ATOM     32  O   UNL     1      -6.125  54.409  50.958  0.00  0.00    +0.000 OA
BRANCH  32  33
ATOM     33  C   UNL     1      -5.031  54.254  50.057  0.00  0.00    +0.000 C 
ATOM     34  F   UNL     1      -3.906  53.852  50.668  0.00  0.00    +0.000 F 
ATOM     35  F   UNL     1      -5.374  53.332  49.130  0.00  0.00    +0.000 F 
ATOM     36  F   UNL     1      -4.772  55.415  49.416  0.00  0.00    +0.000 F 
ENDBRANCH  32  33
ENDBRANCH  27  32
ENDBRANCH  23  26
ENDBRANCH   1  23
TORSDOF 8
ENDMDL
MODEL 5
REMARK VINA RESULT:      -6.8      3.277      8.397
REMARK  Name = 
REMARK  11 active torsions:
REMARK  status: ('A' for Active; 'I' for Inactive)
REMARK    1  A    between atoms: S_1  and  N_4
REMARK    2  A    between atoms: S_1  and  C_5
REMARK    3  A    between atoms: C_7  and  O_11
REMARK    4  A    between atoms: N_10  and  C_14
REMARK    5  A    between atoms: O_11  and  C_15
REMARK    6  A    between atoms: C_18  and  C_24
REMARK    7  A    between atoms: C_24  and  O_28
REMARK    8  A    between atoms: O_28  and  C_31
REMARK    9  A    between atoms: C_29  and  C_32
REMARK   10  A    between atoms: C_29  and  C_33
REMARK   11  A    between atoms: C_31  and  C_34
REMARK                            x       y       z     vdW  Elec       q    Type
REMARK                         _______ _______ _______ _____ _____    ______ ____
ROOT
ATOM      1  N   UNL     1     -12.013  56.051  50.990  0.00  0.00    +0.000 N 
ATOM      2  C   UNL     1     -10.948  55.170  50.920  0.00  0.00    +0.000 C 
ATOM      3  O   UNL     1     -10.956  54.220  50.161  0.00  0.00    +0.000 OA
ATOM      4  N   UNL     1      -9.986  55.449  51.873  0.00  0.00    +0.000 N 
ATOM      5  H   UNL     1     -11.940  56.800  51.624  0.00  0.00    +0.000 HD
ATOM      6  H   UNL     1     -10.191  56.168  52.515  0.00  0.00    +0.000 HD
ENDROOT
BRANCH   4   7
ATOM      7  C   UNL     1      -8.756  54.813  52.016  0.00  0.00    +0.000 A 
ATOM      8  S   UNL     1      -8.578  53.593  53.190  0.00  0.00    +0.000 S 
ATOM      9  C   UNL     1      -7.604  54.996  51.257  0.00  0.00    +0.000 A 
ATOM     10  C   UNL     1      -6.990  53.259  52.717  0.00  0.00    +0.000 A 
ATOM     11  C   UNL     1      -6.589  54.028  51.642  0.00  0.00    +0.000 A 
ATOM     12  C   UNL     1      -6.171  52.201  53.400  0.00  0.00    +0.000 C 
ATOM     13  C   UNL     1      -5.229  53.847  51.025  0.00  0.00    +0.000 C 
ATOM     14  C   UNL     1      -4.670  52.311  53.008  0.00  0.00    +0.000 C 
ATOM     15  C   UNL     1      -4.553  52.553  51.481  0.00  0.00    +0.000 C 
ATOM     16  C   UNL     1      -3.945  50.998  53.343  0.00  0.00    +0.000 C 
ATOM     17  C   UNL     1      -3.994  53.450  53.799  0.00  0.00    +0.000 C 
BRANCH   9  18
ATOM     18  C   UNL     1      -7.470  56.019  50.210  0.00  0.00    +0.000 C 
ATOM     19  O   UNL     1      -7.661  57.212  50.417  0.00  0.00    +0.000 OA
BRANCH  18  20
ATOM     20  O   UNL     1      -7.132  55.480  49.008  0.00  0.00    +0.000 OA
BRANCH  20  21
ATOM     21  C   UNL     1      -8.042  54.589  48.353  0.00  0.00    +0.000 C 
ATOM     22  C   UNL     1      -8.755  55.318  47.231  0.00  0.00    +0.000 C 
ENDBRANCH  20  21
ENDBRANCH  18  20
ENDBRANCH   9  18
ENDBRANCH   4   7
BRANCH   1  23
ATOM     23  S   UNL     1     -13.410  55.950  50.087  0.00  0.00    +0.000 S 
ATOM     24  O   UNL     1     -14.435  55.270  50.843  0.00  0.00    +0.000 OA
ATOM     25  O   UNL     1     -12.914  55.409  48.839  0.00  0.00    +0.000 OA
BRANCH  23  26
ATOM     26  C   UNL     1     -13.944  57.615  49.760  0.00  0.00    +0.000 A 
ATOM     27  C   UNL     1     -14.201  58.541  50.797  0.00  0.00    +0.000 A 
ATOM     28  C   UNL     1     -14.015  58.051  48.428  0.00  0.00    +0.000 A 
ATOM     29  C   UNL     1     -14.479  59.882  50.466  0.00  0.00    +0.000 A 
ATOM     30  C   UNL     1     -14.268  59.387  48.116  0.00  0.00    +0.000 A 
ATOM     31  C   UNL     1     -14.503  60.305  49.134  0.00  0.00    +0.000 A 
BRANCH  27  32
ATOM     32  O   UNL     1     -13.955  58.311  52.123  0.00  0.00    +0.000 OA
BRANCH  32  33
ATOM     33  C   UNL     1     -15.081  58.147  52.982  0.00  0.00    +0.000 C 
ATOM     34  F   UNL     1     -15.993  57.297  52.488  0.00  0.00    +0.000 F 
ATOM     35  F   UNL     1     -14.643  57.673  54.169  0.00  0.00    +0.000 F 
ATOM     36  F   UNL     1     -15.688  59.334  53.205  0.00  0.00    +0.000 F 
ENDBRANCH  32  33
ENDBRANCH  27  32
ENDBRANCH  23  26
ENDBRANCH   1  23
TORSDOF 8
ENDMDL
MODEL 6
REMARK VINA RESULT:      -6.7      4.060      8.405
REMARK  Name = 
REMARK  11 active torsions:
REMARK  status: ('A' for Active; 'I' for Inactive)
REMARK    1  A    between atoms: S_1  and  N_4
REMARK    2  A    between atoms: S_1  and  C_5
REMARK    3  A    between atoms: C_7  and  O_11
REMARK    4  A    between atoms: N_10  and  C_14
REMARK    5  A    between atoms: O_11  and  C_15
REMARK    6  A    between atoms: C_18  and  C_24
REMARK    7  A    between atoms: C_24  and  O_28
REMARK    8  A    between atoms: O_28  and  C_31
REMARK    9  A    between atoms: C_29  and  C_32
REMARK   10  A    between atoms: C_29  and  C_33
REMARK   11  A    between atoms: C_31  and  C_34
REMARK                            x       y       z     vdW  Elec       q    Type
REMARK                         _______ _______ _______ _____ _____    ______ ____
ROOT
ATOM      1  N   UNL     1     -13.812  54.980  50.196  0.00  0.00    +0.000 N 
ATOM      2  C   UNL     1     -12.457  55.174  49.992  0.00  0.00    +0.000 C 
ATOM      3  O   UNL     1     -12.015  56.248  49.628  0.00  0.00    +0.000 OA
ATOM      4  N   UNL     1     -11.740  54.001  50.139  0.00  0.00    +0.000 N 
ATOM      5  H   UNL     1     -14.100  54.087  50.492  0.00  0.00    +0.000 HD
ATOM      6  H   UNL     1     -12.260  53.179  50.294  0.00  0.00    +0.000 HD
ENDROOT
BRANCH   4   7
ATOM      7  C   UNL     1     -10.356  53.866  50.088  0.00  0.00    +0.000 A 
ATOM      8  S   UNL     1      -9.430  54.238  51.468  0.00  0.00    +0.000 S 
ATOM      9  C   UNL     1      -9.579  53.389  49.037  0.00  0.00    +0.000 A 
ATOM     10  C   UNL     1      -7.988  53.761  50.727  0.00  0.00    +0.000 A 
ATOM     11  C   UNL     1      -8.189  53.273  49.451  0.00  0.00    +0.000 A 
ATOM     12  C   UNL     1      -6.670  53.840  51.445  0.00  0.00    +0.000 C 
ATOM     13  C   UNL     1      -7.043  52.738  48.637  0.00  0.00    +0.000 C 
ATOM     14  C   UNL     1      -5.482  53.658  50.459  0.00  0.00    +0.000 C 
ATOM     15  C   UNL     1      -5.794  52.493  49.485  0.00  0.00    +0.000 C 
ATOM     16  C   UNL     1      -4.206  53.302  51.239  0.00  0.00    +0.000 C 
ATOM     17  C   UNL     1      -5.224  54.967  49.685  0.00  0.00    +0.000 C 
BRANCH   9  18
ATOM     18  C   UNL     1     -10.119  53.040  47.716  0.00  0.00    +0.000 C 
ATOM     19  O   UNL     1     -10.091  51.900  47.265  0.00  0.00    +0.000 OA
BRANCH  18  20
ATOM     20  O   UNL     1     -10.627  54.122  47.067  0.00  0.00    +0.000 OA
BRANCH  20  21
ATOM     21  C   UNL     1      -9.781  55.247  46.803  0.00  0.00    +0.000 C 
ATOM     22  C   UNL     1      -8.627  54.824  45.916  0.00  0.00    +0.000 C 
ENDBRANCH  20  21
ENDBRANCH  18  20
ENDBRANCH   9  18
ENDBRANCH   4   7
BRANCH   1  23
ATOM     23  S   UNL     1     -14.995  56.133  49.981  0.00  0.00    +0.000 S 
ATOM     24  O   UNL     1     -16.299  55.515  50.037  0.00  0.00    +0.000 OA
ATOM     25  O   UNL     1     -14.534  56.807  48.785  0.00  0.00    +0.000 OA
BRANCH  23  26
ATOM     26  C   UNL     1     -14.848  57.290  51.324  0.00  0.00    +0.000 A 
ATOM     27  C   UNL     1     -14.161  58.518  51.188  0.00  0.00    +0.000 A 
ATOM     28  C   UNL     1     -15.521  57.018  52.525  0.00  0.00    +0.000 A 
ATOM     29  C   UNL     1     -14.207  59.451  52.243  0.00  0.00    +0.000 A 
ATOM     30  C   UNL     1     -15.577  57.961  53.552  0.00  0.00    +0.000 A 
ATOM     31  C   UNL     1     -14.918  59.178  53.415  0.00  0.00    +0.000 A 
BRANCH  27  32
ATOM     32  O   UNL     1     -13.656  59.000  50.011  0.00  0.00    +0.000 OA
BRANCH  32  33
ATOM     33  C   UNL     1     -14.315  60.117  49.419  0.00  0.00    +0.000 C 
ATOM     34  F   UNL     1     -15.465  60.428  50.035  0.00  0.00    +0.000 F 
ATOM     35  F   UNL     1     -13.485  61.181  49.484  0.00  0.00    +0.000 F 
ATOM     36  F   UNL     1     -14.585  59.876  48.117  0.00  0.00    +0.000 F 
ENDBRANCH  32  33
ENDBRANCH  27  32
ENDBRANCH  23  26
ENDBRANCH   1  23
TORSDOF 8
ENDMDL
MODEL 7
REMARK VINA RESULT:      -6.6      4.402      5.402
REMARK  Name = 
REMARK  11 active torsions:
REMARK  status: ('A' for Active; 'I' for Inactive)
REMARK    1  A    between atoms: S_1  and  N_4
REMARK    2  A    between atoms: S_1  and  C_5
REMARK    3  A    between atoms: C_7  and  O_11
REMARK    4  A    between atoms: N_10  and  C_14
REMARK    5  A    between atoms: O_11  and  C_15
REMARK    6  A    between atoms: C_18  and  C_24
REMARK    7  A    between atoms: C_24  and  O_28
REMARK    8  A    between atoms: O_28  and  C_31
REMARK    9  A    between atoms: C_29  and  C_32
REMARK   10  A    between atoms: C_29  and  C_33
REMARK   11  A    between atoms: C_31  and  C_34
REMARK                            x       y       z     vdW  Elec       q    Type
REMARK                         _______ _______ _______ _____ _____    ______ ____
ROOT
ATOM      1  N   UNL     1      -9.674  51.477  49.093  0.00  0.00    +0.000 N 
ATOM      2  C   UNL     1     -10.806  52.251  49.280  0.00  0.00    +0.000 C 
ATOM      3  O   UNL     1     -11.922  51.801  49.100  0.00  0.00    +0.000 OA
ATOM      4  N   UNL     1     -10.490  53.566  49.569  0.00  0.00    +0.000 N 
ATOM      5  H   UNL     1      -8.803  51.903  49.259  0.00  0.00    +0.000 HD
ATOM      6  H   UNL     1      -9.536  53.810  49.538  0.00  0.00    +0.000 HD
ENDROOT
BRANCH   4   7
ATOM      7  C   UNL     1     -11.387  54.578  49.898  0.00  0.00    +0.000 A 
ATOM      8  S   UNL     1     -11.929  54.724  51.505  0.00  0.00    +0.000 S 
ATOM      9  C   UNL     1     -11.886  55.581  49.073  0.00  0.00    +0.000 A 
ATOM     10  C   UNL     1     -12.816  56.121  51.164  0.00  0.00    +0.000 A 
ATOM     11  C   UNL     1     -12.679  56.522  49.849  0.00  0.00    +0.000 A 
ATOM     12  C   UNL     1     -13.609  56.829  52.225  0.00  0.00    +0.000 C 
ATOM     13  C   UNL     1     -13.340  57.778  49.350  0.00  0.00    +0.000 C 
ATOM     14  C   UNL     1     -14.578  57.873  51.600  0.00  0.00    +0.000 C 
ATOM     15  C   UNL     1     -13.836  58.665  50.493  0.00  0.00    +0.000 C 
ATOM     16  C   UNL     1     -15.037  58.869  52.677  0.00  0.00    +0.000 C 
ATOM     17  C   UNL     1     -15.826  57.169  51.030  0.00  0.00    +0.000 C 
BRANCH   9  18
ATOM     18  C   UNL     1     -11.615  55.663  47.631  0.00  0.00    +0.000 C 
ATOM     19  O   UNL     1     -12.502  55.786  46.793  0.00  0.00    +0.000 OA
BRANCH  18  20
ATOM     20  O   UNL     1     -10.288  55.569  47.352  0.00  0.00    +0.000 OA
BRANCH  20  21
ATOM     21  C   UNL     1      -9.853  54.756  46.256  0.00  0.00    +0.000 C 
ATOM     22  C   UNL     1      -8.359  54.921  46.056  0.00  0.00    +0.000 C 
ENDBRANCH  20  21
ENDBRANCH  18  20
ENDBRANCH   9  18
ENDBRANCH   4   7
BRANCH   1  23
ATOM     23  S   UNL     1      -9.664  49.883  48.609  0.00  0.00    +0.000 S 
ATOM     24  O   UNL     1     -11.015  49.377  48.553  0.00  0.00    +0.000 OA
ATOM     25  O   UNL     1      -8.684  49.310  49.508  0.00  0.00    +0.000 OA
BRANCH  23  26
ATOM     26  C   UNL     1      -8.963  49.837  46.974  0.00  0.00    +0.000 A 
ATOM     27  C   UNL     1      -9.538  50.534  45.888  0.00  0.00    +0.000 A 
ATOM     28  C   UNL     1      -7.744  49.167  46.782  0.00  0.00    +0.000 A 
ATOM     29  C   UNL     1      -8.854  50.574  44.657  0.00  0.00    +0.000 A 
ATOM     30  C   UNL     1      -7.066  49.235  45.565  0.00  0.00    +0.000 A 
ATOM     31  C   UNL     1      -7.620  49.935  44.499  0.00  0.00    +0.000 A 
BRANCH  27  32
ATOM     32  O   UNL     1     -10.594  51.399  45.991  0.00  0.00    +0.000 OA
BRANCH  32  33
ATOM     33  C   UNL     1     -11.851  50.968  45.475  0.00  0.00    +0.000 C 
ATOM     34  F   UNL     1     -12.893  51.503  46.128  0.00  0.00    +0.000 F 
ATOM     35  F   UNL     1     -11.921  51.330  44.175  0.00  0.00    +0.000 F 
ATOM     36  F   UNL     1     -11.957  49.622  45.539  0.00  0.00    +0.000 F 
ENDBRANCH  32  33
ENDBRANCH  27  32
ENDBRANCH  23  26
ENDBRANCH   1  23
TORSDOF 8
ENDMDL
MODEL 8
REMARK VINA RESULT:      -6.6      2.422      5.197
REMARK  Name = 
REMARK  11 active torsions:
REMARK  status: ('A' for Active; 'I' for Inactive)
REMARK    1  A    between atoms: S_1  and  N_4
REMARK    2  A    between atoms: S_1  and  C_5
REMARK    3  A    between atoms: C_7  and  O_11
REMARK    4  A    between atoms: N_10  and  C_14
REMARK    5  A    between atoms: O_11  and  C_15
REMARK    6  A    between atoms: C_18  and  C_24
REMARK    7  A    between atoms: C_24  and  O_28
REMARK    8  A    between atoms: O_28  and  C_31
REMARK    9  A    between atoms: C_29  and  C_32
REMARK   10  A    between atoms: C_29  and  C_33
REMARK   11  A    between atoms: C_31  and  C_34
REMARK                            x       y       z     vdW  Elec       q    Type
REMARK                         _______ _______ _______ _____ _____    ______ ____
ROOT
ATOM      1  N   UNL     1      -8.620  54.602  52.289  0.00  0.00    +0.000 N 
ATOM      2  C   UNL     1      -8.477  54.527  50.914  0.00  0.00    +0.000 C 
ATOM      3  O   UNL     1      -7.488  54.957  50.353  0.00  0.00    +0.000 OA
ATOM      4  N   UNL     1      -9.613  54.027  50.305  0.00  0.00    +0.000 N 
ATOM      5  H   UNL     1      -9.444  54.232  52.678  0.00  0.00    +0.000 HD
ATOM      6  H   UNL     1     -10.391  53.857  50.885  0.00  0.00    +0.000 HD
ENDROOT
BRANCH   4   7
ATOM      7  C   UNL     1      -9.767  53.742  48.951  0.00  0.00    +0.000 A 
ATOM      8  S   UNL     1      -9.091  52.314  48.316  0.00  0.00    +0.000 S 
ATOM      9  C   UNL     1     -10.483  54.462  48.000  0.00  0.00    +0.000 A 
ATOM     10  C   UNL     1      -9.740  52.595  46.782  0.00  0.00    +0.000 A 
ATOM     11  C   UNL     1     -10.511  53.740  46.738  0.00  0.00    +0.000 A 
ATOM     12  C   UNL     1      -9.507  51.644  45.642  0.00  0.00    +0.000 C 
ATOM     13  C   UNL     1     -11.230  54.142  45.480  0.00  0.00    +0.000 C 
ATOM     14  C   UNL     1      -9.924  52.279  44.285  0.00  0.00    +0.000 C 
ATOM     15  C   UNL     1     -11.281  53.008  44.454  0.00  0.00    +0.000 C 
ATOM     16  C   UNL     1     -10.098  51.179  43.226  0.00  0.00    +0.000 C 
ATOM     17  C   UNL     1      -8.833  53.253  43.794  0.00  0.00    +0.000 C 
BRANCH   9  18
ATOM     18  C   UNL     1     -11.126  55.757  48.270  0.00  0.00    +0.000 C 
ATOM     19  O   UNL     1     -10.620  56.615  48.984  0.00  0.00    +0.000 OA
BRANCH  18  20
ATOM     20  O   UNL     1     -12.333  55.868  47.653  0.00  0.00    +0.000 OA
BRANCH  20  21
ATOM     21  C   UNL     1     -13.394  56.578  48.303  0.00  0.00    +0.000 C 
ATOM     22  C   UNL     1     -14.042  57.538  47.324  0.00  0.00    +0.000 C 
ENDBRANCH  20  21
ENDBRANCH  18  20
ENDBRANCH   9  18
ENDBRANCH   4   7
BRANCH   1  23
ATOM     23  S   UNL     1      -7.512  55.268  53.340  0.00  0.00    +0.000 S 
ATOM     24  O   UNL     1      -8.096  55.397  54.654  0.00  0.00    +0.000 OA
ATOM     25  O   UNL     1      -7.066  56.429  52.598  0.00  0.00    +0.000 OA
BRANCH  23  26
ATOM     26  C   UNL     1      -6.135  54.144  53.429  0.00  0.00    +0.000 A 
ATOM     27  C   UNL     1      -6.302  52.742  53.370  0.00  0.00    +0.000 A 
ATOM     28  C   UNL     1      -4.835  54.672  53.459  0.00  0.00    +0.000 A 
ATOM     29  C   UNL     1      -5.162  51.917  53.300  0.00  0.00    +0.000 A 
ATOM     30  C   UNL     1      -3.716  53.844  53.364  0.00  0.00    +0.000 A 
ATOM     31  C   UNL     1      -3.876  52.465  53.288  0.00  0.00    +0.000 A 
BRANCH  27  32
ATOM     32  O   UNL     1      -7.490  52.111  53.119  0.00  0.00    +0.000 OA
BRANCH  32  33
ATOM     33  C   UNL     1      -8.192  51.562  54.232  0.00  0.00    +0.000 C 
ATOM     34  F   UNL     1      -7.511  51.672  55.382  0.00  0.00    +0.000 F 
ATOM     35  F   UNL     1      -9.366  52.220  54.358  0.00  0.00    +0.000 F 
ATOM     36  F   UNL     1      -8.466  50.255  54.027  0.00  0.00    +0.000 F 
ENDBRANCH  32  33
ENDBRANCH  27  32
ENDBRANCH  23  26
ENDBRANCH   1  23
TORSDOF 8
ENDMDL
MODEL 9
REMARK VINA RESULT:      -6.5      3.933      5.671
REMARK  Name = 
REMARK  11 active torsions:
REMARK  status: ('A' for Active; 'I' for Inactive)
REMARK    1  A    between atoms: S_1  and  N_4
REMARK    2  A    between atoms: S_1  and  C_5
REMARK    3  A    between atoms: C_7  and  O_11
REMARK    4  A    between atoms: N_10  and  C_14
REMARK    5  A    between atoms: O_11  and  C_15
REMARK    6  A    between atoms: C_18  and  C_24
REMARK    7  A    between atoms: C_24  and  O_28
REMARK    8  A    between atoms: O_28  and  C_31
REMARK    9  A    between atoms: C_29  and  C_32
REMARK   10  A    between atoms: C_29  and  C_33
REMARK   11  A    between atoms: C_31  and  C_34
REMARK                            x       y       z     vdW  Elec       q    Type
REMARK                         _______ _______ _______ _____ _____    ______ ____
ROOT
ATOM      1  N   UNL     1     -10.971  53.937  45.177  0.00  0.00    +0.000 N 
ATOM      2  C   UNL     1     -11.605  54.093  46.397  0.00  0.00    +0.000 C 
ATOM      3  O   UNL     1     -12.067  53.143  47.000  0.00  0.00    +0.000 OA
ATOM      4  N   UNL     1     -11.732  55.425  46.746  0.00  0.00    +0.000 N 
ATOM      5  H   UNL     1     -10.618  54.748  44.745  0.00  0.00    +0.000 HD
ATOM      6  H   UNL     1     -11.435  56.088  46.081  0.00  0.00    +0.000 HD
ENDROOT
BRANCH   4   7
ATOM      7  C   UNL     1     -12.240  55.920  47.943  0.00  0.00    +0.000 A 
ATOM      8  S   UNL     1     -13.767  56.674  47.955  0.00  0.00    +0.000 S 
ATOM      9  C   UNL     1     -11.679  55.831  49.214  0.00  0.00    +0.000 A 
ATOM     10  C   UNL     1     -13.739  56.883  49.631  0.00  0.00    +0.000 A 
ATOM     11  C   UNL     1     -12.605  56.348  50.210  0.00  0.00    +0.000 A 
ATOM     12  C   UNL     1     -14.873  57.545  50.362  0.00  0.00    +0.000 C 
ATOM     13  C   UNL     1     -12.409  56.374  51.701  0.00  0.00    +0.000 C 
ATOM     14  C   UNL     1     -14.470  57.904  51.820  0.00  0.00    +0.000 C 
ATOM     15  C   UNL     1     -13.700  56.715  52.449  0.00  0.00    +0.000 C 
ATOM     16  C   UNL     1     -15.731  58.159  52.662  0.00  0.00    +0.000 C 
ATOM     17  C   UNL     1     -13.613  59.186  51.836  0.00  0.00    +0.000 C 
BRANCH   9  18
ATOM     18  C   UNL     1     -10.347  55.269  49.480  0.00  0.00    +0.000 C 
ATOM     19  O   UNL     1     -10.180  54.163  49.981  0.00  0.00    +0.000 OA
BRANCH  18  20
ATOM     20  O   UNL     1      -9.350  56.123  49.124  0.00  0.00    +0.000 OA
BRANCH  20  21
ATOM     21  C   UNL     1      -8.047  55.964  49.697  0.00  0.00    +0.000 C 
ATOM     22  C   UNL     1      -7.808  57.044  50.734  0.00  0.00    +0.000 C 
ENDBRANCH  20  21
ENDBRANCH  18  20
ENDBRANCH   9  18
ENDBRANCH   4   7
BRANCH   1  23
ATOM     23  S   UNL     1     -10.755  52.491  44.379  0.00  0.00    +0.000 S 
ATOM     24  O   UNL     1     -10.268  52.735  43.042  0.00  0.00    +0.000 OA
ATOM     25  O   UNL     1     -12.026  51.837  44.607  0.00  0.00    +0.000 OA
BRANCH  23  26
ATOM     26  C   UNL     1      -9.526  51.574  45.281  0.00  0.00    +0.000 A 
ATOM     27  C   UNL     1      -8.234  52.090  45.532  0.00  0.00    +0.000 A 
ATOM     28  C   UNL     1      -9.886  50.341  45.848  0.00  0.00    +0.000 A 
ATOM     29  C   UNL     1      -7.361  51.375  46.375  0.00  0.00    +0.000 A 
ATOM     30  C   UNL     1      -9.020  49.656  46.701  0.00  0.00    +0.000 A 
ATOM     31  C   UNL     1      -7.754  50.169  46.963  0.00  0.00    +0.000 A 
BRANCH  27  32
ATOM     32  O   UNL     1      -7.833  53.362  45.228  0.00  0.00    +0.000 OA
BRANCH  32  33
ATOM     33  C   UNL     1      -7.787  54.310  46.292  0.00  0.00    +0.000 C 
ATOM     34  F   UNL     1      -8.324  55.493  45.960  0.00  0.00    +0.000 F 
ATOM     35  F   UNL     1      -8.471  53.802  47.341  0.00  0.00    +0.000 F 
ATOM     36  F   UNL     1      -6.512  54.521  46.688  0.00  0.00    +0.000 F 
ENDBRANCH  32  33
ENDBRANCH  27  32
ENDBRANCH  23  26
ENDBRANCH   1  23
TORSDOF 8
ENDMDL
