MODEL 1
REMARK VINA RESULT:      -7.1      0.000      0.000
REMARK  Name = 
REMARK  10 active torsions:
REMARK  status: ('A' for Active; 'I' for Inactive)
REMARK    1  A    between atoms: S_1  and  N_4
REMARK    2  A    between atoms: S_1  and  C_5
REMARK    3  A    between atoms: N_10  and  C_13
REMARK    4  A    between atoms: C_14  and  C_17
REMARK    5  A    between atoms: C_16  and  C_20
REMARK    6  A    between atoms: C_20  and  O_25
REMARK    7  A    between atoms: O_25  and  C_28
REMARK    8  A    between atoms: C_26  and  C_29
REMARK    9  A    between atoms: C_26  and  C_30
REMARK   10  A    between atoms: C_28  and  C_31
REMARK                            x       y       z     vdW  Elec       q    Type
REMARK                         _______ _______ _______ _____ _____    ______ ____
ROOT
ATOM      1  N   UNL     1     -11.776  56.895  49.403  0.00  0.00    +0.000 N 
ATOM      2  C   UNL     1     -10.759  55.952  49.209  0.00  0.00    +0.000 C 
ATOM      3  O   UNL     1     -11.019  54.762  49.157  0.00  0.00    +0.000 OA
ATOM      4  N   UNL     1      -9.466  56.463  49.226  0.00  0.00    +0.000 N 
ATOM      5  H   UNL     1     -11.525  57.842  49.501  0.00  0.00    +0.000 HD
ATOM      6  H   UNL     1      -9.301  57.431  49.279  0.00  0.00    +0.000 HD
ENDROOT
BRANCH   4   7
ATOM      7  C   UNL     1      -8.413  55.553  49.162  0.00  0.00    +0.000 A 
ATOM      8  S   UNL     1      -7.986  54.973  47.615  0.00  0.00    +0.000 S 
ATOM      9  C   UNL     1      -7.605  55.039  50.162  0.00  0.00    +0.000 A 
ATOM     10  C   UNL     1      -6.584  54.194  48.220  0.00  0.00    +0.000 A 
ATOM     11  C   UNL     1      -6.480  54.325  49.595  0.00  0.00    +0.000 A 
ATOM     12  C   UNL     1      -5.588  53.443  47.348  0.00  0.00    +0.000 C 
ATOM     13  C   UNL     1      -5.361  53.688  50.368  0.00  0.00    +0.000 C 
ATOM     14  C   UNL     1      -4.695  52.479  48.206  0.00  0.00    +0.000 C 
ATOM     15  C   UNL     1      -4.215  53.224  49.474  0.00  0.00    +0.000 C 
ATOM     16  C   UNL     1      -3.432  52.031  47.443  0.00  0.00    +0.000 C 
ATOM     17  C   UNL     1      -5.486  51.207  48.578  0.00  0.00    +0.000 C 
BRANCH   9  18
ATOM     18  C   UNL     1      -7.900  55.205  51.582  0.00  0.00    +0.000 C 
ATOM     19  O   UNL     1      -7.455  56.124  52.261  0.00  0.00    +0.000 OA
BRANCH  18  20
ATOM     20  O   UNL     1      -8.716  54.223  52.046  0.00  0.00    +0.000 OA
BRANCH  20  21
ATOM     21  C   UNL     1      -9.572  54.554  53.139  0.00  0.00    +0.000 C 
ATOM     22  C   UNL     1     -10.889  55.088  52.619  0.00  0.00    +0.000 C 
ENDBRANCH  20  21
ENDBRANCH  18  20
ENDBRANCH   9  18
ENDBRANCH   4   7
BRANCH   1  23
ATOM     23  S   UNL     1     -13.402  56.480  49.473  0.00  0.00    +0.000 S 
ATOM     24  O   UNL     1     -13.490  55.075  49.811  0.00  0.00    +0.000 OA
ATOM     25  O   UNL     1     -14.003  56.971  48.249  0.00  0.00    +0.000 OA
BRANCH  23  26
ATOM     26  C   UNL     1     -14.113  57.431  50.807  0.00  0.00    +0.000 A 
ATOM     27  C   UNL     1     -14.122  56.946  52.118  0.00  0.00    +0.000 A 
ATOM     28  C   UNL     1     -14.634  58.702  50.529  0.00  0.00    +0.000 A 
ATOM     29  C   UNL     1     -14.713  57.719  53.130  0.00  0.00    +0.000 A 
ATOM     30  C   UNL     1     -15.217  59.467  51.544  0.00  0.00    +0.000 A 
ATOM     31  C   UNL     1     -15.268  58.988  52.849  0.00  0.00    +0.000 A 
BRANCH  31  32
ATOM     32  C   UNL     1     -15.884  59.760  53.891  0.00  0.00    +0.000 C 
ATOM     33  N   UNL     1     -16.377  60.400  54.732  0.00  0.00    +0.000 NA
ENDBRANCH  31  32
ENDBRANCH  23  26
ENDBRANCH   1  23
TORSDOF 7
ENDMDL
MODEL 2
REMARK VINA RESULT:      -7.1      1.875      3.099
REMARK  Name = 
REMARK  10 active torsions:
REMARK  status: ('A' for Active; 'I' for Inactive)
REMARK    1  A    between atoms: S_1  and  N_4
REMARK    2  A    between atoms: S_1  and  C_5
REMARK    3  A    between atoms: N_10  and  C_13
REMARK    4  A    between atoms: C_14  and  C_17
REMARK    5  A    between atoms: C_16  and  C_20
REMARK    6  A    between atoms: C_20  and  O_25
REMARK    7  A    between atoms: O_25  and  C_28
REMARK    8  A    between atoms: C_26  and  C_29
REMARK    9  A    between atoms: C_26  and  C_30
REMARK   10  A    between atoms: C_28  and  C_31
REMARK                            x       y       z     vdW  Elec       q    Type
REMARK                         _______ _______ _______ _____ _____    ______ ____
ROOT
ATOM      1  N   UNL     1     -11.792  56.967  49.398  0.00  0.00    +0.000 N 
ATOM      2  C   UNL     1     -10.773  56.072  49.748  0.00  0.00    +0.000 C 
ATOM      3  O   UNL     1     -11.043  54.966  50.181  0.00  0.00    +0.000 OA
ATOM      4  N   UNL     1      -9.484  56.591  49.695  0.00  0.00    +0.000 N 
ATOM      5  H   UNL     1     -11.541  57.874  49.110  0.00  0.00    +0.000 HD
ATOM      6  H   UNL     1      -9.313  57.495  49.347  0.00  0.00    +0.000 HD
ENDROOT
BRANCH   4   7
ATOM      7  C   UNL     1      -8.445  55.783  50.152  0.00  0.00    +0.000 A 
ATOM      8  S   UNL     1      -7.983  55.969  51.784  0.00  0.00    +0.000 S 
ATOM      9  C   UNL     1      -7.713  54.805  49.502  0.00  0.00    +0.000 A 
ATOM     10  C   UNL     1      -6.948  54.604  51.716  0.00  0.00    +0.000 A 
ATOM     11  C   UNL     1      -6.911  54.054  50.446  0.00  0.00    +0.000 A 
ATOM     12  C   UNL     1      -6.162  54.076  52.907  0.00  0.00    +0.000 C 
ATOM     13  C   UNL     1      -6.038  52.877  50.118  0.00  0.00    +0.000 C 
ATOM     14  C   UNL     1      -4.991  53.139  52.445  0.00  0.00    +0.000 C 
ATOM     15  C   UNL     1      -5.515  52.165  51.363  0.00  0.00    +0.000 C 
ATOM     16  C   UNL     1      -4.452  52.275  53.604  0.00  0.00    +0.000 C 
ATOM     17  C   UNL     1      -3.813  53.980  51.909  0.00  0.00    +0.000 C 
BRANCH   9  18
ATOM     18  C   UNL     1      -7.763  54.607  48.056  0.00  0.00    +0.000 C 
ATOM     19  O   UNL     1      -6.787  54.728  47.325  0.00  0.00    +0.000 OA
BRANCH  18  20
ATOM     20  O   UNL     1      -9.012  54.279  47.635  0.00  0.00    +0.000 OA
BRANCH  20  21
ATOM     21  C   UNL     1      -9.488  54.923  46.455  0.00  0.00    +0.000 C 
ATOM     22  C   UNL     1     -10.967  54.650  46.280  0.00  0.00    +0.000 C 
ENDBRANCH  20  21
ENDBRANCH  18  20
ENDBRANCH   9  18
ENDBRANCH   4   7
BRANCH   1  23
ATOM     23  S   UNL     1     -13.421  56.559  49.448  0.00  0.00    +0.000 S 
ATOM     24  O   UNL     1     -13.518  55.147  49.751  0.00  0.00    +0.000 OA
ATOM     25  O   UNL     1     -14.011  57.084  48.233  0.00  0.00    +0.000 OA
BRANCH  23  26
ATOM     26  C   UNL     1     -14.135  57.481  50.800  0.00  0.00    +0.000 A 
ATOM     27  C   UNL     1     -14.106  56.988  52.108  0.00  0.00    +0.000 A 
ATOM     28  C   UNL     1     -14.698  58.738  50.540  0.00  0.00    +0.000 A 
ATOM     29  C   UNL     1     -14.701  57.738  53.135  0.00  0.00    +0.000 A 
ATOM     30  C   UNL     1     -15.285  59.480  51.570  0.00  0.00    +0.000 A 
ATOM     31  C   UNL     1     -15.299  58.992  52.872  0.00  0.00    +0.000 A 
BRANCH  31  32
ATOM     32  C   UNL     1     -15.918  59.739  53.930  0.00  0.00    +0.000 C 
ATOM     33  N   UNL     1     -16.423  60.358  54.779  0.00  0.00    +0.000 NA
ENDBRANCH  31  32
ENDBRANCH  23  26
ENDBRANCH   1  23
TORSDOF 7
ENDMDL
MODEL 3
REMARK VINA RESULT:      -7.1      3.138      8.808
REMARK  Name = 
REMARK  10 active torsions:
REMARK  status: ('A' for Active; 'I' for Inactive)
REMARK    1  A    between atoms: S_1  and  N_4
REMARK    2  A    between atoms: S_1  and  C_5
REMARK    3  A    between atoms: N_10  and  C_13
REMARK    4  A    between atoms: C_14  and  C_17
REMARK    5  A    between atoms: C_16  and  C_20
REMARK    6  A    between atoms: C_20  and  O_25
REMARK    7  A    between atoms: O_25  and  C_28
REMARK    8  A    between atoms: C_26  and  C_29
REMARK    9  A    between atoms: C_26  and  C_30
REMARK   10  A    between atoms: C_28  and  C_31
REMARK                            x       y       z     vdW  Elec       q    Type
REMARK                         _______ _______ _______ _____ _____    ______ ____
ROOT
ATOM      1  N   UNL     1      -8.495  52.306  48.617  0.00  0.00    +0.000 N 
ATOM      2  C   UNL     1      -9.343  53.397  48.844  0.00  0.00    +0.000 C 
ATOM      3  O   UNL     1      -8.889  54.522  48.956  0.00  0.00    +0.000 OA
ATOM      4  N   UNL     1     -10.678  53.074  49.066  0.00  0.00    +0.000 N 
ATOM      5  H   UNL     1      -8.887  51.403  48.593  0.00  0.00    +0.000 HD
ATOM      6  H   UNL     1     -11.000  52.149  48.974  0.00  0.00    +0.000 HD
ENDROOT
BRANCH   4   7
ATOM      7  C   UNL     1     -11.541  54.108  49.419  0.00  0.00    +0.000 A 
ATOM      8  S   UNL     1     -11.992  54.210  51.062  0.00  0.00    +0.000 S 
ATOM      9  C   UNL     1     -12.097  55.119  48.654  0.00  0.00    +0.000 A 
ATOM     10  C   UNL     1     -12.762  55.724  50.826  0.00  0.00    +0.000 A 
ATOM     11  C   UNL     1     -12.726  56.113  49.498  0.00  0.00    +0.000 A 
ATOM     12  C   UNL     1     -13.411  56.528  51.943  0.00  0.00    +0.000 C 
ATOM     13  C   UNL     1     -13.377  57.383  49.028  0.00  0.00    +0.000 C 
ATOM     14  C   UNL     1     -14.401  57.601  51.370  0.00  0.00    +0.000 C 
ATOM     15  C   UNL     1     -13.732  58.324  50.176  0.00  0.00    +0.000 C 
ATOM     16  C   UNL     1     -14.746  58.684  52.413  0.00  0.00    +0.000 C 
ATOM     17  C   UNL     1     -15.724  56.933  50.942  0.00  0.00    +0.000 C 
BRANCH   9  18
ATOM     18  C   UNL     1     -12.045  55.128  47.195  0.00  0.00    +0.000 C 
ATOM     19  O   UNL     1     -12.010  56.155  46.527  0.00  0.00    +0.000 OA
BRANCH  18  20
ATOM     20  O   UNL     1     -12.042  53.869  46.683  0.00  0.00    +0.000 OA
BRANCH  20  21
ATOM     21  C   UNL     1     -11.604  53.719  45.333  0.00  0.00    +0.000 C 
ATOM     22  C   UNL     1     -10.101  53.548  45.296  0.00  0.00    +0.000 C 
ENDBRANCH  20  21
ENDBRANCH  18  20
ENDBRANCH   9  18
ENDBRANCH   4   7
BRANCH   1  23
ATOM     23  S   UNL     1      -6.840  52.472  48.384  0.00  0.00    +0.000 S 
ATOM     24  O   UNL     1      -6.632  53.479  47.365  0.00  0.00    +0.000 OA
ATOM     25  O   UNL     1      -6.317  51.132  48.199  0.00  0.00    +0.000 OA
BRANCH  23  26
ATOM     26  C   UNL     1      -6.166  53.073  49.924  0.00  0.00    +0.000 A 
ATOM     27  C   UNL     1      -6.766  52.762  51.148  0.00  0.00    +0.000 A 
ATOM     28  C   UNL     1      -4.991  53.837  49.897  0.00  0.00    +0.000 A 
ATOM     29  C   UNL     1      -6.214  53.276  52.332  0.00  0.00    +0.000 A 
ATOM     30  C   UNL     1      -4.445  54.341  51.082  0.00  0.00    +0.000 A 
ATOM     31  C   UNL     1      -5.047  54.074  52.307  0.00  0.00    +0.000 A 
BRANCH  31  32
ATOM     32  C   UNL     1      -4.504  54.606  53.524  0.00  0.00    +0.000 C 
ATOM     33  N   UNL     1      -4.064  55.053  54.507  0.00  0.00    +0.000 NA
ENDBRANCH  31  32
ENDBRANCH  23  26
ENDBRANCH   1  23
TORSDOF 7
ENDMDL
MODEL 4
REMARK VINA RESULT:      -6.8      1.548      2.041
REMARK  Name = 
REMARK  10 active torsions:
REMARK  status: ('A' for Active; 'I' for Inactive)
REMARK    1  A    between atoms: S_1  and  N_4
REMARK    2  A    between atoms: S_1  and  C_5
REMARK    3  A    between atoms: N_10  and  C_13
REMARK    4  A    between atoms: C_14  and  C_17
REMARK    5  A    between atoms: C_16  and  C_20
REMARK    6  A    between atoms: C_20  and  O_25
REMARK    7  A    between atoms: O_25  and  C_28
REMARK    8  A    between atoms: C_26  and  C_29
REMARK    9  A    between atoms: C_26  and  C_30
REMARK   10  A    between atoms: C_28  and  C_31
REMARK                            x       y       z     vdW  Elec       q    Type
REMARK                         _______ _______ _______ _____ _____    ______ ____
ROOT
ATOM      1  N   UNL     1     -11.937  55.589  50.988  0.00  0.00    +0.000 N 
ATOM      2  C   UNL     1     -10.636  55.307  50.553  0.00  0.00    +0.000 C 
ATOM      3  O   UNL     1     -10.276  55.623  49.432  0.00  0.00    +0.000 OA
ATOM      4  N   UNL     1      -9.874  54.537  51.424  0.00  0.00    +0.000 N 
ATOM      5  H   UNL     1     -12.216  55.266  51.875  0.00  0.00    +0.000 HD
ATOM      6  H   UNL     1     -10.209  54.295  52.317  0.00  0.00    +0.000 HD
ENDROOT
BRANCH   4   7
ATOM      7  C   UNL     1      -8.618  54.123  50.987  0.00  0.00    +0.000 A 
ATOM      8  S   UNL     1      -8.522  52.579  50.266  0.00  0.00    +0.000 S 
ATOM      9  C   UNL     1      -7.396  54.773  51.011  0.00  0.00    +0.000 A 
ATOM     10  C   UNL     1      -6.898  52.834  49.779  0.00  0.00    +0.000 A 
ATOM     11  C   UNL     1      -6.420  54.057  50.217  0.00  0.00    +0.000 A 
ATOM     12  C   UNL     1      -6.087  51.829  48.974  0.00  0.00    +0.000 C 
ATOM     13  C   UNL     1      -5.006  54.493  49.957  0.00  0.00    +0.000 C 
ATOM     14  C   UNL     1      -4.549  52.127  49.076  0.00  0.00    +0.000 C 
ATOM     15  C   UNL     1      -4.313  53.646  48.894  0.00  0.00    +0.000 C 
ATOM     16  C   UNL     1      -3.748  51.412  47.969  0.00  0.00    +0.000 C 
ATOM     17  C   UNL     1      -4.000  51.640  50.433  0.00  0.00    +0.000 C 
BRANCH   9  18
ATOM     18  C   UNL     1      -7.168  56.003  51.765  0.00  0.00    +0.000 C 
ATOM     19  O   UNL     1      -7.586  57.099  51.411  0.00  0.00    +0.000 OA
BRANCH  18  20
ATOM     20  O   UNL     1      -6.441  55.776  52.890  0.00  0.00    +0.000 OA
BRANCH  20  21
ATOM     21  C   UNL     1      -7.156  55.346  54.048  0.00  0.00    +0.000 C 
ATOM     22  C   UNL     1      -6.316  54.365  54.836  0.00  0.00    +0.000 C 
ENDBRANCH  20  21
ENDBRANCH  18  20
ENDBRANCH   9  18
ENDBRANCH   4   7
BRANCH   1  23
ATOM     23  S   UNL     1     -13.040  56.456  50.063  0.00  0.00    +0.000 S 
ATOM     24  O   UNL     1     -13.957  55.511  49.461  0.00  0.00    +0.000 OA
ATOM     25  O   UNL     1     -12.261  57.346  49.225  0.00  0.00    +0.000 OA
BRANCH  23  26
ATOM     26  C   UNL     1     -13.952  57.492  51.195  0.00  0.00    +0.000 A 
ATOM     27  C   UNL     1     -14.433  58.744  50.803  0.00  0.00    +0.000 A 
ATOM     28  C   UNL     1     -14.219  57.014  52.486  0.00  0.00    +0.000 A 
ATOM     29  C   UNL     1     -15.126  59.534  51.735  0.00  0.00    +0.000 A 
ATOM     30  C   UNL     1     -14.912  57.806  53.406  0.00  0.00    +0.000 A 
ATOM     31  C   UNL     1     -15.369  59.070  53.048  0.00  0.00    +0.000 A 
BRANCH  31  32
ATOM     32  C   UNL     1     -16.064  59.896  53.995  0.00  0.00    +0.000 C 
ATOM     33  N   UNL     1     -16.640  60.568  54.753  0.00  0.00    +0.000 NA
ENDBRANCH  31  32
ENDBRANCH  23  26
ENDBRANCH   1  23
TORSDOF 7
ENDMDL
MODEL 5
REMARK VINA RESULT:      -6.8      2.816      8.520
REMARK  Name = 
REMARK  10 active torsions:
REMARK  status: ('A' for Active; 'I' for Inactive)
REMARK    1  A    between atoms: S_1  and  N_4
REMARK    2  A    between atoms: S_1  and  C_5
REMARK    3  A    between atoms: N_10  and  C_13
REMARK    4  A    between atoms: C_14  and  C_17
REMARK    5  A    between atoms: C_16  and  C_20
REMARK    6  A    between atoms: C_20  and  O_25
REMARK    7  A    between atoms: O_25  and  C_28
REMARK    8  A    between atoms: C_26  and  C_29
REMARK    9  A    between atoms: C_26  and  C_30
REMARK   10  A    between atoms: C_28  and  C_31
REMARK                            x       y       z     vdW  Elec       q    Type
REMARK                         _______ _______ _______ _____ _____    ______ ____
ROOT
ATOM      1  N   UNL     1      -9.300  53.155  47.411  0.00  0.00    +0.000 N 
ATOM      2  C   UNL     1      -9.967  54.240  47.995  0.00  0.00    +0.000 C 
ATOM      3  O   UNL     1      -9.373  55.277  48.233  0.00  0.00    +0.000 OA
ATOM      4  N   UNL     1     -11.274  53.985  48.394  0.00  0.00    +0.000 N 
ATOM      5  H   UNL     1      -9.792  52.312  47.289  0.00  0.00    +0.000 HD
ATOM      6  H   UNL     1     -11.712  53.128  48.189  0.00  0.00    +0.000 HD
ENDROOT
BRANCH   4   7
ATOM      7  C   UNL     1     -11.942  54.989  49.091  0.00  0.00    +0.000 A 
ATOM      8  S   UNL     1     -12.863  56.089  48.168  0.00  0.00    +0.000 S 
ATOM      9  C   UNL     1     -12.016  55.246  50.449  0.00  0.00    +0.000 A 
ATOM     10  C   UNL     1     -13.548  56.797  49.571  0.00  0.00    +0.000 A 
ATOM     11  C   UNL     1     -13.032  56.239  50.728  0.00  0.00    +0.000 A 
ATOM     12  C   UNL     1     -14.587  57.909  49.539  0.00  0.00    +0.000 C 
ATOM     13  C   UNL     1     -13.439  56.723  52.090  0.00  0.00    +0.000 C 
ATOM     14  C   UNL     1     -14.676  58.644  50.922  0.00  0.00    +0.000 C 
ATOM     15  C   UNL     1     -14.694  57.592  52.057  0.00  0.00    +0.000 C 
ATOM     16  C   UNL     1     -15.973  59.469  51.055  0.00  0.00    +0.000 C 
ATOM     17  C   UNL     1     -13.490  59.616  51.088  0.00  0.00    +0.000 C 
BRANCH   9  18
ATOM     18  C   UNL     1     -11.152  54.591  51.428  0.00  0.00    +0.000 C 
ATOM     19  O   UNL     1     -11.276  53.417  51.758  0.00  0.00    +0.000 OA
BRANCH  18  20
ATOM     20  O   UNL     1     -10.211  55.439  51.917  0.00  0.00    +0.000 OA
BRANCH  20  21
ATOM     21  C   UNL     1      -8.847  55.045  51.775  0.00  0.00    +0.000 C 
ATOM     22  C   UNL     1      -8.019  56.217  51.293  0.00  0.00    +0.000 C 
ENDBRANCH  20  21
ENDBRANCH  18  20
ENDBRANCH   9  18
ENDBRANCH   4   7
BRANCH   1  23
ATOM     23  S   UNL     1      -7.697  53.234  46.911  0.00  0.00    +0.000 S 
ATOM     24  O   UNL     1      -7.550  54.400  46.066  0.00  0.00    +0.000 OA
ATOM     25  O   UNL     1      -7.364  51.919  46.399  0.00  0.00    +0.000 OA
BRANCH  23  26
ATOM     26  C   UNL     1      -6.715  53.470  48.384  0.00  0.00    +0.000 A 
ATOM     27  C   UNL     1      -6.810  52.590  49.466  0.00  0.00    +0.000 A 
ATOM     28  C   UNL     1      -5.808  54.537  48.428  0.00  0.00    +0.000 A 
ATOM     29  C   UNL     1      -6.034  52.829  50.612  0.00  0.00    +0.000 A 
ATOM     30  C   UNL     1      -5.037  54.765  49.573  0.00  0.00    +0.000 A 
ATOM     31  C   UNL     1      -5.141  53.923  50.674  0.00  0.00    +0.000 A 
BRANCH  31  32
ATOM     32  C   UNL     1      -4.367  54.164  51.859  0.00  0.00    +0.000 C 
ATOM     33  N   UNL     1      -3.746  54.374  52.823  0.00  0.00    +0.000 NA
ENDBRANCH  31  32
ENDBRANCH  23  26
ENDBRANCH   1  23
TORSDOF 7
ENDMDL
MODEL 6
REMARK VINA RESULT:      -6.7      4.179      7.780
REMARK  Name = 
REMARK  10 active torsions:
REMARK  status: ('A' for Active; 'I' for Inactive)
REMARK    1  A    between atoms: S_1  and  N_4
REMARK    2  A    between atoms: S_1  and  C_5
REMARK    3  A    between atoms: N_10  and  C_13
REMARK    4  A    between atoms: C_14  and  C_17
REMARK    5  A    between atoms: C_16  and  C_20
REMARK    6  A    between atoms: C_20  and  O_25
REMARK    7  A    between atoms: O_25  and  C_28
REMARK    8  A    between atoms: C_26  and  C_29
REMARK    9  A    between atoms: C_26  and  C_30
REMARK   10  A    between atoms: C_28  and  C_31
REMARK                            x       y       z     vdW  Elec       q    Type
REMARK                         _______ _______ _______ _____ _____    ______ ____
ROOT
ATOM      1  N   UNL     1      -8.102  56.038  50.848  0.00  0.00    +0.000 N 
ATOM      2  C   UNL     1      -8.586  55.197  49.839  0.00  0.00    +0.000 C 
ATOM      3  O   UNL     1      -8.735  54.005  50.045  0.00  0.00    +0.000 OA
ATOM      4  N   UNL     1      -8.736  55.793  48.591  0.00  0.00    +0.000 N 
ATOM      5  H   UNL     1      -7.934  56.984  50.631  0.00  0.00    +0.000 HD
ATOM      6  H   UNL     1      -8.595  56.759  48.468  0.00  0.00    +0.000 HD
ENDROOT
BRANCH   4   7
ATOM      7  C   UNL     1      -9.095  54.973  47.524  0.00  0.00    +0.000 A 
ATOM      8  S   UNL     1      -7.833  54.148  46.726  0.00  0.00    +0.000 S 
ATOM      9  C   UNL     1     -10.339  54.678  46.994  0.00  0.00    +0.000 A 
ATOM     10  C   UNL     1      -8.936  53.218  45.800  0.00  0.00    +0.000 A 
ATOM     11  C   UNL     1     -10.248  53.580  46.055  0.00  0.00    +0.000 A 
ATOM     12  C   UNL     1      -8.516  52.139  44.813  0.00  0.00    +0.000 C 
ATOM     13  C   UNL     1     -11.400  52.942  45.332  0.00  0.00    +0.000 C 
ATOM     14  C   UNL     1      -9.677  51.798  43.814  0.00  0.00    +0.000 C 
ATOM     15  C   UNL     1     -11.002  51.662  44.601  0.00  0.00    +0.000 C 
ATOM     16  C   UNL     1      -9.443  50.455  43.093  0.00  0.00    +0.000 C 
ATOM     17  C   UNL     1      -9.786  52.892  42.730  0.00  0.00    +0.000 C 
BRANCH   9  18
ATOM     18  C   UNL     1     -11.548  55.415  47.352  0.00  0.00    +0.000 C 
ATOM     19  O   UNL     1     -12.097  56.215  46.604  0.00  0.00    +0.000 OA
BRANCH  18  20
ATOM     20  O   UNL     1     -11.976  55.103  48.603  0.00  0.00    +0.000 OA
BRANCH  20  21
ATOM     21  C   UNL     1     -12.240  53.728  48.875  0.00  0.00    +0.000 C 
ATOM     22  C   UNL     1     -12.035  53.444  50.347  0.00  0.00    +0.000 C 
ENDBRANCH  20  21
ENDBRANCH  18  20
ENDBRANCH   9  18
ENDBRANCH   4   7
BRANCH   1  23
ATOM     23  S   UNL     1      -7.795  55.504  52.411  0.00  0.00    +0.000 S 
ATOM     24  O   UNL     1      -9.037  55.006  52.963  0.00  0.00    +0.000 OA
ATOM     25  O   UNL     1      -7.082  56.576  53.077  0.00  0.00    +0.000 OA
BRANCH  23  26
ATOM     26  C   UNL     1      -6.649  54.142  52.269  0.00  0.00    +0.000 A 
ATOM     27  C   UNL     1      -5.438  54.284  51.584  0.00  0.00    +0.000 A 
ATOM     28  C   UNL     1      -6.961  52.926  52.892  0.00  0.00    +0.000 A 
ATOM     29  C   UNL     1      -4.579  53.178  51.479  0.00  0.00    +0.000 A 
ATOM     30  C   UNL     1      -6.097  51.832  52.785  0.00  0.00    +0.000 A 
ATOM     31  C   UNL     1      -4.904  51.940  52.078  0.00  0.00    +0.000 A 
BRANCH  31  32
ATOM     32  C   UNL     1      -4.023  50.815  51.947  0.00  0.00    +0.000 C 
ATOM     33  N   UNL     1      -3.316  49.892  51.851  0.00  0.00    +0.000 NA
ENDBRANCH  31  32
ENDBRANCH  23  26
ENDBRANCH   1  23
TORSDOF 7
ENDMDL
MODEL 7
REMARK VINA RESULT:      -6.7      3.573      9.093
REMARK  Name = 
REMARK  10 active torsions:
REMARK  status: ('A' for Active; 'I' for Inactive)
REMARK    1  A    between atoms: S_1  and  N_4
REMARK    2  A    between atoms: S_1  and  C_5
REMARK    3  A    between atoms: N_10  and  C_13
REMARK    4  A    between atoms: C_14  and  C_17
REMARK    5  A    between atoms: C_16  and  C_20
REMARK    6  A    between atoms: C_20  and  O_25
REMARK    7  A    between atoms: O_25  and  C_28
REMARK    8  A    between atoms: C_26  and  C_29
REMARK    9  A    between atoms: C_26  and  C_30
REMARK   10  A    between atoms: C_28  and  C_31
REMARK                            x       y       z     vdW  Elec       q    Type
REMARK                         _______ _______ _______ _____ _____    ______ ____
ROOT
ATOM      1  N   UNL     1      -8.044  52.246  50.170  0.00  0.00    +0.000 N 
ATOM      2  C   UNL     1      -9.282  52.897  50.252  0.00  0.00    +0.000 C 
ATOM      3  O   UNL     1     -10.280  52.391  49.771  0.00  0.00    +0.000 OA
ATOM      4  N   UNL     1      -9.241  54.183  50.778  0.00  0.00    +0.000 N 
ATOM      5  H   UNL     1      -7.246  52.710  50.513  0.00  0.00    +0.000 HD
ATOM      6  H   UNL     1      -8.409  54.557  51.147  0.00  0.00    +0.000 HD
ENDROOT
BRANCH   4   7
ATOM      7  C   UNL     1     -10.422  54.922  50.767  0.00  0.00    +0.000 A 
ATOM      8  S   UNL     1     -11.261  55.057  52.247  0.00  0.00    +0.000 S 
ATOM      9  C   UNL     1     -11.043  55.612  49.741  0.00  0.00    +0.000 A 
ATOM     10  C   UNL     1     -12.351  56.212  51.600  0.00  0.00    +0.000 A 
ATOM     11  C   UNL     1     -12.112  56.442  50.255  0.00  0.00    +0.000 A 
ATOM     12  C   UNL     1     -13.450  56.887  52.408  0.00  0.00    +0.000 C 
ATOM     13  C   UNL     1     -12.966  57.378  49.449  0.00  0.00    +0.000 C 
ATOM     14  C   UNL     1     -14.539  57.519  51.471  0.00  0.00    +0.000 C 
ATOM     15  C   UNL     1     -13.839  58.279  50.319  0.00  0.00    +0.000 C 
ATOM     16  C   UNL     1     -15.417  58.544  52.216  0.00  0.00    +0.000 C 
ATOM     17  C   UNL     1     -15.474  56.421  50.922  0.00  0.00    +0.000 C 
BRANCH   9  18
ATOM     18  C   UNL     1     -10.649  55.475  48.342  0.00  0.00    +0.000 C 
ATOM     19  O   UNL     1      -9.566  55.849  47.906  0.00  0.00    +0.000 OA
BRANCH  18  20
ATOM     20  O   UNL     1     -11.624  54.889  47.599  0.00  0.00    +0.000 OA
BRANCH  20  21
ATOM     21  C   UNL     1     -11.253  53.748  46.827  0.00  0.00    +0.000 C 
ATOM     22  C   UNL     1     -11.552  53.996  45.364  0.00  0.00    +0.000 C 
ENDBRANCH  20  21
ENDBRANCH  18  20
ENDBRANCH   9  18
ENDBRANCH   4   7
BRANCH   1  23
ATOM     23  S   UNL     1      -7.864  50.710  49.514  0.00  0.00    +0.000 S 
ATOM     24  O   UNL     1      -8.747  49.813  50.229  0.00  0.00    +0.000 OA
ATOM     25  O   UNL     1      -6.439  50.448  49.472  0.00  0.00    +0.000 OA
BRANCH  23  26
ATOM     26  C   UNL     1      -8.412  50.814  47.817  0.00  0.00    +0.000 A 
ATOM     27  C   UNL     1      -7.783  51.665  46.904  0.00  0.00    +0.000 A 
ATOM     28  C   UNL     1      -9.467  49.993  47.395  0.00  0.00    +0.000 A 
ATOM     29  C   UNL     1      -8.263  51.730  45.586  0.00  0.00    +0.000 A 
ATOM     30  C   UNL     1      -9.936  50.061  46.079  0.00  0.00    +0.000 A 
ATOM     31  C   UNL     1      -9.348  50.928  45.164  0.00  0.00    +0.000 A 
BRANCH  31  32
ATOM     32  C   UNL     1      -9.838  51.017  43.817  0.00  0.00    +0.000 C 
ATOM     33  N   UNL     1     -10.250  51.094  42.729  0.00  0.00    +0.000 NA
ENDBRANCH  31  32
ENDBRANCH  23  26
ENDBRANCH   1  23
TORSDOF 7
ENDMDL
MODEL 8
REMARK VINA RESULT:      -6.6      3.178      8.979
REMARK  Name = 
REMARK  10 active torsions:
REMARK  status: ('A' for Active; 'I' for Inactive)
REMARK    1  A    between atoms: S_1  and  N_4
REMARK    2  A    between atoms: S_1  and  C_5
REMARK    3  A    between atoms: N_10  and  C_13
REMARK    4  A    between atoms: C_14  and  C_17
REMARK    5  A    between atoms: C_16  and  C_20
REMARK    6  A    between atoms: C_20  and  O_25
REMARK    7  A    between atoms: O_25  and  C_28
REMARK    8  A    between atoms: C_26  and  C_29
REMARK    9  A    between atoms: C_26  and  C_30
REMARK   10  A    between atoms: C_28  and  C_31
REMARK                            x       y       z     vdW  Elec       q    Type
REMARK                         _______ _______ _______ _____ _____    ______ ____
ROOT
ATOM      1  N   UNL     1      -9.230  53.739  45.532  0.00  0.00    +0.000 N 
ATOM      2  C   UNL     1     -10.012  54.069  46.646  0.00  0.00    +0.000 C 
ATOM      3  O   UNL     1     -10.557  53.197  47.299  0.00  0.00    +0.000 OA
ATOM      4  N   UNL     1     -10.219  55.429  46.843  0.00  0.00    +0.000 N 
ATOM      5  H   UNL     1      -8.854  54.469  44.989  0.00  0.00    +0.000 HD
ATOM      6  H   UNL     1      -9.765  56.100  46.283  0.00  0.00    +0.000 HD
ENDROOT
BRANCH   4   7
ATOM      7  C   UNL     1     -11.090  55.808  47.861  0.00  0.00    +0.000 A 
ATOM      8  S   UNL     1     -12.696  56.165  47.410  0.00  0.00    +0.000 S 
ATOM      9  C   UNL     1     -10.885  55.925  49.225  0.00  0.00    +0.000 A 
ATOM     10  C   UNL     1     -13.203  56.274  49.045  0.00  0.00    +0.000 A 
ATOM     11  C   UNL     1     -12.143  56.101  49.919  0.00  0.00    +0.000 A 
ATOM     12  C   UNL     1     -14.638  56.540  49.472  0.00  0.00    +0.000 C 
ATOM     13  C   UNL     1     -12.321  56.199  51.408  0.00  0.00    +0.000 C 
ATOM     14  C   UNL     1     -14.707  57.029  50.961  0.00  0.00    +0.000 C 
ATOM     15  C   UNL     1     -13.787  56.140  51.831  0.00  0.00    +0.000 C 
ATOM     16  C   UNL     1     -16.130  56.906  51.544  0.00  0.00    +0.000 C 
ATOM     17  C   UNL     1     -14.295  58.513  51.056  0.00  0.00    +0.000 C 
BRANCH   9  18
ATOM     18  C   UNL     1      -9.557  55.888  49.832  0.00  0.00    +0.000 C 
ATOM     19  O   UNL     1      -8.764  56.821  49.777  0.00  0.00    +0.000 OA
BRANCH  18  20
ATOM     20  O   UNL     1      -9.320  54.704  50.454  0.00  0.00    +0.000 OA
BRANCH  20  21
ATOM     21  C   UNL     1      -8.253  53.906  49.944  0.00  0.00    +0.000 C 
ATOM     22  C   UNL     1      -8.569  52.439  50.138  0.00  0.00    +0.000 C 
ENDBRANCH  20  21
ENDBRANCH  18  20
ENDBRANCH   9  18
ENDBRANCH   4   7
BRANCH   1  23
ATOM     23  S   UNL     1      -8.906  52.152  45.083  0.00  0.00    +0.000 S 
ATOM     24  O   UNL     1      -8.227  52.180  43.805  0.00  0.00    +0.000 OA
ATOM     25  O   UNL     1     -10.151  51.424  45.229  0.00  0.00    +0.000 OA
BRANCH  23  26
ATOM     26  C   UNL     1      -7.785  51.495  46.308  0.00  0.00    +0.000 A 
ATOM     27  C   UNL     1      -6.731  52.263  46.811  0.00  0.00    +0.000 A 
ATOM     28  C   UNL     1      -7.999  50.198  46.796  0.00  0.00    +0.000 A 
ATOM     29  C   UNL     1      -5.861  51.696  47.757  0.00  0.00    +0.000 A 
ATOM     30  C   UNL     1      -7.130  49.643  47.741  0.00  0.00    +0.000 A 
ATOM     31  C   UNL     1      -6.054  50.377  48.228  0.00  0.00    +0.000 A 
BRANCH  31  32
ATOM     32  C   UNL     1      -5.147  49.805  49.182  0.00  0.00    +0.000 C 
ATOM     33  N   UNL     1      -4.398  49.342  49.946  0.00  0.00    +0.000 NA
ENDBRANCH  31  32
ENDBRANCH  23  26
ENDBRANCH   1  23
TORSDOF 7
ENDMDL
MODEL 9
REMARK VINA RESULT:      -6.4      3.940      7.973
REMARK  Name = 
REMARK  10 active torsions:
REMARK  status: ('A' for Active; 'I' for Inactive)
REMARK    1  A    between atoms: S_1  and  N_4
REMARK    2  A    between atoms: S_1  and  C_5
REMARK    3  A    between atoms: N_10  and  C_13
REMARK    4  A    between atoms: C_14  and  C_17
REMARK    5  A    between atoms: C_16  and  C_20
REMARK    6  A    between atoms: C_20  and  O_25
REMARK    7  A    between atoms: O_25  and  C_28
REMARK    8  A    between atoms: C_26  and  C_29
REMARK    9  A    between atoms: C_26  and  C_30
REMARK   10  A    between atoms: C_28  and  C_31
REMARK                            x       y       z     vdW  Elec       q    Type
REMARK                         _______ _______ _______ _____ _____    ______ ____
ROOT
ATOM      1  N   UNL     1     -11.105  53.602  46.808  0.00  0.00    +0.000 N 
ATOM      2  C   UNL     1     -10.328  53.470  47.965  0.00  0.00    +0.000 C 
ATOM      3  O   UNL     1     -10.121  52.371  48.449  0.00  0.00    +0.000 OA
ATOM      4  N   UNL     1      -9.953  54.666  48.567  0.00  0.00    +0.000 N 
ATOM      5  H   UNL     1     -11.305  54.508  46.477  0.00  0.00    +0.000 HD
ATOM      6  H   UNL     1     -10.151  55.533  48.145  0.00  0.00    +0.000 HD
ENDROOT
BRANCH   4   7
ATOM      7  C   UNL     1      -9.286  54.592  49.787  0.00  0.00    +0.000 A 
ATOM      8  S   UNL     1      -7.583  54.487  49.731  0.00  0.00    +0.000 S 
ATOM      9  C   UNL     1      -9.772  54.616  51.083  0.00  0.00    +0.000 A 
ATOM     10  C   UNL     1      -7.448  54.688  51.429  0.00  0.00    +0.000 A 
ATOM     11  C   UNL     1      -8.691  54.771  52.033  0.00  0.00    +0.000 A 
ATOM     12  C   UNL     1      -6.122  54.753  52.171  0.00  0.00    +0.000 C 
ATOM     13  C   UNL     1      -8.839  54.901  53.522  0.00  0.00    +0.000 C 
ATOM     14  C   UNL     1      -6.315  54.482  53.705  0.00  0.00    +0.000 C 
ATOM     15  C   UNL     1      -7.534  55.287  54.214  0.00  0.00    +0.000 C 
ATOM     16  C   UNL     1      -5.096  54.944  54.530  0.00  0.00    +0.000 C 
ATOM     17  C   UNL     1      -6.502  52.972  53.961  0.00  0.00    +0.000 C 
BRANCH   9  18
ATOM     18  C   UNL     1     -11.191  54.482  51.399  0.00  0.00    +0.000 C 
ATOM     19  O   UNL     1     -11.669  53.498  51.952  0.00  0.00    +0.000 OA
BRANCH  18  20
ATOM     20  O   UNL     1     -11.901  55.570  51.003  0.00  0.00    +0.000 OA
BRANCH  20  21
ATOM     21  C   UNL     1     -12.717  56.205  51.986  0.00  0.00    +0.000 C 
ATOM     22  C   UNL     1     -14.159  56.220  51.528  0.00  0.00    +0.000 C 
ENDBRANCH  20  21
ENDBRANCH  18  20
ENDBRANCH   9  18
ENDBRANCH   4   7
BRANCH   1  23
ATOM     23  S   UNL     1     -11.710  52.283  45.960  0.00  0.00    +0.000 S 
ATOM     24  O   UNL     1     -12.551  52.786  44.895  0.00  0.00    +0.000 OA
ATOM     25  O   UNL     1     -12.255  51.376  46.951  0.00  0.00    +0.000 OA
BRANCH  23  26
ATOM     26  C   UNL     1     -10.303  51.457  45.233  0.00  0.00    +0.000 A 
ATOM     27  C   UNL     1     -10.172  50.067  45.288  0.00  0.00    +0.000 A 
ATOM     28  C   UNL     1      -9.340  52.224  44.563  0.00  0.00    +0.000 A 
ATOM     29  C   UNL     1      -9.037  49.463  44.722  0.00  0.00    +0.000 A 
ATOM     30  C   UNL     1      -8.215  51.614  43.998  0.00  0.00    +0.000 A 
ATOM     31  C   UNL     1      -8.047  50.235  44.074  0.00  0.00    +0.000 A 
BRANCH  31  32
ATOM     32  C   UNL     1      -6.884  49.605  43.514  0.00  0.00    +0.000 C 
ATOM     33  N   UNL     1      -5.933  49.108  43.059  0.00  0.00    +0.000 NA
ENDBRANCH  31  32
ENDBRANCH  23  26
ENDBRANCH   1  23
TORSDOF 7
ENDMDL
