MODEL 1
REMARK VINA RESULT:      -7.7      0.000      0.000
REMARK  Name = 
REMARK  9 active torsions:
REMARK  status: ('A' for Active; 'I' for Inactive)
REMARK    1  A    between atoms: S_1  and  N_4
REMARK    2  A    between atoms: S_1  and  C_5
REMARK    3  A    between atoms: N_10  and  C_13
REMARK    4  A    between atoms: C_16  and  C_19
REMARK    5  A    between atoms: C_19  and  O_23
REMARK    6  A    between atoms: O_23  and  C_26
REMARK    7  A    between atoms: C_24  and  C_27
REMARK    8  A    between atoms: C_24  and  C_28
REMARK    9  A    between atoms: C_26  and  C_29
REMARK                            x       y       z     vdW  Elec       q    Type
REMARK                         _______ _______ _______ _____ _____    ______ ____
ROOT
ATOM      1  C   UNL     1     -10.913  54.505  51.399  0.00  0.00    +0.000 A 
ATOM      2  S   UNL     1     -10.557  53.717  52.862  0.00  0.00    +0.000 S 
ATOM      3  C   UNL     1      -9.812  55.114  50.817  0.00  0.00    +0.000 A 
ATOM      4  C   UNL     1      -8.882  53.910  52.611  0.00  0.00    +0.000 A 
ATOM      5  C   UNL     1      -8.606  54.664  51.483  0.00  0.00    +0.000 A 
ATOM      6  C   UNL     1      -7.848  53.316  53.534  0.00  0.00    +0.000 C 
ATOM      7  C   UNL     1      -7.201  55.009  51.082  0.00  0.00    +0.000 C 
ATOM      8  C   UNL     1      -6.460  54.000  53.338  0.00  0.00    +0.000 C 
ATOM      9  C   UNL     1      -6.167  54.150  51.821  0.00  0.00    +0.000 C 
ATOM     10  C   UNL     1      -5.346  53.137  53.960  0.00  0.00    +0.000 C 
ATOM     11  C   UNL     1      -6.440  55.372  54.042  0.00  0.00    +0.000 C 
ENDROOT
BRANCH   1  15
ATOM     12  N   UNL     1     -14.410  55.242  51.019  0.00  0.00    +0.000 N 
ATOM     13  C   UNL     1     -13.093  55.416  51.419  0.00  0.00    +0.000 C 
ATOM     14  O   UNL     1     -12.744  56.407  52.042  0.00  0.00    +0.000 OA
ATOM     15  N   UNL     1     -12.234  54.423  50.996  0.00  0.00    +0.000 N 
ATOM     16  H   UNL     1     -14.673  54.401  50.581  0.00  0.00    +0.000 HD
ATOM     17  H   UNL     1     -12.549  53.683  50.428  0.00  0.00    +0.000 HD
BRANCH  12  18
ATOM     18  S   UNL     1     -15.566  56.439  51.266  0.00  0.00    +0.000 S 
ATOM     19  O   UNL     1     -15.676  56.664  52.694  0.00  0.00    +0.000 OA
ATOM     20  O   UNL     1     -16.730  55.992  50.518  0.00  0.00    +0.000 OA
BRANCH  18  21
ATOM     21  C   UNL     1     -14.887  57.894  50.432  0.00  0.00    +0.000 A 
ATOM     22  N   UNL     1     -15.097  59.071  51.068  0.00  0.00    +0.000 NA
ATOM     23  N   UNL     1     -14.262  57.698  49.248  0.00  0.00    +0.000 NA
ATOM     24  C   UNL     1     -14.590  60.143  50.429  0.00  0.00    +0.000 A 
ATOM     25  C   UNL     1     -13.821  58.817  48.655  0.00  0.00    +0.000 A 
ATOM     26  C   UNL     1     -13.955  60.072  49.209  0.00  0.00    +0.000 A 
ENDBRANCH  18  21
ENDBRANCH  12  18
ENDBRANCH   1  15
BRANCH   3  27
ATOM     27  C   UNL     1      -9.871  56.107  49.731  0.00  0.00    +0.000 C 
ATOM     28  O   UNL     1      -9.178  57.121  49.704  0.00  0.00    +0.000 OA
BRANCH  27  29
ATOM     29  O   UNL     1     -10.885  55.857  48.852  0.00  0.00    +0.000 OA
BRANCH  29  30
ATOM     30  C   UNL     1     -10.541  55.430  47.531  0.00  0.00    +0.000 C 
ATOM     31  C   UNL     1     -11.733  55.524  46.603  0.00  0.00    +0.000 C 
ENDBRANCH  29  30
ENDBRANCH  27  29
ENDBRANCH   3  27
TORSDOF 6
ENDMDL
MODEL 2
REMARK VINA RESULT:      -7.7      3.105      7.663
REMARK  Name = 
REMARK  9 active torsions:
REMARK  status: ('A' for Active; 'I' for Inactive)
REMARK    1  A    between atoms: S_1  and  N_4
REMARK    2  A    between atoms: S_1  and  C_5
REMARK    3  A    between atoms: N_10  and  C_13
REMARK    4  A    between atoms: C_16  and  C_19
REMARK    5  A    between atoms: C_19  and  O_23
REMARK    6  A    between atoms: O_23  and  C_26
REMARK    7  A    between atoms: C_24  and  C_27
REMARK    8  A    between atoms: C_24  and  C_28
REMARK    9  A    between atoms: C_26  and  C_29
REMARK                            x       y       z     vdW  Elec       q    Type
REMARK                         _______ _______ _______ _____ _____    ______ ____
ROOT
ATOM      1  C   UNL     1     -11.025  54.820  50.083  0.00  0.00    +0.000 A 
ATOM      2  S   UNL     1     -11.714  54.802  51.637  0.00  0.00    +0.000 S 
ATOM      3  C   UNL     1     -11.644  55.704  49.214  0.00  0.00    +0.000 A 
ATOM      4  C   UNL     1     -12.658  56.176  51.283  0.00  0.00    +0.000 A 
ATOM      5  C   UNL     1     -12.530  56.573  49.962  0.00  0.00    +0.000 A 
ATOM      6  C   UNL     1     -13.524  56.855  52.313  0.00  0.00    +0.000 C 
ATOM      7  C   UNL     1     -13.302  57.733  49.402  0.00  0.00    +0.000 C 
ATOM      8  C   UNL     1     -14.589  57.774  51.638  0.00  0.00    +0.000 C 
ATOM      9  C   UNL     1     -13.917  58.600  50.508  0.00  0.00    +0.000 C 
ATOM     10  C   UNL     1     -15.177  58.757  52.667  0.00  0.00    +0.000 C 
ATOM     11  C   UNL     1     -15.749  56.922  51.084  0.00  0.00    +0.000 C 
ENDROOT
BRANCH   1  15
ATOM     12  N   UNL     1      -7.663  53.556  49.967  0.00  0.00    +0.000 N 
ATOM     13  C   UNL     1      -8.695  54.450  50.212  0.00  0.00    +0.000 C 
ATOM     14  O   UNL     1      -8.482  55.544  50.710  0.00  0.00    +0.000 OA
ATOM     15  N   UNL     1      -9.951  53.966  49.910  0.00  0.00    +0.000 N 
ATOM     16  H   UNL     1      -7.857  52.712  49.500  0.00  0.00    +0.000 HD
ATOM     17  H   UNL     1     -10.078  53.046  49.583  0.00  0.00    +0.000 HD
BRANCH  12  18
ATOM     18  S   UNL     1      -6.085  53.885  50.451  0.00  0.00    +0.000 S 
ATOM     19  O   UNL     1      -5.738  55.208  49.969  0.00  0.00    +0.000 OA
ATOM     20  O   UNL     1      -5.313  52.735  50.010  0.00  0.00    +0.000 OA
BRANCH  18  21
ATOM     21  C   UNL     1      -6.158  53.853  52.259  0.00  0.00    +0.000 A 
ATOM     22  N   UNL     1      -5.546  54.891  52.876  0.00  0.00    +0.000 NA
ATOM     23  N   UNL     1      -6.779  52.800  52.838  0.00  0.00    +0.000 NA
ATOM     24  C   UNL     1      -5.605  54.847  54.221  0.00  0.00    +0.000 A 
ATOM     25  C   UNL     1      -6.760  52.807  54.179  0.00  0.00    +0.000 A 
ATOM     26  C   UNL     1      -6.189  53.816  54.924  0.00  0.00    +0.000 A 
ENDBRANCH  18  21
ENDBRANCH  12  18
ENDBRANCH   1  15
BRANCH   3  27
ATOM     27  C   UNL     1     -11.468  55.715  47.751  0.00  0.00    +0.000 C 
ATOM     28  O   UNL     1     -12.400  55.614  46.958  0.00  0.00    +0.000 OA
BRANCH  27  29
ATOM     29  O   UNL     1     -10.153  55.688  47.386  0.00  0.00    +0.000 OA
BRANCH  29  30
ATOM     30  C   UNL     1      -9.744  54.720  46.415  0.00  0.00    +0.000 C 
ATOM     31  C   UNL     1      -8.288  54.906  46.045  0.00  0.00    +0.000 C 
ENDBRANCH  29  30
ENDBRANCH  27  29
ENDBRANCH   3  27
TORSDOF 6
ENDMDL
MODEL 3
REMARK VINA RESULT:      -7.1      2.372      3.058
REMARK  Name = 
REMARK  9 active torsions:
REMARK  status: ('A' for Active; 'I' for Inactive)
REMARK    1  A    between atoms: S_1  and  N_4
REMARK    2  A    between atoms: S_1  and  C_5
REMARK    3  A    between atoms: N_10  and  C_13
REMARK    4  A    between atoms: C_16  and  C_19
REMARK    5  A    between atoms: C_19  and  O_23
REMARK    6  A    between atoms: O_23  and  C_26
REMARK    7  A    between atoms: C_24  and  C_27
REMARK    8  A    between atoms: C_24  and  C_28
REMARK    9  A    between atoms: C_26  and  C_29
REMARK                            x       y       z     vdW  Elec       q    Type
REMARK                         _______ _______ _______ _____ _____    ______ ____
ROOT
ATOM      1  C   UNL     1      -9.971  54.923  50.707  0.00  0.00    +0.000 A 
ATOM      2  S   UNL     1      -9.847  54.985  52.401  0.00  0.00    +0.000 S 
ATOM      3  C   UNL     1      -9.548  53.719  50.165  0.00  0.00    +0.000 A 
ATOM      4  C   UNL     1      -9.509  53.316  52.482  0.00  0.00    +0.000 A 
ATOM      5  C   UNL     1      -9.383  52.746  51.226  0.00  0.00    +0.000 A 
ATOM      6  C   UNL     1      -9.367  52.578  53.789  0.00  0.00    +0.000 C 
ATOM      7  C   UNL     1      -9.039  51.296  51.042  0.00  0.00    +0.000 C 
ATOM      8  C   UNL     1      -8.636  51.214  53.589  0.00  0.00    +0.000 C 
ATOM      9  C   UNL     1      -9.214  50.496  52.339  0.00  0.00    +0.000 C 
ATOM     10  C   UNL     1      -8.859  50.304  54.812  0.00  0.00    +0.000 C 
ATOM     11  C   UNL     1      -7.118  51.442  53.443  0.00  0.00    +0.000 C 
ENDROOT
BRANCH   1  15
ATOM     12  N   UNL     1     -12.268  57.272  49.252  0.00  0.00    +0.000 N 
ATOM     13  C   UNL     1     -11.839  56.120  49.893  0.00  0.00    +0.000 C 
ATOM     14  O   UNL     1     -12.630  55.269  50.269  0.00  0.00    +0.000 OA
ATOM     15  N   UNL     1     -10.478  56.066  50.116  0.00  0.00    +0.000 N 
ATOM     16  H   UNL     1     -11.602  57.904  48.898  0.00  0.00    +0.000 HD
ATOM     17  H   UNL     1      -9.890  56.814  49.863  0.00  0.00    +0.000 HD
BRANCH  12  18
ATOM     18  S   UNL     1     -13.906  57.613  49.067  0.00  0.00    +0.000 S 
ATOM     19  O   UNL     1     -14.530  56.470  48.430  0.00  0.00    +0.000 OA
ATOM     20  O   UNL     1     -13.944  58.911  48.412  0.00  0.00    +0.000 OA
BRANCH  18  21
ATOM     21  C   UNL     1     -14.512  57.821  50.759  0.00  0.00    +0.000 A 
ATOM     22  N   UNL     1     -14.176  58.993  51.350  0.00  0.00    +0.000 NA
ATOM     23  N   UNL     1     -15.213  56.797  51.300  0.00  0.00    +0.000 NA
ATOM     24  C   UNL     1     -14.631  59.126  52.610  0.00  0.00    +0.000 A 
ATOM     25  C   UNL     1     -15.596  56.990  52.571  0.00  0.00    +0.000 A 
ATOM     26  C   UNL     1     -15.334  58.146  53.275  0.00  0.00    +0.000 A 
ENDBRANCH  18  21
ENDBRANCH  12  18
ENDBRANCH   1  15
BRANCH   3  27
ATOM     27  C   UNL     1      -9.259  53.489  48.739  0.00  0.00    +0.000 C 
ATOM     28  O   UNL     1      -8.125  53.312  48.300  0.00  0.00    +0.000 OA
BRANCH  27  29
ATOM     29  O   UNL     1     -10.361  53.654  47.952  0.00  0.00    +0.000 OA
BRANCH  29  30
ATOM     30  C   UNL     1     -10.238  54.472  46.784  0.00  0.00    +0.000 C 
ATOM     31  C   UNL     1     -11.577  55.061  46.391  0.00  0.00    +0.000 C 
ENDBRANCH  29  30
ENDBRANCH  27  29
ENDBRANCH   3  27
TORSDOF 6
ENDMDL
MODEL 4
REMARK VINA RESULT:      -7.1      4.045      7.536
REMARK  Name = 
REMARK  9 active torsions:
REMARK  status: ('A' for Active; 'I' for Inactive)
REMARK    1  A    between atoms: S_1  and  N_4
REMARK    2  A    between atoms: S_1  and  C_5
REMARK    3  A    between atoms: N_10  and  C_13
REMARK    4  A    between atoms: C_16  and  C_19
REMARK    5  A    between atoms: C_19  and  O_23
REMARK    6  A    between atoms: O_23  and  C_26
REMARK    7  A    between atoms: C_24  and  C_27
REMARK    8  A    between atoms: C_24  and  C_28
REMARK    9  A    between atoms: C_26  and  C_29
REMARK                            x       y       z     vdW  Elec       q    Type
REMARK                         _______ _______ _______ _____ _____    ______ ____
ROOT
ATOM      1  C   UNL     1      -8.730  54.975  47.215  0.00  0.00    +0.000 A 
ATOM      2  S   UNL     1      -7.506  54.247  46.286  0.00  0.00    +0.000 S 
ATOM      3  C   UNL     1     -10.010  54.661  46.786  0.00  0.00    +0.000 A 
ATOM      4  C   UNL     1      -8.641  53.265  45.478  0.00  0.00    +0.000 A 
ATOM      5  C   UNL     1      -9.944  53.570  45.835  0.00  0.00    +0.000 A 
ATOM      6  C   UNL     1      -8.237  52.198  44.493  0.00  0.00    +0.000 C 
ATOM      7  C   UNL     1     -11.121  52.869  45.220  0.00  0.00    +0.000 C 
ATOM      8  C   UNL     1      -9.441  51.775  43.595  0.00  0.00    +0.000 C 
ATOM      9  C   UNL     1     -10.705  51.592  44.479  0.00  0.00    +0.000 C 
ATOM     10  C   UNL     1      -9.143  50.434  42.899  0.00  0.00    +0.000 C 
ATOM     11  C   UNL     1      -9.683  52.832  42.499  0.00  0.00    +0.000 C 
ENDROOT
BRANCH   1  15
ATOM     12  N   UNL     1      -7.681  56.009  50.493  0.00  0.00    +0.000 N 
ATOM     13  C   UNL     1      -8.083  55.150  49.481  0.00  0.00    +0.000 C 
ATOM     14  O   UNL     1      -8.185  53.948  49.671  0.00  0.00    +0.000 OA
ATOM     15  N   UNL     1      -8.281  55.762  48.260  0.00  0.00    +0.000 N 
ATOM     16  H   UNL     1      -7.677  56.979  50.328  0.00  0.00    +0.000 HD
ATOM     17  H   UNL     1      -8.110  56.724  48.137  0.00  0.00    +0.000 HD
BRANCH  12  18
ATOM     18  S   UNL     1      -7.201  55.427  51.996  0.00  0.00    +0.000 S 
ATOM     19  O   UNL     1      -6.995  56.566  52.870  0.00  0.00    +0.000 OA
ATOM     20  O   UNL     1      -6.092  54.531  51.712  0.00  0.00    +0.000 OA
BRANCH  18  21
ATOM     21  C   UNL     1      -8.602  54.427  52.556  0.00  0.00    +0.000 A 
ATOM     22  N   UNL     1      -8.282  53.187  52.995  0.00  0.00    +0.000 NA
ATOM     23  N   UNL     1      -9.835  54.977  52.464  0.00  0.00    +0.000 NA
ATOM     24  C   UNL     1      -9.339  52.456  53.402  0.00  0.00    +0.000 A 
ATOM     25  C   UNL     1     -10.837  54.173  52.849  0.00  0.00    +0.000 A 
ATOM     26  C   UNL     1     -10.641  52.897  53.335  0.00  0.00    +0.000 A 
ENDBRANCH  18  21
ENDBRANCH  12  18
ENDBRANCH   1  15
BRANCH   3  27
ATOM     27  C   UNL     1     -11.236  55.368  47.194  0.00  0.00    +0.000 C 
ATOM     28  O   UNL     1     -11.889  56.081  46.436  0.00  0.00    +0.000 OA
BRANCH  27  29
ATOM     29  O   UNL     1     -11.469  55.273  48.535  0.00  0.00    +0.000 OA
BRANCH  29  30
ATOM     30  C   UNL     1     -12.417  54.301  48.987  0.00  0.00    +0.000 C 
ATOM     31  C   UNL     1     -11.720  53.046  49.467  0.00  0.00    +0.000 C 
ENDBRANCH  29  30
ENDBRANCH  27  29
ENDBRANCH   3  27
TORSDOF 6
ENDMDL
MODEL 5
REMARK VINA RESULT:      -6.9      4.168      8.170
REMARK  Name = 
REMARK  9 active torsions:
REMARK  status: ('A' for Active; 'I' for Inactive)
REMARK    1  A    between atoms: S_1  and  N_4
REMARK    2  A    between atoms: S_1  and  C_5
REMARK    3  A    between atoms: N_10  and  C_13
REMARK    4  A    between atoms: C_16  and  C_19
REMARK    5  A    between atoms: C_19  and  O_23
REMARK    6  A    between atoms: O_23  and  C_26
REMARK    7  A    between atoms: C_24  and  C_27
REMARK    8  A    between atoms: C_24  and  C_28
REMARK    9  A    between atoms: C_26  and  C_29
REMARK                            x       y       z     vdW  Elec       q    Type
REMARK                         _______ _______ _______ _____ _____    ______ ____
ROOT
ATOM      1  C   UNL     1      -8.673  54.912  47.213  0.00  0.00    +0.000 A 
ATOM      2  S   UNL     1      -7.466  54.137  46.302  0.00  0.00    +0.000 S 
ATOM      3  C   UNL     1      -9.957  54.666  46.753  0.00  0.00    +0.000 A 
ATOM      4  C   UNL     1      -8.628  53.221  45.457  0.00  0.00    +0.000 A 
ATOM      5  C   UNL     1      -9.923  53.584  45.789  0.00  0.00    +0.000 A 
ATOM      6  C   UNL     1      -8.254  52.148  44.467  0.00  0.00    +0.000 C 
ATOM      7  C   UNL     1     -11.118  52.949  45.139  0.00  0.00    +0.000 C 
ATOM      8  C   UNL     1      -9.457  51.795  43.538  0.00  0.00    +0.000 C 
ATOM      9  C   UNL     1     -10.748  51.663  44.390  0.00  0.00    +0.000 C 
ATOM     10  C   UNL     1      -9.209  50.449  42.830  0.00  0.00    +0.000 C 
ATOM     11  C   UNL     1      -9.622  52.875  42.450  0.00  0.00    +0.000 C 
ENDROOT
BRANCH   1  15
ATOM     12  N   UNL     1      -7.813  55.914  50.556  0.00  0.00    +0.000 N 
ATOM     13  C   UNL     1      -8.245  55.086  49.531  0.00  0.00    +0.000 C 
ATOM     14  O   UNL     1      -8.565  53.926  49.743  0.00  0.00    +0.000 OA
ATOM     15  N   UNL     1      -8.211  55.664  48.279  0.00  0.00    +0.000 N 
ATOM     16  H   UNL     1      -7.630  56.862  50.365  0.00  0.00    +0.000 HD
ATOM     17  H   UNL     1      -7.870  56.578  48.148  0.00  0.00    +0.000 HD
BRANCH  12  18
ATOM     18  S   UNL     1      -7.595  55.332  52.119  0.00  0.00    +0.000 S 
ATOM     19  O   UNL     1      -8.841  54.725  52.547  0.00  0.00    +0.000 OA
ATOM     20  O   UNL     1      -7.053  56.458  52.863  0.00  0.00    +0.000 OA
BRANCH  18  21
ATOM     21  C   UNL     1      -6.292  54.088  51.955  0.00  0.00    +0.000 A 
ATOM     22  N   UNL     1      -5.170  54.511  51.325  0.00  0.00    +0.000 NA
ATOM     23  N   UNL     1      -6.548  52.850  52.439  0.00  0.00    +0.000 NA
ATOM     24  C   UNL     1      -4.215  53.569  51.207  0.00  0.00    +0.000 A 
ATOM     25  C   UNL     1      -5.565  51.959  52.247  0.00  0.00    +0.000 A 
ATOM     26  C   UNL     1      -4.367  52.270  51.638  0.00  0.00    +0.000 A 
ENDBRANCH  18  21
ENDBRANCH  12  18
ENDBRANCH   1  15
BRANCH   3  27
ATOM     27  C   UNL     1     -11.156  55.427  47.143  0.00  0.00    +0.000 C 
ATOM     28  O   UNL     1     -11.820  56.094  46.354  0.00  0.00    +0.000 OA
BRANCH  27  29
ATOM     29  O   UNL     1     -11.348  55.438  48.494  0.00  0.00    +0.000 OA
BRANCH  29  30
ATOM     30  C   UNL     1     -12.466  54.717  49.021  0.00  0.00    +0.000 C 
ATOM     31  C   UNL     1     -12.186  53.229  49.050  0.00  0.00    +0.000 C 
ENDBRANCH  29  30
ENDBRANCH  27  29
ENDBRANCH   3  27
TORSDOF 6
ENDMDL
MODEL 6
REMARK VINA RESULT:      -6.6      3.300      8.092
REMARK  Name = 
REMARK  9 active torsions:
REMARK  status: ('A' for Active; 'I' for Inactive)
REMARK    1  A    between atoms: S_1  and  N_4
REMARK    2  A    between atoms: S_1  and  C_5
REMARK    3  A    between atoms: N_10  and  C_13
REMARK    4  A    between atoms: C_16  and  C_19
REMARK    5  A    between atoms: C_19  and  O_23
REMARK    6  A    between atoms: O_23  and  C_26
REMARK    7  A    between atoms: C_24  and  C_27
REMARK    8  A    between atoms: C_24  and  C_28
REMARK    9  A    between atoms: C_26  and  C_29
REMARK                            x       y       z     vdW  Elec       q    Type
REMARK                         _______ _______ _______ _____ _____    ______ ____
ROOT
ATOM      1  C   UNL     1     -11.256  54.884  50.272  0.00  0.00    +0.000 A 
ATOM      2  S   UNL     1     -11.686  55.138  51.896  0.00  0.00    +0.000 S 
ATOM      3  C   UNL     1     -12.073  55.551  49.373  0.00  0.00    +0.000 A 
ATOM      4  C   UNL     1     -12.780  56.370  51.461  0.00  0.00    +0.000 A 
ATOM      5  C   UNL     1     -12.895  56.507  50.088  0.00  0.00    +0.000 A 
ATOM      6  C   UNL     1     -13.522  57.196  52.481  0.00  0.00    +0.000 C 
ATOM      7  C   UNL     1     -13.835  57.497  49.464  0.00  0.00    +0.000 C 
ATOM      8  C   UNL     1     -14.750  57.914  51.840  0.00  0.00    +0.000 C 
ATOM      9  C   UNL     1     -14.333  58.534  50.479  0.00  0.00    +0.000 C 
ATOM     10  C   UNL     1     -15.242  59.051  52.755  0.00  0.00    +0.000 C 
ATOM     11  C   UNL     1     -15.912  56.917  51.660  0.00  0.00    +0.000 C 
ENDROOT
BRANCH   1  15
ATOM     12  N   UNL     1      -7.908  53.784  49.569  0.00  0.00    +0.000 N 
ATOM     13  C   UNL     1      -8.951  54.668  49.800  0.00  0.00    +0.000 C 
ATOM     14  O   UNL     1      -8.769  55.876  49.810  0.00  0.00    +0.000 OA
ATOM     15  N   UNL     1     -10.159  54.064  50.078  0.00  0.00    +0.000 N 
ATOM     16  H   UNL     1      -8.099  52.821  49.497  0.00  0.00    +0.000 HD
ATOM     17  H   UNL     1     -10.238  53.084  50.136  0.00  0.00    +0.000 HD
BRANCH  12  18
ATOM     18  S   UNL     1      -6.322  54.322  49.408  0.00  0.00    +0.000 S 
ATOM     19  O   UNL     1      -6.222  55.615  50.057  0.00  0.00    +0.000 OA
ATOM     20  O   UNL     1      -6.032  54.207  47.988  0.00  0.00    +0.000 OA
BRANCH  18  21
ATOM     21  C   UNL     1      -5.339  53.081  50.284  0.00  0.00    +0.000 A 
ATOM     22  N   UNL     1      -5.228  53.274  51.619  0.00  0.00    +0.000 NA
ATOM     23  N   UNL     1      -4.780  52.094  49.545  0.00  0.00    +0.000 NA
ATOM     24  C   UNL     1      -4.487  52.344  52.252  0.00  0.00    +0.000 A 
ATOM     25  C   UNL     1      -4.025  51.231  50.241  0.00  0.00    +0.000 A 
ATOM     26  C   UNL     1      -3.850  51.308  51.606  0.00  0.00    +0.000 A 
ENDBRANCH  18  21
ENDBRANCH  12  18
ENDBRANCH   1  15
BRANCH   3  27
ATOM     27  C   UNL     1     -12.133  55.284  47.925  0.00  0.00    +0.000 C 
ATOM     28  O   UNL     1     -12.135  56.171  47.074  0.00  0.00    +0.000 OA
BRANCH  27  29
ATOM     29  O   UNL     1     -12.346  53.966  47.648  0.00  0.00    +0.000 OA
BRANCH  29  30
ATOM     30  C   UNL     1     -11.445  53.312  46.749  0.00  0.00    +0.000 C 
ATOM     31  C   UNL     1     -12.136  52.183  46.015  0.00  0.00    +0.000 C 
ENDBRANCH  29  30
ENDBRANCH  27  29
ENDBRANCH   3  27
TORSDOF 6
ENDMDL
MODEL 7
REMARK VINA RESULT:      -6.6      2.187      2.877
REMARK  Name = 
REMARK  9 active torsions:
REMARK  status: ('A' for Active; 'I' for Inactive)
REMARK    1  A    between atoms: S_1  and  N_4
REMARK    2  A    between atoms: S_1  and  C_5
REMARK    3  A    between atoms: N_10  and  C_13
REMARK    4  A    between atoms: C_16  and  C_19
REMARK    5  A    between atoms: C_19  and  O_23
REMARK    6  A    between atoms: O_23  and  C_26
REMARK    7  A    between atoms: C_24  and  C_27
REMARK    8  A    between atoms: C_24  and  C_28
REMARK    9  A    between atoms: C_26  and  C_29
REMARK                            x       y       z     vdW  Elec       q    Type
REMARK                         _______ _______ _______ _____ _____    ______ ____
ROOT
ATOM      1  C   UNL     1      -8.645  55.459  50.720  0.00  0.00    +0.000 A 
ATOM      2  S   UNL     1      -8.643  55.572  52.415  0.00  0.00    +0.000 S 
ATOM      3  C   UNL     1      -7.812  54.465  50.230  0.00  0.00    +0.000 A 
ATOM      4  C   UNL     1      -7.768  54.117  52.556  0.00  0.00    +0.000 A 
ATOM      5  C   UNL     1      -7.387  53.614  51.323  0.00  0.00    +0.000 A 
ATOM      6  C   UNL     1      -7.458  53.480  53.887  0.00  0.00    +0.000 C 
ATOM      7  C   UNL     1      -6.565  52.364  51.194  0.00  0.00    +0.000 C 
ATOM      8  C   UNL     1      -6.300  52.442  53.759  0.00  0.00    +0.000 C 
ATOM      9  C   UNL     1      -6.531  51.562  52.501  0.00  0.00    +0.000 C 
ATOM     10  C   UNL     1      -6.272  51.519  54.992  0.00  0.00    +0.000 C 
ATOM     11  C   UNL     1      -4.942  53.168  53.683  0.00  0.00    +0.000 C 
ENDROOT
BRANCH   1  15
ATOM     12  N   UNL     1     -11.546  56.917  49.180  0.00  0.00    +0.000 N 
ATOM     13  C   UNL     1     -10.788  55.988  49.876  0.00  0.00    +0.000 C 
ATOM     14  O   UNL     1     -11.286  54.964  50.317  0.00  0.00    +0.000 OA
ATOM     15  N   UNL     1      -9.474  56.359  50.074  0.00  0.00    +0.000 N 
ATOM     16  H   UNL     1     -11.102  57.697  48.776  0.00  0.00    +0.000 HD
ATOM     17  H   UNL     1      -9.138  57.232  49.767  0.00  0.00    +0.000 HD
BRANCH  12  18
ATOM     18  S   UNL     1     -13.211  56.739  49.009  0.00  0.00    +0.000 S 
ATOM     19  O   UNL     1     -13.502  55.320  48.934  0.00  0.00    +0.000 OA
ATOM     20  O   UNL     1     -13.565  57.604  47.895  0.00  0.00    +0.000 OA
BRANCH  18  21
ATOM     21  C   UNL     1     -13.894  57.461  50.521  0.00  0.00    +0.000 A 
ATOM     22  N   UNL     1     -14.187  56.572  51.500  0.00  0.00    +0.000 NA
ATOM     23  N   UNL     1     -14.082  58.800  50.542  0.00  0.00    +0.000 NA
ATOM     24  C   UNL     1     -14.700  57.127  52.614  0.00  0.00    +0.000 A 
ATOM     25  C   UNL     1     -14.633  59.272  51.670  0.00  0.00    +0.000 A 
ATOM     26  C   UNL     1     -14.958  58.474  52.746  0.00  0.00    +0.000 A 
ENDBRANCH  18  21
ENDBRANCH  12  18
ENDBRANCH   1  15
BRANCH   3  27
ATOM     27  C   UNL     1      -7.383  54.336  48.827  0.00  0.00    +0.000 C 
ATOM     28  O   UNL     1      -6.247  54.602  48.441  0.00  0.00    +0.000 OA
BRANCH  27  29
ATOM     29  O   UNL     1      -8.421  54.046  47.991  0.00  0.00    +0.000 OA
BRANCH  29  30
ATOM     30  C   UNL     1      -8.627  54.892  46.855  0.00  0.00    +0.000 C 
ATOM     31  C   UNL     1     -10.091  54.940  46.473  0.00  0.00    +0.000 C 
ENDBRANCH  29  30
ENDBRANCH  27  29
ENDBRANCH   3  27
TORSDOF 6
ENDMDL
MODEL 8
REMARK VINA RESULT:      -6.6      3.771      7.495
REMARK  Name = 
REMARK  9 active torsions:
REMARK  status: ('A' for Active; 'I' for Inactive)
REMARK    1  A    between atoms: S_1  and  N_4
REMARK    2  A    between atoms: S_1  and  C_5
REMARK    3  A    between atoms: N_10  and  C_13
REMARK    4  A    between atoms: C_16  and  C_19
REMARK    5  A    between atoms: C_19  and  O_23
REMARK    6  A    between atoms: O_23  and  C_26
REMARK    7  A    between atoms: C_24  and  C_27
REMARK    8  A    between atoms: C_24  and  C_28
REMARK    9  A    between atoms: C_26  and  C_29
REMARK                            x       y       z     vdW  Elec       q    Type
REMARK                         _______ _______ _______ _____ _____    ______ ____
ROOT
ATOM      1  C   UNL     1     -11.247  54.503  50.619  0.00  0.00    +0.000 A 
ATOM      2  S   UNL     1     -11.531  55.052  52.202  0.00  0.00    +0.000 S 
ATOM      3  C   UNL     1     -12.161  54.983  49.695  0.00  0.00    +0.000 A 
ATOM      4  C   UNL     1     -12.693  56.171  51.654  0.00  0.00    +0.000 A 
ATOM      5  C   UNL     1     -12.938  56.048  50.296  0.00  0.00    +0.000 A 
ATOM      6  C   UNL     1     -13.359  57.166  52.570  0.00  0.00    +0.000 C 
ATOM      7  C   UNL     1     -13.958  56.896  49.593  0.00  0.00    +0.000 C 
ATOM      8  C   UNL     1     -14.660  57.740  51.927  0.00  0.00    +0.000 C 
ATOM      9  C   UNL     1     -14.388  58.099  50.441  0.00  0.00    +0.000 C 
ATOM     10  C   UNL     1     -15.096  59.023  52.659  0.00  0.00    +0.000 C 
ATOM     11  C   UNL     1     -15.807  56.717  52.047  0.00  0.00    +0.000 C 
ENDROOT
BRANCH   1  15
ATOM     12  N   UNL     1      -8.155  53.118  49.418  0.00  0.00    +0.000 N 
ATOM     13  C   UNL     1      -9.199  54.023  49.542  0.00  0.00    +0.000 C 
ATOM     14  O   UNL     1      -9.214  55.066  48.906  0.00  0.00    +0.000 OA
ATOM     15  N   UNL     1     -10.151  53.671  50.476  0.00  0.00    +0.000 N 
ATOM     16  H   UNL     1      -8.207  52.256  49.890  0.00  0.00    +0.000 HD
ATOM     17  H   UNL     1     -10.054  52.857  51.022  0.00  0.00    +0.000 HD
BRANCH  12  18
ATOM     18  S   UNL     1      -6.803  53.463  48.479  0.00  0.00    +0.000 S 
ATOM     19  O   UNL     1      -5.833  52.406  48.687  0.00  0.00    +0.000 OA
ATOM     20  O   UNL     1      -6.454  54.834  48.817  0.00  0.00    +0.000 OA
BRANCH  18  21
ATOM     21  C   UNL     1      -7.424  53.445  46.779  0.00  0.00    +0.000 A 
ATOM     22  N   UNL     1      -7.688  52.216  46.277  0.00  0.00    +0.000 NA
ATOM     23  N   UNL     1      -7.546  54.636  46.148  0.00  0.00    +0.000 NA
ATOM     24  C   UNL     1      -8.143  52.223  45.010  0.00  0.00    +0.000 A 
ATOM     25  C   UNL     1      -7.966  54.556  44.877  0.00  0.00    +0.000 A 
ATOM     26  C   UNL     1      -8.287  53.367  44.258  0.00  0.00    +0.000 A 
ENDBRANCH  18  21
ENDBRANCH  12  18
ENDBRANCH   1  15
BRANCH   3  27
ATOM     27  C   UNL     1     -12.347  54.450  48.334  0.00  0.00    +0.000 C 
ATOM     28  O   UNL     1     -12.460  55.162  47.339  0.00  0.00    +0.000 OA
BRANCH  27  29
ATOM     29  O   UNL     1     -12.539  53.099  48.326  0.00  0.00    +0.000 OA
BRANCH  29  30
ATOM     30  C   UNL     1     -11.945  52.340  47.269  0.00  0.00    +0.000 C 
ATOM     31  C   UNL     1     -12.589  50.976  47.152  0.00  0.00    +0.000 C 
ENDBRANCH  29  30
ENDBRANCH  27  29
ENDBRANCH   3  27
TORSDOF 6
ENDMDL
MODEL 9
REMARK VINA RESULT:      -6.5      3.671      8.038
REMARK  Name = 
REMARK  9 active torsions:
REMARK  status: ('A' for Active; 'I' for Inactive)
REMARK    1  A    between atoms: S_1  and  N_4
REMARK    2  A    between atoms: S_1  and  C_5
REMARK    3  A    between atoms: N_10  and  C_13
REMARK    4  A    between atoms: C_16  and  C_19
REMARK    5  A    between atoms: C_19  and  O_23
REMARK    6  A    between atoms: O_23  and  C_26
REMARK    7  A    between atoms: C_24  and  C_27
REMARK    8  A    between atoms: C_24  and  C_28
REMARK    9  A    between atoms: C_26  and  C_29
REMARK                            x       y       z     vdW  Elec       q    Type
REMARK                         _______ _______ _______ _____ _____    ______ ____
ROOT
ATOM      1  C   UNL     1      -9.013  55.314  49.128  0.00  0.00    +0.000 A 
ATOM      2  S   UNL     1      -8.245  54.597  47.792  0.00  0.00    +0.000 S 
ATOM      3  C   UNL     1     -10.390  55.153  49.127  0.00  0.00    +0.000 A 
ATOM      4  C   UNL     1      -9.682  53.804  47.334  0.00  0.00    +0.000 A 
ATOM      5  C   UNL     1     -10.757  54.171  48.127  0.00  0.00    +0.000 A 
ATOM      6  C   UNL     1      -9.741  52.823  46.191  0.00  0.00    +0.000 C 
ATOM      7  C   UNL     1     -12.141  53.639  47.885  0.00  0.00    +0.000 C 
ATOM      8  C   UNL     1     -11.210  52.599  45.715  0.00  0.00    +0.000 C 
ATOM      9  C   UNL     1     -12.132  52.422  46.951  0.00  0.00    +0.000 C 
ATOM     10  C   UNL     1     -11.305  51.323  44.858  0.00  0.00    +0.000 C 
ATOM     11  C   UNL     1     -11.673  53.786  44.847  0.00  0.00    +0.000 C 
ENDROOT
BRANCH   1  15
ATOM     12  N   UNL     1      -7.063  55.996  52.069  0.00  0.00    +0.000 N 
ATOM     13  C   UNL     1      -7.878  55.285  51.200  0.00  0.00    +0.000 C 
ATOM     14  O   UNL     1      -8.245  54.149  51.460  0.00  0.00    +0.000 OA
ATOM     15  N   UNL     1      -8.165  55.943  50.022  0.00  0.00    +0.000 N 
ATOM     16  H   UNL     1      -6.843  56.933  51.865  0.00  0.00    +0.000 HD
ATOM     17  H   UNL     1      -7.781  56.828  49.825  0.00  0.00    +0.000 HD
BRANCH  12  18
ATOM     18  S   UNL     1      -6.443  55.289  53.464  0.00  0.00    +0.000 S 
ATOM     19  O   UNL     1      -7.560  54.827  54.265  0.00  0.00    +0.000 OA
ATOM     20  O   UNL     1      -5.531  56.282  54.010  0.00  0.00    +0.000 OA
BRANCH  18  21
ATOM     21  C   UNL     1      -5.459  53.896  52.859  0.00  0.00    +0.000 A 
ATOM     22  N   UNL     1      -5.678  52.720  53.494  0.00  0.00    +0.000 NA
ATOM     23  N   UNL     1      -4.580  54.141  51.860  0.00  0.00    +0.000 NA
ATOM     24  C   UNL     1      -4.933  51.697  53.034  0.00  0.00    +0.000 A 
ATOM     25  C   UNL     1      -3.848  53.082  51.486  0.00  0.00    +0.000 A 
ATOM     26  C   UNL     1      -3.990  51.828  52.040  0.00  0.00    +0.000 A 
ENDBRANCH  18  21
ENDBRANCH  12  18
ENDBRANCH   1  15
BRANCH   3  27
ATOM     27  C   UNL     1     -11.330  55.907  49.973  0.00  0.00    +0.000 C 
ATOM     28  O   UNL     1     -11.650  55.556  51.106  0.00  0.00    +0.000 OA
BRANCH  27  29
ATOM     29  O   UNL     1     -11.921  56.938  49.302  0.00  0.00    +0.000 OA
BRANCH  29  30
ATOM     30  C   UNL     1     -13.343  56.915  49.148  0.00  0.00    +0.000 C 
ATOM     31  C   UNL     1     -13.740  57.241  47.724  0.00  0.00    +0.000 C 
ENDBRANCH  29  30
ENDBRANCH  27  29
ENDBRANCH   3  27
TORSDOF 6
ENDMDL
