MODEL 1
REMARK VINA RESULT:      -7.8      0.000      0.000
REMARK  Name = 
REMARK  9 active torsions:
REMARK  status: ('A' for Active; 'I' for Inactive)
REMARK    1  A    between atoms: S_1  and  N_4
REMARK    2  A    between atoms: S_1  and  C_5
REMARK    3  A    between atoms: N_10  and  C_13
REMARK    4  A    between atoms: C_16  and  C_19
REMARK    5  A    between atoms: C_19  and  O_23
REMARK    6  A    between atoms: O_23  and  C_26
REMARK    7  A    between atoms: C_24  and  C_27
REMARK    8  A    between atoms: C_24  and  C_28
REMARK    9  A    between atoms: C_26  and  C_29
REMARK                            x       y       z     vdW  Elec       q    Type
REMARK                         _______ _______ _______ _____ _____    ______ ____
ROOT
ATOM      1  C   UNL     1     -10.948  54.373  51.601  0.00  0.00    +0.000 A 
ATOM      2  S   UNL     1     -10.519  53.710  53.105  0.00  0.00    +0.000 S 
ATOM      3  C   UNL     1      -9.868  54.868  50.892  0.00  0.00    +0.000 A 
ATOM      4  C   UNL     1      -8.856  53.829  52.738  0.00  0.00    +0.000 A 
ATOM      5  C   UNL     1      -8.632  54.462  51.526  0.00  0.00    +0.000 A 
ATOM      6  C   UNL     1      -7.776  53.295  53.650  0.00  0.00    +0.000 C 
ATOM      7  C   UNL     1      -7.245  54.732  51.020  0.00  0.00    +0.000 C 
ATOM      8  C   UNL     1      -6.393  53.939  53.316  0.00  0.00    +0.000 C 
ATOM      9  C   UNL     1      -6.181  53.941  51.782  0.00  0.00    +0.000 C 
ATOM     10  C   UNL     1      -5.247  53.126  53.945  0.00  0.00    +0.000 C 
ATOM     11  C   UNL     1      -6.324  55.372  53.884  0.00  0.00    +0.000 C 
ENDROOT
BRANCH   1  15
ATOM     12  N   UNL     1     -14.416  55.216  51.154  0.00  0.00    +0.000 N 
ATOM     13  C   UNL     1     -13.105  55.358  51.582  0.00  0.00    +0.000 C 
ATOM     14  O   UNL     1     -12.705  56.391  52.105  0.00  0.00    +0.000 OA
ATOM     15  N   UNL     1     -12.289  54.287  51.269  0.00  0.00    +0.000 N 
ATOM     16  H   UNL     1     -14.672  54.367  50.728  0.00  0.00    +0.000 HD
ATOM     17  H   UNL     1     -12.652  53.487  50.824  0.00  0.00    +0.000 HD
BRANCH  12  18
ATOM     18  S   UNL     1     -15.587  56.397  51.315  0.00  0.00    +0.000 S 
ATOM     19  O   UNL     1     -15.755  56.765  52.705  0.00  0.00    +0.000 OA
ATOM     20  O   UNL     1     -16.714  55.904  50.546  0.00  0.00    +0.000 OA
BRANCH  18  21
ATOM     21  C   UNL     1     -14.913  57.783  50.429  0.00  0.00    +0.000 A 
ATOM     22  C   UNL     1     -14.371  57.605  49.151  0.00  0.00    +0.000 A 
ATOM     23  C   UNL     1     -15.015  59.071  50.973  0.00  0.00    +0.000 A 
ATOM     24  C   UNL     1     -13.906  58.708  48.430  0.00  0.00    +0.000 A 
ATOM     25  C   UNL     1     -14.545  60.167  50.249  0.00  0.00    +0.000 A 
ATOM     26  C   UNL     1     -13.990  59.986  48.981  0.00  0.00    +0.000 A 
ENDBRANCH  18  21
ENDBRANCH  12  18
ENDBRANCH   1  15
BRANCH   3  27
ATOM     27  C   UNL     1     -10.016  55.672  49.677  0.00  0.00    +0.000 C 
ATOM     28  O   UNL     1      -9.652  56.841  49.599  0.00  0.00    +0.000 OA
BRANCH  27  29
ATOM     29  O   UNL     1     -10.592  54.974  48.662  0.00  0.00    +0.000 OA
BRANCH  29  30
ATOM     30  C   UNL     1     -11.625  55.630  47.921  0.00  0.00    +0.000 C 
ATOM     31  C   UNL     1     -11.545  55.217  46.466  0.00  0.00    +0.000 C 
ENDBRANCH  29  30
ENDBRANCH  27  29
ENDBRANCH   3  27
TORSDOF 6
ENDMDL
MODEL 2
REMARK VINA RESULT:      -7.4      2.604      7.712
REMARK  Name = 
REMARK  9 active torsions:
REMARK  status: ('A' for Active; 'I' for Inactive)
REMARK    1  A    between atoms: S_1  and  N_4
REMARK    2  A    between atoms: S_1  and  C_5
REMARK    3  A    between atoms: N_10  and  C_13
REMARK    4  A    between atoms: C_16  and  C_19
REMARK    5  A    between atoms: C_19  and  O_23
REMARK    6  A    between atoms: O_23  and  C_26
REMARK    7  A    between atoms: C_24  and  C_27
REMARK    8  A    between atoms: C_24  and  C_28
REMARK    9  A    between atoms: C_26  and  C_29
REMARK                            x       y       z     vdW  Elec       q    Type
REMARK                         _______ _______ _______ _____ _____    ______ ____
ROOT
ATOM      1  C   UNL     1     -11.106  54.772  50.050  0.00  0.00    +0.000 A 
ATOM      2  S   UNL     1     -11.741  54.770  51.626  0.00  0.00    +0.000 S 
ATOM      3  C   UNL     1     -11.730  55.676  49.209  0.00  0.00    +0.000 A 
ATOM      4  C   UNL     1     -12.686  56.154  51.299  0.00  0.00    +0.000 A 
ATOM      5  C   UNL     1     -12.595  56.547  49.974  0.00  0.00    +0.000 A 
ATOM      6  C   UNL     1     -13.515  56.848  52.355  0.00  0.00    +0.000 C 
ATOM      7  C   UNL     1     -13.384  57.707  49.438  0.00  0.00    +0.000 C 
ATOM      8  C   UNL     1     -14.607  57.753  51.703  0.00  0.00    +0.000 C 
ATOM      9  C   UNL     1     -13.977  58.574  50.551  0.00  0.00    +0.000 C 
ATOM     10  C   UNL     1     -15.173  58.751  52.730  0.00  0.00    +0.000 C 
ATOM     11  C   UNL     1     -15.776  56.889  51.189  0.00  0.00    +0.000 C 
ENDROOT
BRANCH   1  15
ATOM     12  N   UNL     1      -7.772  53.426  49.994  0.00  0.00    +0.000 N 
ATOM     13  C   UNL     1      -8.774  54.365  50.180  0.00  0.00    +0.000 C 
ATOM     14  O   UNL     1      -8.550  55.454  50.696  0.00  0.00    +0.000 OA
ATOM     15  N   UNL     1     -10.036  53.920  49.835  0.00  0.00    +0.000 N 
ATOM     16  H   UNL     1      -8.017  52.564  49.588  0.00  0.00    +0.000 HD
ATOM     17  H   UNL     1     -10.169  53.025  49.446  0.00  0.00    +0.000 HD
BRANCH  12  18
ATOM     18  S   UNL     1      -6.173  53.665  50.419  0.00  0.00    +0.000 S 
ATOM     19  O   UNL     1      -5.691  54.930  49.907  0.00  0.00    +0.000 OA
ATOM     20  O   UNL     1      -5.508  52.426  50.058  0.00  0.00    +0.000 OA
BRANCH  18  21
ATOM     21  C   UNL     1      -6.215  53.739  52.195  0.00  0.00    +0.000 A 
ATOM     22  C   UNL     1      -6.759  52.680  52.931  0.00  0.00    +0.000 A 
ATOM     23  C   UNL     1      -5.613  54.817  52.859  0.00  0.00    +0.000 A 
ATOM     24  C   UNL     1      -6.727  52.712  54.328  0.00  0.00    +0.000 A 
ATOM     25  C   UNL     1      -5.588  54.844  54.254  0.00  0.00    +0.000 A 
ATOM     26  C   UNL     1      -6.146  53.794  54.987  0.00  0.00    +0.000 A 
ENDBRANCH  18  21
ENDBRANCH  12  18
ENDBRANCH   1  15
BRANCH   3  27
ATOM     27  C   UNL     1     -11.501  55.703  47.763  0.00  0.00    +0.000 C 
ATOM     28  O   UNL     1     -12.413  55.739  46.941  0.00  0.00    +0.000 OA
BRANCH  27  29
ATOM     29  O   UNL     1     -10.179  55.689  47.448  0.00  0.00    +0.000 OA
BRANCH  29  30
ATOM     30  C   UNL     1      -9.760  54.783  46.423  0.00  0.00    +0.000 C 
ATOM     31  C   UNL     1      -8.268  54.918  46.206  0.00  0.00    +0.000 C 
ENDBRANCH  29  30
ENDBRANCH  27  29
ENDBRANCH   3  27
TORSDOF 6
ENDMDL
MODEL 3
REMARK VINA RESULT:      -7.0      4.052      7.567
REMARK  Name = 
REMARK  9 active torsions:
REMARK  status: ('A' for Active; 'I' for Inactive)
REMARK    1  A    between atoms: S_1  and  N_4
REMARK    2  A    between atoms: S_1  and  C_5
REMARK    3  A    between atoms: N_10  and  C_13
REMARK    4  A    between atoms: C_16  and  C_19
REMARK    5  A    between atoms: C_19  and  O_23
REMARK    6  A    between atoms: O_23  and  C_26
REMARK    7  A    between atoms: C_24  and  C_27
REMARK    8  A    between atoms: C_24  and  C_28
REMARK    9  A    between atoms: C_26  and  C_29
REMARK                            x       y       z     vdW  Elec       q    Type
REMARK                         _______ _______ _______ _____ _____    ______ ____
ROOT
ATOM      1  C   UNL     1      -8.730  54.985  47.172  0.00  0.00    +0.000 A 
ATOM      2  S   UNL     1      -7.491  54.238  46.280  0.00  0.00    +0.000 S 
ATOM      3  C   UNL     1      -9.998  54.675  46.713  0.00  0.00    +0.000 A 
ATOM      4  C   UNL     1      -8.616  53.280  45.426  0.00  0.00    +0.000 A 
ATOM      5  C   UNL     1      -9.925  53.602  45.745  0.00  0.00    +0.000 A 
ATOM      6  C   UNL     1      -8.201  52.211  44.442  0.00  0.00    +0.000 C 
ATOM      7  C   UNL     1     -11.089  52.930  45.076  0.00  0.00    +0.000 C 
ATOM      8  C   UNL     1      -9.381  51.838  43.490  0.00  0.00    +0.000 C 
ATOM      9  C   UNL     1     -10.678  51.666  44.319  0.00  0.00    +0.000 C 
ATOM     10  C   UNL     1      -9.104  50.503  42.775  0.00  0.00    +0.000 C 
ATOM     11  C   UNL     1      -9.556  52.926  42.411  0.00  0.00    +0.000 C 
ENDROOT
BRANCH   1  15
ATOM     12  N   UNL     1      -7.604  55.933  50.453  0.00  0.00    +0.000 N 
ATOM     13  C   UNL     1      -8.080  55.104  49.449  0.00  0.00    +0.000 C 
ATOM     14  O   UNL     1      -8.183  53.894  49.606  0.00  0.00    +0.000 OA
ATOM     15  N   UNL     1      -8.316  55.749  48.249  0.00  0.00    +0.000 N 
ATOM     16  H   UNL     1      -7.531  56.895  50.261  0.00  0.00    +0.000 HD
ATOM     17  H   UNL     1      -8.194  56.723  48.164  0.00  0.00    +0.000 HD
BRANCH  12  18
ATOM     18  S   UNL     1      -7.147  55.400  51.969  0.00  0.00    +0.000 S 
ATOM     19  O   UNL     1      -6.954  56.517  52.869  0.00  0.00    +0.000 OA
ATOM     20  O   UNL     1      -6.065  54.465  51.719  0.00  0.00    +0.000 OA
BRANCH  18  21
ATOM     21  C   UNL     1      -8.544  54.449  52.521  0.00  0.00    +0.000 A 
ATOM     22  C   UNL     1      -9.836  54.978  52.431  0.00  0.00    +0.000 A 
ATOM     23  C   UNL     1      -8.357  53.128  52.955  0.00  0.00    +0.000 A 
ATOM     24  C   UNL     1     -10.937  54.201  52.802  0.00  0.00    +0.000 A 
ATOM     25  C   UNL     1      -9.460  52.360  53.328  0.00  0.00    +0.000 A 
ATOM     26  C   UNL     1     -10.748  52.895  53.253  0.00  0.00    +0.000 A 
ENDBRANCH  18  21
ENDBRANCH  12  18
ENDBRANCH   1  15
BRANCH   3  27
ATOM     27  C   UNL     1     -11.202  55.363  47.183  0.00  0.00    +0.000 C 
ATOM     28  O   UNL     1     -11.922  56.032  46.446  0.00  0.00    +0.000 OA
BRANCH  27  29
ATOM     29  O   UNL     1     -11.424  55.169  48.509  0.00  0.00    +0.000 OA
BRANCH  29  30
ATOM     30  C   UNL     1     -12.359  54.149  48.874  0.00  0.00    +0.000 C 
ATOM     31  C   UNL     1     -11.612  52.942  49.404  0.00  0.00    +0.000 C 
ENDBRANCH  29  30
ENDBRANCH  27  29
ENDBRANCH   3  27
TORSDOF 6
ENDMDL
MODEL 4
REMARK VINA RESULT:      -7.0      2.459      3.137
REMARK  Name = 
REMARK  9 active torsions:
REMARK  status: ('A' for Active; 'I' for Inactive)
REMARK    1  A    between atoms: S_1  and  N_4
REMARK    2  A    between atoms: S_1  and  C_5
REMARK    3  A    between atoms: N_10  and  C_13
REMARK    4  A    between atoms: C_16  and  C_19
REMARK    5  A    between atoms: C_19  and  O_23
REMARK    6  A    between atoms: O_23  and  C_26
REMARK    7  A    between atoms: C_24  and  C_27
REMARK    8  A    between atoms: C_24  and  C_28
REMARK    9  A    between atoms: C_26  and  C_29
REMARK                            x       y       z     vdW  Elec       q    Type
REMARK                         _______ _______ _______ _____ _____    ______ ____
ROOT
ATOM      1  C   UNL     1      -9.949  54.930  50.677  0.00  0.00    +0.000 A 
ATOM      2  S   UNL     1      -9.930  54.981  52.376  0.00  0.00    +0.000 S 
ATOM      3  C   UNL     1      -9.473  53.739  50.160  0.00  0.00    +0.000 A 
ATOM      4  C   UNL     1      -9.533  53.324  52.469  0.00  0.00    +0.000 A 
ATOM      5  C   UNL     1      -9.316  52.767  51.220  0.00  0.00    +0.000 A 
ATOM      6  C   UNL     1      -9.437  52.577  53.780  0.00  0.00    +0.000 C 
ATOM      7  C   UNL     1      -8.898  51.334  51.054  0.00  0.00    +0.000 C 
ATOM      8  C   UNL     1      -8.622  51.256  53.613  0.00  0.00    +0.000 C 
ATOM      9  C   UNL     1      -9.091  50.518  52.334  0.00  0.00    +0.000 C 
ATOM     10  C   UNL     1      -8.859  50.314  54.807  0.00  0.00    +0.000 C 
ATOM     11  C   UNL     1      -7.113  51.568  53.547  0.00  0.00    +0.000 C 
ENDROOT
BRANCH   1  15
ATOM     12  N   UNL     1     -12.290  57.283  49.292  0.00  0.00    +0.000 N 
ATOM     13  C   UNL     1     -11.844  56.102  49.865  0.00  0.00    +0.000 C 
ATOM     14  O   UNL     1     -12.621  55.238  50.252  0.00  0.00    +0.000 OA
ATOM     15  N   UNL     1     -10.475  56.047  50.050  0.00  0.00    +0.000 N 
ATOM     16  H   UNL     1     -11.616  57.944  49.015  0.00  0.00    +0.000 HD
ATOM     17  H   UNL     1      -9.892  56.780  49.745  0.00  0.00    +0.000 HD
BRANCH  12  18
ATOM     18  S   UNL     1     -13.901  57.653  49.045  0.00  0.00    +0.000 S 
ATOM     19  O   UNL     1     -14.584  56.557  48.392  0.00  0.00    +0.000 OA
ATOM     20  O   UNL     1     -13.885  58.972  48.440  0.00  0.00    +0.000 OA
BRANCH  18  21
ATOM     21  C   UNL     1     -14.548  57.839  50.690  0.00  0.00    +0.000 A 
ATOM     22  C   UNL     1     -15.255  56.792  51.291  0.00  0.00    +0.000 A 
ATOM     23  C   UNL     1     -14.263  59.002  51.421  0.00  0.00    +0.000 A 
ATOM     24  C   UNL     1     -15.702  56.916  52.609  0.00  0.00    +0.000 A 
ATOM     25  C   UNL     1     -14.717  59.121  52.735  0.00  0.00    +0.000 A 
ATOM     26  C   UNL     1     -15.436  58.080  53.328  0.00  0.00    +0.000 A 
ENDBRANCH  18  21
ENDBRANCH  12  18
ENDBRANCH   1  15
BRANCH   3  27
ATOM     27  C   UNL     1      -9.196  53.547  48.734  0.00  0.00    +0.000 C 
ATOM     28  O   UNL     1      -8.065  53.365  48.291  0.00  0.00    +0.000 OA
BRANCH  27  29
ATOM     29  O   UNL     1     -10.324  53.589  47.978  0.00  0.00    +0.000 OA
BRANCH  29  30
ATOM     30  C   UNL     1     -11.293  52.559  48.190  0.00  0.00    +0.000 C 
ATOM     31  C   UNL     1     -12.157  52.412  46.955  0.00  0.00    +0.000 C 
ENDBRANCH  29  30
ENDBRANCH  27  29
ENDBRANCH   3  27
TORSDOF 6
ENDMDL
MODEL 5
REMARK VINA RESULT:      -6.9      2.450      3.252
REMARK  Name = 
REMARK  9 active torsions:
REMARK  status: ('A' for Active; 'I' for Inactive)
REMARK    1  A    between atoms: S_1  and  N_4
REMARK    2  A    between atoms: S_1  and  C_5
REMARK    3  A    between atoms: N_10  and  C_13
REMARK    4  A    between atoms: C_16  and  C_19
REMARK    5  A    between atoms: C_19  and  O_23
REMARK    6  A    between atoms: O_23  and  C_26
REMARK    7  A    between atoms: C_24  and  C_27
REMARK    8  A    between atoms: C_24  and  C_28
REMARK    9  A    between atoms: C_26  and  C_29
REMARK                            x       y       z     vdW  Elec       q    Type
REMARK                         _______ _______ _______ _____ _____    ______ ____
ROOT
ATOM      1  C   UNL     1      -9.799  54.781  50.966  0.00  0.00    +0.000 A 
ATOM      2  S   UNL     1      -9.988  54.846  52.654  0.00  0.00    +0.000 S 
ATOM      3  C   UNL     1      -9.186  53.621  50.528  0.00  0.00    +0.000 A 
ATOM      4  C   UNL     1      -9.495  53.221  52.821  0.00  0.00    +0.000 A 
ATOM      5  C   UNL     1      -9.093  52.670  51.615  0.00  0.00    +0.000 A 
ATOM      6  C   UNL     1      -9.509  52.492  54.145  0.00  0.00    +0.000 C 
ATOM      7  C   UNL     1      -8.564  51.268  51.523  0.00  0.00    +0.000 C 
ATOM      8  C   UNL     1      -8.594  51.228  54.097  0.00  0.00    +0.000 C 
ATOM      9  C   UNL     1      -8.854  50.451  52.783  0.00  0.00    +0.000 C 
ATOM     10  C   UNL     1      -8.909  50.282  55.269  0.00  0.00    +0.000 C 
ATOM     11  C   UNL     1      -7.111  51.641  54.208  0.00  0.00    +0.000 C 
ENDROOT
BRANCH   1  15
ATOM     12  N   UNL     1     -12.127  57.053  49.432  0.00  0.00    +0.000 N 
ATOM     13  C   UNL     1     -11.688  55.912  50.086  0.00  0.00    +0.000 C 
ATOM     14  O   UNL     1     -12.471  55.088  50.543  0.00  0.00    +0.000 OA
ATOM     15  N   UNL     1     -10.318  55.855  50.264  0.00  0.00    +0.000 N 
ATOM     16  H   UNL     1     -11.449  57.684  49.101  0.00  0.00    +0.000 HD
ATOM     17  H   UNL     1      -9.730  56.557  49.900  0.00  0.00    +0.000 HD
BRANCH  12  18
ATOM     18  S   UNL     1     -13.736  57.422  49.172  0.00  0.00    +0.000 S 
ATOM     19  O   UNL     1     -14.432  56.296  48.588  0.00  0.00    +0.000 OA
ATOM     20  O   UNL     1     -13.713  58.704  48.492  0.00  0.00    +0.000 OA
BRANCH  18  21
ATOM     21  C   UNL     1     -14.372  57.709  50.807  0.00  0.00    +0.000 A 
ATOM     22  C   UNL     1     -14.215  58.959  51.415  0.00  0.00    +0.000 A 
ATOM     23  C   UNL     1     -15.118  56.708  51.447  0.00  0.00    +0.000 A 
ATOM     24  C   UNL     1     -14.778  59.201  52.671  0.00  0.00    +0.000 A 
ATOM     25  C   UNL     1     -15.673  56.955  52.703  0.00  0.00    +0.000 A 
ATOM     26  C   UNL     1     -15.502  58.198  53.315  0.00  0.00    +0.000 A 
ENDBRANCH  18  21
ENDBRANCH  12  18
ENDBRANCH   1  15
BRANCH   3  27
ATOM     27  C   UNL     1      -8.726  53.438  49.150  0.00  0.00    +0.000 C 
ATOM     28  O   UNL     1      -8.900  52.399  48.519  0.00  0.00    +0.000 OA
BRANCH  27  29
ATOM     29  O   UNL     1      -8.100  54.541  48.662  0.00  0.00    +0.000 OA
BRANCH  29  30
ATOM     30  C   UNL     1      -7.862  54.589  47.252  0.00  0.00    +0.000 C 
ATOM     31  C   UNL     1      -9.011  55.301  46.568  0.00  0.00    +0.000 C 
ENDBRANCH  29  30
ENDBRANCH  27  29
ENDBRANCH   3  27
TORSDOF 6
ENDMDL
MODEL 6
REMARK VINA RESULT:      -6.8      2.252      2.900
REMARK  Name = 
REMARK  9 active torsions:
REMARK  status: ('A' for Active; 'I' for Inactive)
REMARK    1  A    between atoms: S_1  and  N_4
REMARK    2  A    between atoms: S_1  and  C_5
REMARK    3  A    between atoms: N_10  and  C_13
REMARK    4  A    between atoms: C_16  and  C_19
REMARK    5  A    between atoms: C_19  and  O_23
REMARK    6  A    between atoms: O_23  and  C_26
REMARK    7  A    between atoms: C_24  and  C_27
REMARK    8  A    between atoms: C_24  and  C_28
REMARK    9  A    between atoms: C_26  and  C_29
REMARK                            x       y       z     vdW  Elec       q    Type
REMARK                         _______ _______ _______ _____ _____    ______ ____
ROOT
ATOM      1  C   UNL     1      -8.489  55.465  50.508  0.00  0.00    +0.000 A 
ATOM      2  S   UNL     1      -8.362  55.502  52.202  0.00  0.00    +0.000 S 
ATOM      3  C   UNL     1      -7.666  54.523  49.917  0.00  0.00    +0.000 A 
ATOM      4  C   UNL     1      -7.404  54.090  52.209  0.00  0.00    +0.000 A 
ATOM      5  C   UNL     1      -7.100  53.658  50.929  0.00  0.00    +0.000 A 
ATOM      6  C   UNL     1      -6.954  53.411  53.483  0.00  0.00    +0.000 C 
ATOM      7  C   UNL     1      -6.220  52.465  50.685  0.00  0.00    +0.000 C 
ATOM      8  C   UNL     1      -5.743  52.463  53.214  0.00  0.00    +0.000 C 
ATOM      9  C   UNL     1      -6.018  51.621  51.944  0.00  0.00    +0.000 C 
ATOM     10  C   UNL     1      -5.545  51.486  54.387  0.00  0.00    +0.000 C 
ATOM     11  C   UNL     1      -4.448  53.287  53.060  0.00  0.00    +0.000 C 
ENDROOT
BRANCH   1  15
ATOM     12  N   UNL     1     -11.598  56.844  49.338  0.00  0.00    +0.000 N 
ATOM     13  C   UNL     1     -10.723  55.891  49.834  0.00  0.00    +0.000 C 
ATOM     14  O   UNL     1     -11.111  54.792  50.212  0.00  0.00    +0.000 OA
ATOM     15  N   UNL     1      -9.418  56.332  49.958  0.00  0.00    +0.000 N 
ATOM     16  H   UNL     1     -11.226  57.714  49.064  0.00  0.00    +0.000 HD
ATOM     17  H   UNL     1      -9.159  57.236  49.663  0.00  0.00    +0.000 HD
BRANCH  12  18
ATOM     18  S   UNL     1     -13.245  56.610  49.177  0.00  0.00    +0.000 S 
ATOM     19  O   UNL     1     -13.573  55.203  49.265  0.00  0.00    +0.000 OA
ATOM     20  O   UNL     1     -13.612  57.377  48.001  0.00  0.00    +0.000 OA
BRANCH  18  21
ATOM     21  C   UNL     1     -13.930  57.451  50.586  0.00  0.00    +0.000 A 
ATOM     22  C   UNL     1     -13.728  56.946  51.874  0.00  0.00    +0.000 A 
ATOM     23  C   UNL     1     -14.590  58.676  50.409  0.00  0.00    +0.000 A 
ATOM     24  C   UNL     1     -14.209  57.647  52.984  0.00  0.00    +0.000 A 
ATOM     25  C   UNL     1     -15.071  59.369  51.521  0.00  0.00    +0.000 A 
ATOM     26  C   UNL     1     -14.882  58.855  52.806  0.00  0.00    +0.000 A 
ENDBRANCH  18  21
ENDBRANCH  12  18
ENDBRANCH   1  15
BRANCH   3  27
ATOM     27  C   UNL     1      -7.447  54.456  48.471  0.00  0.00    +0.000 C 
ATOM     28  O   UNL     1      -6.362  54.691  47.946  0.00  0.00    +0.000 OA
BRANCH  27  29
ATOM     29  O   UNL     1      -8.571  54.102  47.793  0.00  0.00    +0.000 OA
BRANCH  29  30
ATOM     30  C   UNL     1      -8.936  54.906  46.667  0.00  0.00    +0.000 C 
ATOM     31  C   UNL     1     -10.427  54.793  46.425  0.00  0.00    +0.000 C 
ENDBRANCH  29  30
ENDBRANCH  27  29
ENDBRANCH   3  27
TORSDOF 6
ENDMDL
MODEL 7
REMARK VINA RESULT:      -6.7      1.577      2.262
REMARK  Name = 
REMARK  9 active torsions:
REMARK  status: ('A' for Active; 'I' for Inactive)
REMARK    1  A    between atoms: S_1  and  N_4
REMARK    2  A    between atoms: S_1  and  C_5
REMARK    3  A    between atoms: N_10  and  C_13
REMARK    4  A    between atoms: C_16  and  C_19
REMARK    5  A    between atoms: C_19  and  O_23
REMARK    6  A    between atoms: O_23  and  C_26
REMARK    7  A    between atoms: C_24  and  C_27
REMARK    8  A    between atoms: C_24  and  C_28
REMARK    9  A    between atoms: C_26  and  C_29
REMARK                            x       y       z     vdW  Elec       q    Type
REMARK                         _______ _______ _______ _____ _____    ______ ____
ROOT
ATOM      1  C   UNL     1     -11.005  53.760  51.578  0.00  0.00    +0.000 A 
ATOM      2  S   UNL     1     -10.350  54.385  53.016  0.00  0.00    +0.000 S 
ATOM      3  C   UNL     1     -10.050  53.243  50.721  0.00  0.00    +0.000 A 
ATOM      4  C   UNL     1      -8.810  53.749  52.648  0.00  0.00    +0.000 A 
ATOM      5  C   UNL     1      -8.774  53.158  51.396  0.00  0.00    +0.000 A 
ATOM      6  C   UNL     1      -7.639  53.835  53.600  0.00  0.00    +0.000 C 
ATOM      7  C   UNL     1      -7.509  52.578  50.831  0.00  0.00    +0.000 C 
ATOM      8  C   UNL     1      -6.289  53.613  52.849  0.00  0.00    +0.000 C 
ATOM      9  C   UNL     1      -6.423  52.401  51.894  0.00  0.00    +0.000 C 
ATOM     10  C   UNL     1      -5.156  53.301  53.842  0.00  0.00    +0.000 C 
ATOM     11  C   UNL     1      -5.899  54.887  52.070  0.00  0.00    +0.000 C 
ENDROOT
BRANCH   1  15
ATOM     12  N   UNL     1     -14.339  54.873  50.815  0.00  0.00    +0.000 N 
ATOM     13  C   UNL     1     -12.960  54.940  50.939  0.00  0.00    +0.000 C 
ATOM     14  O   UNL     1     -12.319  55.893  50.512  0.00  0.00    +0.000 OA
ATOM     15  N   UNL     1     -12.385  53.805  51.480  0.00  0.00    +0.000 N 
ATOM     16  H   UNL     1     -14.795  54.074  51.166  0.00  0.00    +0.000 HD
ATOM     17  H   UNL     1     -12.942  53.052  51.786  0.00  0.00    +0.000 HD
BRANCH  12  18
ATOM     18  S   UNL     1     -15.275  56.062  50.107  0.00  0.00    +0.000 S 
ATOM     19  O   UNL     1     -16.630  55.595  49.905  0.00  0.00    +0.000 OA
ATOM     20  O   UNL     1     -14.485  56.530  48.983  0.00  0.00    +0.000 OA
BRANCH  18  21
ATOM     21  C   UNL     1     -15.288  57.365  51.317  0.00  0.00    +0.000 A 
ATOM     22  C   UNL     1     -15.427  57.062  52.676  0.00  0.00    +0.000 A 
ATOM     23  C   UNL     1     -15.060  58.689  50.913  0.00  0.00    +0.000 A 
ATOM     24  C   UNL     1     -15.366  58.084  53.628  0.00  0.00    +0.000 A 
ATOM     25  C   UNL     1     -15.006  59.704  51.870  0.00  0.00    +0.000 A 
ATOM     26  C   UNL     1     -15.160  59.402  53.225  0.00  0.00    +0.000 A 
ENDBRANCH  18  21
ENDBRANCH  12  18
ENDBRANCH   1  15
BRANCH   3  27
ATOM     27  C   UNL     1     -10.351  52.849  49.343  0.00  0.00    +0.000 C 
ATOM     28  O   UNL     1     -10.411  51.677  48.980  0.00  0.00    +0.000 OA
BRANCH  27  29
ATOM     29  O   UNL     1     -10.558  53.920  48.532  0.00  0.00    +0.000 OA
BRANCH  29  30
ATOM     30  C   UNL     1     -11.656  53.846  47.618  0.00  0.00    +0.000 C 
ATOM     31  C   UNL     1     -11.819  55.176  46.912  0.00  0.00    +0.000 C 
ENDBRANCH  29  30
ENDBRANCH  27  29
ENDBRANCH   3  27
TORSDOF 6
ENDMDL
MODEL 8
REMARK VINA RESULT:      -6.5      3.224      7.378
REMARK  Name = 
REMARK  9 active torsions:
REMARK  status: ('A' for Active; 'I' for Inactive)
REMARK    1  A    between atoms: S_1  and  N_4
REMARK    2  A    between atoms: S_1  and  C_5
REMARK    3  A    between atoms: N_10  and  C_13
REMARK    4  A    between atoms: C_16  and  C_19
REMARK    5  A    between atoms: C_19  and  O_23
REMARK    6  A    between atoms: O_23  and  C_26
REMARK    7  A    between atoms: C_24  and  C_27
REMARK    8  A    between atoms: C_24  and  C_28
REMARK    9  A    between atoms: C_26  and  C_29
REMARK                            x       y       z     vdW  Elec       q    Type
REMARK                         _______ _______ _______ _____ _____    ______ ____
ROOT
ATOM      1  C   UNL     1     -11.160  54.291  50.967  0.00  0.00    +0.000 A 
ATOM      2  S   UNL     1     -11.289  55.199  52.397  0.00  0.00    +0.000 S 
ATOM      3  C   UNL     1     -12.193  54.523  50.076  0.00  0.00    +0.000 A 
ATOM      4  C   UNL     1     -12.580  56.114  51.758  0.00  0.00    +0.000 A 
ATOM      5  C   UNL     1     -12.973  55.661  50.509  0.00  0.00    +0.000 A 
ATOM      6  C   UNL     1     -13.202  57.279  52.493  0.00  0.00    +0.000 C 
ATOM      7  C   UNL     1     -14.129  56.275  49.773  0.00  0.00    +0.000 C 
ATOM      8  C   UNL     1     -14.615  57.613  51.918  0.00  0.00    +0.000 C 
ATOM      9  C   UNL     1     -14.555  57.617  50.370  0.00  0.00    +0.000 C 
ATOM     10  C   UNL     1     -15.070  59.012  52.371  0.00  0.00    +0.000 C 
ATOM     11  C   UNL     1     -15.651  56.590  52.427  0.00  0.00    +0.000 C 
ENDROOT
BRANCH   1  15
ATOM     12  N   UNL     1      -7.937  53.048  49.965  0.00  0.00    +0.000 N 
ATOM     13  C   UNL     1      -9.059  53.863  49.954  0.00  0.00    +0.000 C 
ATOM     14  O   UNL     1      -9.118  54.870  49.260  0.00  0.00    +0.000 OA
ATOM     15  N   UNL     1     -10.033  53.494  50.863  0.00  0.00    +0.000 N 
ATOM     16  H   UNL     1      -7.945  52.261  50.555  0.00  0.00    +0.000 HD
ATOM     17  H   UNL     1      -9.928  52.687  51.419  0.00  0.00    +0.000 HD
BRANCH  12  18
ATOM     18  S   UNL     1      -6.573  53.321  49.039  0.00  0.00    +0.000 S 
ATOM     19  O   UNL     1      -5.628  52.235  49.187  0.00  0.00    +0.000 OA
ATOM     20  O   UNL     1      -6.181  54.682  49.355  0.00  0.00    +0.000 OA
BRANCH  18  21
ATOM     21  C   UNL     1      -7.189  53.326  47.371  0.00  0.00    +0.000 A 
ATOM     22  C   UNL     1      -7.838  52.199  46.857  0.00  0.00    +0.000 A 
ATOM     23  C   UNL     1      -7.110  54.499  46.606  0.00  0.00    +0.000 A 
ATOM     24  C   UNL     1      -8.381  52.232  45.569  0.00  0.00    +0.000 A 
ATOM     25  C   UNL     1      -7.652  54.524  45.320  0.00  0.00    +0.000 A 
ATOM     26  C   UNL     1      -8.285  53.392  44.802  0.00  0.00    +0.000 A 
ENDBRANCH  18  21
ENDBRANCH  12  18
ENDBRANCH   1  15
BRANCH   3  27
ATOM     27  C   UNL     1     -12.408  53.704  48.880  0.00  0.00    +0.000 C 
ATOM     28  O   UNL     1     -12.469  52.479  48.910  0.00  0.00    +0.000 OA
BRANCH  27  29
ATOM     29  O   UNL     1     -12.535  54.456  47.755  0.00  0.00    +0.000 OA
BRANCH  29  30
ATOM     30  C   UNL     1     -11.562  54.260  46.724  0.00  0.00    +0.000 C 
ATOM     31  C   UNL     1     -10.909  55.584  46.385  0.00  0.00    +0.000 C 
ENDBRANCH  29  30
ENDBRANCH  27  29
ENDBRANCH   3  27
TORSDOF 6
ENDMDL
MODEL 9
REMARK VINA RESULT:      -6.3      3.316      8.014
REMARK  Name = 
REMARK  9 active torsions:
REMARK  status: ('A' for Active; 'I' for Inactive)
REMARK    1  A    between atoms: S_1  and  N_4
REMARK    2  A    between atoms: S_1  and  C_5
REMARK    3  A    between atoms: N_10  and  C_13
REMARK    4  A    between atoms: C_16  and  C_19
REMARK    5  A    between atoms: C_19  and  O_23
REMARK    6  A    between atoms: O_23  and  C_26
REMARK    7  A    between atoms: C_24  and  C_27
REMARK    8  A    between atoms: C_24  and  C_28
REMARK    9  A    between atoms: C_26  and  C_29
REMARK                            x       y       z     vdW  Elec       q    Type
REMARK                         _______ _______ _______ _____ _____    ______ ____
ROOT
ATOM      1  C   UNL     1     -12.489  54.800  48.830  0.00  0.00    +0.000 A 
ATOM      2  S   UNL     1     -12.794  55.939  47.607  0.00  0.00    +0.000 S 
ATOM      3  C   UNL     1     -12.644  55.311  50.106  0.00  0.00    +0.000 A 
ATOM      4  C   UNL     1     -13.392  57.067  48.740  0.00  0.00    +0.000 A 
ATOM      5  C   UNL     1     -13.262  56.617  50.043  0.00  0.00    +0.000 A 
ATOM      6  C   UNL     1     -13.989  58.396  48.336  0.00  0.00    +0.000 C 
ATOM      7  C   UNL     1     -13.668  57.463  51.216  0.00  0.00    +0.000 C 
ATOM      8  C   UNL     1     -14.010  59.388  49.541  0.00  0.00    +0.000 C 
ATOM      9  C   UNL     1     -14.531  58.657  50.803  0.00  0.00    +0.000 C 
ATOM     10  C   UNL     1     -14.960  60.567  49.260  0.00  0.00    +0.000 C 
ATOM     11  C   UNL     1     -12.599  59.964  49.781  0.00  0.00    +0.000 C 
ENDROOT
BRANCH   1  15
ATOM     12  N   UNL     1     -10.673  51.983  47.526  0.00  0.00    +0.000 N 
ATOM     13  C   UNL     1     -10.919  53.302  47.873  0.00  0.00    +0.000 C 
ATOM     14  O   UNL     1     -10.048  54.161  47.805  0.00  0.00    +0.000 OA
ATOM     15  N   UNL     1     -12.180  53.522  48.394  0.00  0.00    +0.000 N 
ATOM     16  H   UNL     1     -11.409  51.337  47.616  0.00  0.00    +0.000 HD
ATOM     17  H   UNL     1     -12.839  52.792  48.453  0.00  0.00    +0.000 HD
BRANCH  12  18
ATOM     18  S   UNL     1      -9.202  51.421  46.964  0.00  0.00    +0.000 S 
ATOM     19  O   UNL     1      -9.101  49.988  47.137  0.00  0.00    +0.000 OA
ATOM     20  O   UNL     1      -8.219  52.304  47.564  0.00  0.00    +0.000 OA
BRANCH  18  21
ATOM     21  C   UNL     1      -9.246  51.790  45.226  0.00  0.00    +0.000 A 
ATOM     22  C   UNL     1     -10.079  51.059  44.371  0.00  0.00    +0.000 A 
ATOM     23  C   UNL     1      -8.518  52.881  44.729  0.00  0.00    +0.000 A 
ATOM     24  C   UNL     1     -10.162  51.399  43.018  0.00  0.00    +0.000 A 
ATOM     25  C   UNL     1      -8.602  53.211  43.376  0.00  0.00    +0.000 A 
ATOM     26  C   UNL     1      -9.422  52.471  42.522  0.00  0.00    +0.000 A 
ENDBRANCH  18  21
ENDBRANCH  12  18
ENDBRANCH   1  15
BRANCH   3  27
ATOM     27  C   UNL     1     -12.231  54.583  51.308  0.00  0.00    +0.000 C 
ATOM     28  O   UNL     1     -12.483  53.396  51.492  0.00  0.00    +0.000 OA
BRANCH  27  29
ATOM     29  O   UNL     1     -11.541  55.369  52.177  0.00  0.00    +0.000 OA
BRANCH  29  30
ATOM     30  C   UNL     1     -10.186  55.004  52.456  0.00  0.00    +0.000 C 
ATOM     31  C   UNL     1      -9.285  55.516  51.352  0.00  0.00    +0.000 C 
ENDBRANCH  29  30
ENDBRANCH  27  29
ENDBRANCH   3  27
TORSDOF 6
ENDMDL
