MODEL 1
REMARK VINA RESULT:      -7.2      0.000      0.000
REMARK  Name = 
REMARK  10 active torsions:
REMARK  status: ('A' for Active; 'I' for Inactive)
REMARK    1  A    between atoms: S_1  and  N_4
REMARK    2  A    between atoms: S_1  and  C_5
REMARK    3  A    between atoms: N_10  and  C_13
REMARK    4  A    between atoms: C_14  and  C_17
REMARK    5  A    between atoms: C_16  and  C_20
REMARK    6  A    between atoms: C_20  and  O_24
REMARK    7  A    between atoms: O_24  and  C_27
REMARK    8  A    between atoms: C_25  and  C_28
REMARK    9  A    between atoms: C_25  and  C_29
REMARK   10  A    between atoms: C_27  and  C_30
REMARK                            x       y       z     vdW  Elec       q    Type
REMARK                         _______ _______ _______ _____ _____    ______ ____
ROOT
ATOM      1  N   UNL     1      -9.133  52.130  49.315  0.00  0.00    +0.000 N 
ATOM      2  C   UNL     1     -10.272  52.887  49.519  0.00  0.00    +0.000 C 
ATOM      3  O   UNL     1     -11.374  52.479  49.190  0.00  0.00    +0.000 OA
ATOM      4  N   UNL     1     -10.026  54.142  50.046  0.00  0.00    +0.000 N 
ATOM      5  H   UNL     1      -8.278  52.451  49.681  0.00  0.00    +0.000 HD
ATOM      6  H   UNL     1      -9.110  54.429  50.267  0.00  0.00    +0.000 HD
ENDROOT
BRANCH   4   7
ATOM      7  C   UNL     1     -11.105  54.979  50.249  0.00  0.00    +0.000 A 
ATOM      8  S   UNL     1     -11.757  54.964  51.820  0.00  0.00    +0.000 S 
ATOM      9  C   UNL     1     -11.759  55.848  49.398  0.00  0.00    +0.000 A 
ATOM     10  C   UNL     1     -12.740  56.317  51.473  0.00  0.00    +0.000 A 
ATOM     11  C   UNL     1     -12.640  56.707  50.149  0.00  0.00    +0.000 A 
ATOM     12  C   UNL     1     -13.612  56.982  52.508  0.00  0.00    +0.000 C 
ATOM     13  C   UNL     1     -13.453  57.836  49.585  0.00  0.00    +0.000 C 
ATOM     14  C   UNL     1     -14.708  57.868  51.835  0.00  0.00    +0.000 C 
ATOM     15  C   UNL     1     -14.075  58.699  50.686  0.00  0.00    +0.000 C 
ATOM     16  C   UNL     1     -15.304  58.853  52.856  0.00  0.00    +0.000 C 
ATOM     17  C   UNL     1     -15.856  56.982  51.307  0.00  0.00    +0.000 C 
BRANCH   9  18
ATOM     18  C   UNL     1     -11.638  55.851  47.937  0.00  0.00    +0.000 C 
ATOM     19  O   UNL     1     -12.586  55.690  47.176  0.00  0.00    +0.000 OA
BRANCH  18  20
ATOM     20  O   UNL     1     -10.329  55.851  47.546  0.00  0.00    +0.000 OA
BRANCH  20  21
ATOM     21  C   UNL     1      -9.977  54.972  46.471  0.00  0.00    +0.000 C 
ATOM     22  C   UNL     1      -8.502  55.106  46.168  0.00  0.00    +0.000 C 
ENDBRANCH  20  21
ENDBRANCH  18  20
ENDBRANCH   9  18
ENDBRANCH   4   7
BRANCH   1  23
ATOM     23  S   UNL     1      -9.156  50.687  48.467  0.00  0.00    +0.000 S 
ATOM     24  O   UNL     1     -10.366  49.966  48.814  0.00  0.00    +0.000 OA
ATOM     25  O   UNL     1      -7.860  50.078  48.703  0.00  0.00    +0.000 OA
BRANCH  23  26
ATOM     26  C   UNL     1      -9.236  51.178  46.742  0.00  0.00    +0.000 A 
ATOM     27  N   UNL     1     -10.500  51.285  46.244  0.00  0.00    +0.000 NA
ATOM     28  C   UNL     1      -8.078  51.435  46.026  0.00  0.00    +0.000 A 
ATOM     29  C   UNL     1     -10.590  51.705  44.961  0.00  0.00    +0.000 A 
ATOM     30  C   UNL     1      -8.217  51.847  44.703  0.00  0.00    +0.000 A 
ATOM     31  C   UNL     1      -9.493  51.996  44.150  0.00  0.00    +0.000 A 
ATOM     32  C   UNL     1      -9.660  52.450  42.732  0.00  0.00    +0.000 C 
ENDBRANCH  23  26
ENDBRANCH   1  23
TORSDOF 6
ENDMDL
MODEL 2
REMARK VINA RESULT:      -7.0      3.330      5.088
REMARK  Name = 
REMARK  10 active torsions:
REMARK  status: ('A' for Active; 'I' for Inactive)
REMARK    1  A    between atoms: S_1  and  N_4
REMARK    2  A    between atoms: S_1  and  C_5
REMARK    3  A    between atoms: N_10  and  C_13
REMARK    4  A    between atoms: C_14  and  C_17
REMARK    5  A    between atoms: C_16  and  C_20
REMARK    6  A    between atoms: C_20  and  O_24
REMARK    7  A    between atoms: O_24  and  C_27
REMARK    8  A    between atoms: C_25  and  C_28
REMARK    9  A    between atoms: C_25  and  C_29
REMARK   10  A    between atoms: C_27  and  C_30
REMARK                            x       y       z     vdW  Elec       q    Type
REMARK                         _______ _______ _______ _____ _____    ______ ____
ROOT
ATOM      1  N   UNL     1      -7.928  53.280  50.441  0.00  0.00    +0.000 N 
ATOM      2  C   UNL     1      -8.920  54.220  50.655  0.00  0.00    +0.000 C 
ATOM      3  O   UNL     1      -8.784  55.112  51.476  0.00  0.00    +0.000 OA
ATOM      4  N   UNL     1     -10.070  54.000  49.920  0.00  0.00    +0.000 N 
ATOM      5  H   UNL     1      -8.035  52.637  49.704  0.00  0.00    +0.000 HD
ATOM      6  H   UNL     1     -10.134  53.245  49.290  0.00  0.00    +0.000 HD
ENDROOT
BRANCH   4   7
ATOM      7  C   UNL     1     -11.126  54.872  50.098  0.00  0.00    +0.000 A 
ATOM      8  S   UNL     1     -11.849  54.842  51.637  0.00  0.00    +0.000 S 
ATOM      9  C   UNL     1     -11.708  55.787  49.242  0.00  0.00    +0.000 A 
ATOM     10  C   UNL     1     -12.765  56.239  51.283  0.00  0.00    +0.000 A 
ATOM     11  C   UNL     1     -12.591  56.658  49.976  0.00  0.00    +0.000 A 
ATOM     12  C   UNL     1     -13.658  56.910  52.297  0.00  0.00    +0.000 C 
ATOM     13  C   UNL     1     -13.336  57.831  49.408  0.00  0.00    +0.000 C 
ATOM     14  C   UNL     1     -14.690  57.853  51.600  0.00  0.00    +0.000 C 
ATOM     15  C   UNL     1     -13.975  58.688  50.503  0.00  0.00    +0.000 C 
ATOM     16  C   UNL     1     -15.295  58.834  52.620  0.00  0.00    +0.000 C 
ATOM     17  C   UNL     1     -15.844  57.025  50.998  0.00  0.00    +0.000 C 
BRANCH   9  18
ATOM     18  C   UNL     1     -11.522  55.821  47.788  0.00  0.00    +0.000 C 
ATOM     19  O   UNL     1     -12.441  55.729  46.983  0.00  0.00    +0.000 OA
BRANCH  18  20
ATOM     20  O   UNL     1     -10.198  55.765  47.456  0.00  0.00    +0.000 OA
BRANCH  20  21
ATOM     21  C   UNL     1      -9.832  54.847  46.419  0.00  0.00    +0.000 C 
ATOM     22  C   UNL     1      -8.331  54.670  46.404  0.00  0.00    +0.000 C 
ENDBRANCH  20  21
ENDBRANCH  18  20
ENDBRANCH   9  18
ENDBRANCH   4   7
BRANCH   1  23
ATOM     23  S   UNL     1      -6.552  53.197  51.390  0.00  0.00    +0.000 S 
ATOM     24  O   UNL     1      -6.144  54.547  51.731  0.00  0.00    +0.000 OA
ATOM     25  O   UNL     1      -5.638  52.326  50.674  0.00  0.00    +0.000 OA
BRANCH  23  26
ATOM     26  C   UNL     1      -7.082  52.347  52.880  0.00  0.00    +0.000 A 
ATOM     27  N   UNL     1      -8.267  51.684  52.760  0.00  0.00    +0.000 NA
ATOM     28  C   UNL     1      -6.303  52.378  54.026  0.00  0.00    +0.000 A 
ATOM     29  C   UNL     1      -8.662  50.991  53.854  0.00  0.00    +0.000 A 
ATOM     30  C   UNL     1      -6.758  51.666  55.133  0.00  0.00    +0.000 A 
ATOM     31  C   UNL     1      -7.956  50.947  55.055  0.00  0.00    +0.000 A 
ATOM     32  C   UNL     1      -8.453  50.167  56.234  0.00  0.00    +0.000 C 
ENDBRANCH  23  26
ENDBRANCH   1  23
TORSDOF 6
ENDMDL
MODEL 3
REMARK VINA RESULT:      -6.9      3.726      7.546
REMARK  Name = 
REMARK  10 active torsions:
REMARK  status: ('A' for Active; 'I' for Inactive)
REMARK    1  A    between atoms: S_1  and  N_4
REMARK    2  A    between atoms: S_1  and  C_5
REMARK    3  A    between atoms: N_10  and  C_13
REMARK    4  A    between atoms: C_14  and  C_17
REMARK    5  A    between atoms: C_16  and  C_20
REMARK    6  A    between atoms: C_20  and  O_24
REMARK    7  A    between atoms: O_24  and  C_27
REMARK    8  A    between atoms: C_25  and  C_28
REMARK    9  A    between atoms: C_25  and  C_29
REMARK   10  A    between atoms: C_27  and  C_30
REMARK                            x       y       z     vdW  Elec       q    Type
REMARK                         _______ _______ _______ _____ _____    ______ ____
ROOT
ATOM      1  N   UNL     1     -14.486  55.068  51.178  0.00  0.00    +0.000 N 
ATOM      2  C   UNL     1     -13.173  55.234  51.583  0.00  0.00    +0.000 C 
ATOM      3  O   UNL     1     -12.813  56.238  52.176  0.00  0.00    +0.000 OA
ATOM      4  N   UNL     1     -12.331  54.212  51.188  0.00  0.00    +0.000 N 
ATOM      5  H   UNL     1     -14.757  54.205  50.791  0.00  0.00    +0.000 HD
ATOM      6  H   UNL     1     -12.672  53.437  50.685  0.00  0.00    +0.000 HD
ENDROOT
BRANCH   4   7
ATOM      7  C   UNL     1     -10.994  54.314  51.519  0.00  0.00    +0.000 A 
ATOM      8  S   UNL     1     -10.570  53.708  53.050  0.00  0.00    +0.000 S 
ATOM      9  C   UNL     1      -9.916  54.820  50.818  0.00  0.00    +0.000 A 
ATOM     10  C   UNL     1      -8.906  53.851  52.697  0.00  0.00    +0.000 A 
ATOM     11  C   UNL     1      -8.685  54.445  51.467  0.00  0.00    +0.000 A 
ATOM     12  C   UNL     1      -7.826  53.384  53.640  0.00  0.00    +0.000 C 
ATOM     13  C   UNL     1      -7.303  54.735  50.957  0.00  0.00    +0.000 C 
ATOM     14  C   UNL     1      -6.450  54.032  53.284  0.00  0.00    +0.000 C 
ATOM     15  C   UNL     1      -6.231  53.980  51.748  0.00  0.00    +0.000 C 
ATOM     16  C   UNL     1      -5.302  53.252  53.951  0.00  0.00    +0.000 C 
ATOM     17  C   UNL     1      -6.398  55.484  53.801  0.00  0.00    +0.000 C 
BRANCH   9  18
ATOM     18  C   UNL     1     -10.006  55.679  49.634  0.00  0.00    +0.000 C 
ATOM     19  O   UNL     1      -9.736  56.875  49.639  0.00  0.00    +0.000 OA
BRANCH  18  20
ATOM     20  O   UNL     1     -10.613  55.031  48.595  0.00  0.00    +0.000 OA
BRANCH  20  21
ATOM     21  C   UNL     1     -11.605  55.766  47.868  0.00  0.00    +0.000 C 
ATOM     22  C   UNL     1     -11.777  55.164  46.492  0.00  0.00    +0.000 C 
ENDBRANCH  20  21
ENDBRANCH  18  20
ENDBRANCH   9  18
ENDBRANCH   4   7
BRANCH   1  23
ATOM     23  S   UNL     1     -15.629  56.282  51.324  0.00  0.00    +0.000 S 
ATOM     24  O   UNL     1     -15.898  56.496  52.734  0.00  0.00    +0.000 OA
ATOM     25  O   UNL     1     -16.711  55.906  50.433  0.00  0.00    +0.000 OA
BRANCH  23  26
ATOM     26  C   UNL     1     -14.830  57.740  50.649  0.00  0.00    +0.000 A 
ATOM     27  N   UNL     1     -14.759  58.794  51.510  0.00  0.00    +0.000 NA
ATOM     28  C   UNL     1     -14.324  57.735  49.358  0.00  0.00    +0.000 A 
ATOM     29  C   UNL     1     -14.113  59.888  51.042  0.00  0.00    +0.000 A 
ATOM     30  C   UNL     1     -13.684  58.889  48.913  0.00  0.00    +0.000 A 
ATOM     31  C   UNL     1     -13.563  59.991  49.765  0.00  0.00    +0.000 A 
ATOM     32  C   UNL     1     -12.866  61.236  49.305  0.00  0.00    +0.000 C 
ENDBRANCH  23  26
ENDBRANCH   1  23
TORSDOF 6
ENDMDL
MODEL 4
REMARK VINA RESULT:      -6.9      2.928      4.647
REMARK  Name = 
REMARK  10 active torsions:
REMARK  status: ('A' for Active; 'I' for Inactive)
REMARK    1  A    between atoms: S_1  and  N_4
REMARK    2  A    between atoms: S_1  and  C_5
REMARK    3  A    between atoms: N_10  and  C_13
REMARK    4  A    between atoms: C_14  and  C_17
REMARK    5  A    between atoms: C_16  and  C_20
REMARK    6  A    between atoms: C_20  and  O_24
REMARK    7  A    between atoms: O_24  and  C_27
REMARK    8  A    between atoms: C_25  and  C_28
REMARK    9  A    between atoms: C_25  and  C_29
REMARK   10  A    between atoms: C_27  and  C_30
REMARK                            x       y       z     vdW  Elec       q    Type
REMARK                         _______ _______ _______ _____ _____    ______ ____
ROOT
ATOM      1  N   UNL     1      -8.336  52.771  48.970  0.00  0.00    +0.000 N 
ATOM      2  C   UNL     1      -9.215  53.796  49.272  0.00  0.00    +0.000 C 
ATOM      3  O   UNL     1      -8.814  54.900  49.603  0.00  0.00    +0.000 OA
ATOM      4  N   UNL     1     -10.546  53.424  49.234  0.00  0.00    +0.000 N 
ATOM      5  H   UNL     1      -8.696  51.928  48.613  0.00  0.00    +0.000 HD
ATOM      6  H   UNL     1     -10.810  52.509  48.985  0.00  0.00    +0.000 HD
ENDROOT
BRANCH   4   7
ATOM      7  C   UNL     1     -11.492  54.377  49.557  0.00  0.00    +0.000 A 
ATOM      8  S   UNL     1     -11.990  54.394  51.182  0.00  0.00    +0.000 S 
ATOM      9  C   UNL     1     -12.112  55.343  48.789  0.00  0.00    +0.000 A 
ATOM     10  C   UNL     1     -12.830  55.863  50.957  0.00  0.00    +0.000 A 
ATOM     11  C   UNL     1     -12.808  56.278  49.637  0.00  0.00    +0.000 A 
ATOM     12  C   UNL     1     -13.513  56.596  52.084  0.00  0.00    +0.000 C 
ATOM     13  C   UNL     1     -13.528  57.511  49.175  0.00  0.00    +0.000 C 
ATOM     14  C   UNL     1     -14.552  57.626  51.536  0.00  0.00    +0.000 C 
ATOM     15  C   UNL     1     -13.934  58.409  50.347  0.00  0.00    +0.000 C 
ATOM     16  C   UNL     1     -14.926  58.644  52.629  0.00  0.00    +0.000 C 
ATOM     17  C   UNL     1     -15.843  56.899  51.107  0.00  0.00    +0.000 C 
BRANCH   9  18
ATOM     18  C   UNL     1     -12.131  55.374  47.323  0.00  0.00    +0.000 C 
ATOM     19  O   UNL     1     -12.368  56.383  46.667  0.00  0.00    +0.000 OA
BRANCH  18  20
ATOM     20  O   UNL     1     -12.054  54.115  46.798  0.00  0.00    +0.000 OA
BRANCH  20  21
ATOM     21  C   UNL     1     -11.467  53.994  45.497  0.00  0.00    +0.000 C 
ATOM     22  C   UNL     1      -9.960  53.987  45.618  0.00  0.00    +0.000 C 
ENDBRANCH  20  21
ENDBRANCH  18  20
ENDBRANCH   9  18
ENDBRANCH   4   7
BRANCH   1  23
ATOM     23  S   UNL     1      -6.683  52.915  49.189  0.00  0.00    +0.000 S 
ATOM     24  O   UNL     1      -6.217  54.069  48.444  0.00  0.00    +0.000 OA
ATOM     25  O   UNL     1      -6.138  51.601  48.900  0.00  0.00    +0.000 OA
BRANCH  23  26
ATOM     26  C   UNL     1      -6.485  53.227  50.945  0.00  0.00    +0.000 A 
ATOM     27  N   UNL     1      -5.834  54.388  51.242  0.00  0.00    +0.000 NA
ATOM     28  C   UNL     1      -6.990  52.340  51.882  0.00  0.00    +0.000 A 
ATOM     29  C   UNL     1      -5.719  54.673  52.560  0.00  0.00    +0.000 A 
ATOM     30  C   UNL     1      -6.832  52.664  53.228  0.00  0.00    +0.000 A 
ATOM     31  C   UNL     1      -6.192  53.856  53.586  0.00  0.00    +0.000 A 
ATOM     32  C   UNL     1      -6.025  54.226  55.029  0.00  0.00    +0.000 C 
ENDBRANCH  23  26
ENDBRANCH   1  23
TORSDOF 6
ENDMDL
MODEL 5
REMARK VINA RESULT:      -6.7      3.485      8.734
REMARK  Name = 
REMARK  10 active torsions:
REMARK  status: ('A' for Active; 'I' for Inactive)
REMARK    1  A    between atoms: S_1  and  N_4
REMARK    2  A    between atoms: S_1  and  C_5
REMARK    3  A    between atoms: N_10  and  C_13
REMARK    4  A    between atoms: C_14  and  C_17
REMARK    5  A    between atoms: C_16  and  C_20
REMARK    6  A    between atoms: C_20  and  O_24
REMARK    7  A    between atoms: O_24  and  C_27
REMARK    8  A    between atoms: C_25  and  C_28
REMARK    9  A    between atoms: C_25  and  C_29
REMARK   10  A    between atoms: C_27  and  C_30
REMARK                            x       y       z     vdW  Elec       q    Type
REMARK                         _______ _______ _______ _____ _____    ______ ____
ROOT
ATOM      1  N   UNL     1     -11.849  56.921  49.218  0.00  0.00    +0.000 N 
ATOM      2  C   UNL     1     -10.839  55.981  49.123  0.00  0.00    +0.000 C 
ATOM      3  O   UNL     1     -11.087  54.793  48.994  0.00  0.00    +0.000 OA
ATOM      4  N   UNL     1      -9.568  56.505  49.264  0.00  0.00    +0.000 N 
ATOM      5  H   UNL     1     -11.609  57.875  49.223  0.00  0.00    +0.000 HD
ATOM      6  H   UNL     1      -9.429  57.471  49.394  0.00  0.00    +0.000 HD
ENDROOT
BRANCH   4   7
ATOM      7  C   UNL     1      -8.500  55.630  49.218  0.00  0.00    +0.000 A 
ATOM      8  S   UNL     1      -8.130  55.006  47.680  0.00  0.00    +0.000 S 
ATOM      9  C   UNL     1      -7.657  55.168  50.209  0.00  0.00    +0.000 A 
ATOM     10  C   UNL     1      -6.672  54.329  48.255  0.00  0.00    +0.000 A 
ATOM     11  C   UNL     1      -6.525  54.496  49.621  0.00  0.00    +0.000 A 
ATOM     12  C   UNL     1      -5.684  53.629  47.356  0.00  0.00    +0.000 C 
ATOM     13  C   UNL     1      -5.352  53.936  50.372  0.00  0.00    +0.000 C 
ATOM     14  C   UNL     1      -4.704  52.739  48.184  0.00  0.00    +0.000 C 
ATOM     15  C   UNL     1      -4.216  53.523  49.433  0.00  0.00    +0.000 C 
ATOM     16  C   UNL     1      -3.467  52.376  47.342  0.00  0.00    +0.000 C 
ATOM     17  C   UNL     1      -5.398  51.424  48.595  0.00  0.00    +0.000 C 
BRANCH   9  18
ATOM     18  C   UNL     1      -7.909  55.270  51.650  0.00  0.00    +0.000 C 
ATOM     19  O   UNL     1      -7.392  56.116  52.371  0.00  0.00    +0.000 OA
BRANCH  18  20
ATOM     20  O   UNL     1      -8.619  54.197  52.107  0.00  0.00    +0.000 OA
BRANCH  20  21
ATOM     21  C   UNL     1      -9.562  54.448  53.156  0.00  0.00    +0.000 C 
ATOM     22  C   UNL     1     -10.835  55.017  52.570  0.00  0.00    +0.000 C 
ENDBRANCH  20  21
ENDBRANCH  18  20
ENDBRANCH   9  18
ENDBRANCH   4   7
BRANCH   1  23
ATOM     23  S   UNL     1     -13.464  56.495  49.324  0.00  0.00    +0.000 S 
ATOM     24  O   UNL     1     -13.549  55.080  49.633  0.00  0.00    +0.000 OA
ATOM     25  O   UNL     1     -14.081  57.008  48.115  0.00  0.00    +0.000 OA
BRANCH  23  26
ATOM     26  C   UNL     1     -14.090  57.440  50.715  0.00  0.00    +0.000 A 
ATOM     27  N   UNL     1     -14.592  58.664  50.385  0.00  0.00    +0.000 NA
ATOM     28  C   UNL     1     -14.061  56.915  51.998  0.00  0.00    +0.000 A 
ATOM     29  C   UNL     1     -15.119  59.375  51.410  0.00  0.00    +0.000 A 
ATOM     30  C   UNL     1     -14.597  57.690  53.023  0.00  0.00    +0.000 A 
ATOM     31  C   UNL     1     -15.148  58.943  52.735  0.00  0.00    +0.000 A 
ATOM     32  C   UNL     1     -15.739  59.784  53.826  0.00  0.00    +0.000 C 
ENDBRANCH  23  26
ENDBRANCH   1  23
TORSDOF 6
ENDMDL
MODEL 6
REMARK VINA RESULT:      -6.5      3.653      7.976
REMARK  Name = 
REMARK  10 active torsions:
REMARK  status: ('A' for Active; 'I' for Inactive)
REMARK    1  A    between atoms: S_1  and  N_4
REMARK    2  A    between atoms: S_1  and  C_5
REMARK    3  A    between atoms: N_10  and  C_13
REMARK    4  A    between atoms: C_14  and  C_17
REMARK    5  A    between atoms: C_16  and  C_20
REMARK    6  A    between atoms: C_20  and  O_24
REMARK    7  A    between atoms: O_24  and  C_27
REMARK    8  A    between atoms: C_25  and  C_28
REMARK    9  A    between atoms: C_25  and  C_29
REMARK   10  A    between atoms: C_27  and  C_30
REMARK                            x       y       z     vdW  Elec       q    Type
REMARK                         _______ _______ _______ _____ _____    ______ ____
ROOT
ATOM      1  N   UNL     1     -11.465  56.738  49.208  0.00  0.00    +0.000 N 
ATOM      2  C   UNL     1     -10.674  55.813  49.865  0.00  0.00    +0.000 C 
ATOM      3  O   UNL     1     -11.126  54.746  50.246  0.00  0.00    +0.000 OA
ATOM      4  N   UNL     1      -9.383  56.247  50.103  0.00  0.00    +0.000 N 
ATOM      5  H   UNL     1     -11.041  57.542  48.831  0.00  0.00    +0.000 HD
ATOM      6  H   UNL     1      -9.080  57.132  49.796  0.00  0.00    +0.000 HD
ENDROOT
BRANCH   4   7
ATOM      7  C   UNL     1      -8.533  55.399  50.787  0.00  0.00    +0.000 A 
ATOM      8  S   UNL     1      -8.627  55.478  52.482  0.00  0.00    +0.000 S 
ATOM      9  C   UNL     1      -7.610  54.476  50.336  0.00  0.00    +0.000 A 
ATOM     10  C   UNL     1      -7.646  54.091  52.647  0.00  0.00    +0.000 A 
ATOM     11  C   UNL     1      -7.176  53.638  51.426  0.00  0.00    +0.000 A 
ATOM     12  C   UNL     1      -7.337  53.460  53.981  0.00  0.00    +0.000 C 
ATOM     13  C   UNL     1      -6.245  52.467  51.313  0.00  0.00    +0.000 C 
ATOM     14  C   UNL     1      -6.093  52.521  53.885  0.00  0.00    +0.000 C 
ATOM     15  C   UNL     1      -6.197  51.647  52.605  0.00  0.00    +0.000 C 
ATOM     16  C   UNL     1      -6.039  51.576  55.099  0.00  0.00    +0.000 C 
ATOM     17  C   UNL     1      -4.796  53.356  53.878  0.00  0.00    +0.000 C 
BRANCH   9  18
ATOM     18  C   UNL     1      -7.084  54.404  48.969  0.00  0.00    +0.000 C 
ATOM     19  O   UNL     1      -5.943  54.733  48.662  0.00  0.00    +0.000 OA
BRANCH  18  20
ATOM     20  O   UNL     1      -8.073  54.123  48.071  0.00  0.00    +0.000 OA
BRANCH  20  21
ATOM     21  C   UNL     1      -8.147  54.960  46.910  0.00  0.00    +0.000 C 
ATOM     22  C   UNL     1      -9.589  55.103  46.477  0.00  0.00    +0.000 C 
ENDBRANCH  20  21
ENDBRANCH  18  20
ENDBRANCH   9  18
ENDBRANCH   4   7
BRANCH   1  23
ATOM     23  S   UNL     1     -13.117  56.538  49.029  0.00  0.00    +0.000 S 
ATOM     24  O   UNL     1     -13.422  55.121  49.104  0.00  0.00    +0.000 OA
ATOM     25  O   UNL     1     -13.473  57.291  47.841  0.00  0.00    +0.000 OA
BRANCH  23  26
ATOM     26  C   UNL     1     -13.829  57.370  50.451  0.00  0.00    +0.000 A 
ATOM     27  N   UNL     1     -14.339  58.606  50.185  0.00  0.00    +0.000 NA
ATOM     28  C   UNL     1     -13.852  56.754  51.693  0.00  0.00    +0.000 A 
ATOM     29  C   UNL     1     -14.930  59.232  51.230  0.00  0.00    +0.000 A 
ATOM     30  C   UNL     1     -14.453  57.443  52.743  0.00  0.00    +0.000 A 
ATOM     31  C   UNL     1     -15.014  58.705  52.518  0.00  0.00    +0.000 A 
ATOM     32  C   UNL     1     -15.674  59.455  53.635  0.00  0.00    +0.000 C 
ENDBRANCH  23  26
ENDBRANCH   1  23
TORSDOF 6
ENDMDL
MODEL 7
REMARK VINA RESULT:      -6.4      3.577      7.329
REMARK  Name = 
REMARK  10 active torsions:
REMARK  status: ('A' for Active; 'I' for Inactive)
REMARK    1  A    between atoms: S_1  and  N_4
REMARK    2  A    between atoms: S_1  and  C_5
REMARK    3  A    between atoms: N_10  and  C_13
REMARK    4  A    between atoms: C_14  and  C_17
REMARK    5  A    between atoms: C_16  and  C_20
REMARK    6  A    between atoms: C_20  and  O_24
REMARK    7  A    between atoms: O_24  and  C_27
REMARK    8  A    between atoms: C_25  and  C_28
REMARK    9  A    between atoms: C_25  and  C_29
REMARK   10  A    between atoms: C_27  and  C_30
REMARK                            x       y       z     vdW  Elec       q    Type
REMARK                         _______ _______ _______ _____ _____    ______ ____
ROOT
ATOM      1  N   UNL     1      -7.998  56.027  50.806  0.00  0.00    +0.000 N 
ATOM      2  C   UNL     1      -8.451  55.182  49.809  0.00  0.00    +0.000 C 
ATOM      3  O   UNL     1      -8.755  54.024  50.047  0.00  0.00    +0.000 OA
ATOM      4  N   UNL     1      -8.448  55.748  48.548  0.00  0.00    +0.000 N 
ATOM      5  H   UNL     1      -7.858  56.978  50.593  0.00  0.00    +0.000 HD
ATOM      6  H   UNL     1      -8.166  56.681  48.411  0.00  0.00    +0.000 HD
ENDROOT
BRANCH   4   7
ATOM      7  C   UNL     1      -8.852  54.961  47.487  0.00  0.00    +0.000 A 
ATOM      8  S   UNL     1      -7.606  54.163  46.650  0.00  0.00    +0.000 S 
ATOM      9  C   UNL     1     -10.108  54.692  46.977  0.00  0.00    +0.000 A 
ATOM     10  C   UNL     1      -8.733  53.228  45.772  0.00  0.00    +0.000 A 
ATOM     11  C   UNL     1     -10.038  53.593  46.047  0.00  0.00    +0.000 A 
ATOM     12  C   UNL     1      -8.321  52.142  44.810  0.00  0.00    +0.000 C 
ATOM     13  C   UNL     1     -11.209  52.957  45.355  0.00  0.00    +0.000 C 
ATOM     14  C   UNL     1      -9.490  51.778  43.840  0.00  0.00    +0.000 C 
ATOM     15  C   UNL     1     -10.815  51.661  44.641  0.00  0.00    +0.000 C 
ATOM     16  C   UNL     1      -9.225  50.420  43.165  0.00  0.00    +0.000 C 
ATOM     17  C   UNL     1      -9.609  52.842  42.729  0.00  0.00    +0.000 C 
BRANCH   9  18
ATOM     18  C   UNL     1     -11.322  55.459  47.273  0.00  0.00    +0.000 C 
ATOM     19  O   UNL     1     -11.901  56.159  46.450  0.00  0.00    +0.000 OA
BRANCH  18  20
ATOM     20  O   UNL     1     -11.600  55.452  48.611  0.00  0.00    +0.000 OA
BRANCH  20  21
ATOM     21  C   UNL     1     -12.940  55.785  48.992  0.00  0.00    +0.000 C 
ATOM     22  C   UNL     1     -12.957  57.143  49.657  0.00  0.00    +0.000 C 
ENDBRANCH  20  21
ENDBRANCH  18  20
ENDBRANCH   9  18
ENDBRANCH   4   7
BRANCH   1  23
ATOM     23  S   UNL     1      -7.682  55.493  52.360  0.00  0.00    +0.000 S 
ATOM     24  O   UNL     1      -8.892  54.903  52.901  0.00  0.00    +0.000 OA
ATOM     25  O   UNL     1      -7.062  56.616  53.038  0.00  0.00    +0.000 OA
BRANCH  23  26
ATOM     26  C   UNL     1      -6.442  54.211  52.153  0.00  0.00    +0.000 A 
ATOM     27  N   UNL     1      -6.774  53.011  52.708  0.00  0.00    +0.000 NA
ATOM     28  C   UNL     1      -5.269  54.467  51.461  0.00  0.00    +0.000 A 
ATOM     29  C   UNL     1      -5.879  52.013  52.520  0.00  0.00    +0.000 A 
ATOM     30  C   UNL     1      -4.369  53.416  51.308  0.00  0.00    +0.000 A 
ATOM     31  C   UNL     1      -4.673  52.156  51.836  0.00  0.00    +0.000 A 
ATOM     32  C   UNL     1      -3.720  51.012  51.670  0.00  0.00    +0.000 C 
ENDBRANCH  23  26
ENDBRANCH   1  23
TORSDOF 6
ENDMDL
MODEL 8
REMARK VINA RESULT:      -6.3      3.121      4.601
REMARK  Name = 
REMARK  10 active torsions:
REMARK  status: ('A' for Active; 'I' for Inactive)
REMARK    1  A    between atoms: S_1  and  N_4
REMARK    2  A    between atoms: S_1  and  C_5
REMARK    3  A    between atoms: N_10  and  C_13
REMARK    4  A    between atoms: C_14  and  C_17
REMARK    5  A    between atoms: C_16  and  C_20
REMARK    6  A    between atoms: C_20  and  O_24
REMARK    7  A    between atoms: O_24  and  C_27
REMARK    8  A    between atoms: C_25  and  C_28
REMARK    9  A    between atoms: C_25  and  C_29
REMARK   10  A    between atoms: C_27  and  C_30
REMARK                            x       y       z     vdW  Elec       q    Type
REMARK                         _______ _______ _______ _____ _____    ______ ____
ROOT
ATOM      1  N   UNL     1      -9.028  53.177  47.550  0.00  0.00    +0.000 N 
ATOM      2  C   UNL     1      -9.688  54.240  48.140  0.00  0.00    +0.000 C 
ATOM      3  O   UNL     1      -9.203  55.360  48.154  0.00  0.00    +0.000 OA
ATOM      4  N   UNL     1     -10.875  53.892  48.757  0.00  0.00    +0.000 N 
ATOM      5  H   UNL     1      -9.494  52.313  47.473  0.00  0.00    +0.000 HD
ATOM      6  H   UNL     1     -11.204  52.964  48.737  0.00  0.00    +0.000 HD
ENDROOT
BRANCH   4   7
ATOM      7  C   UNL     1     -11.582  54.887  49.403  0.00  0.00    +0.000 A 
ATOM      8  S   UNL     1     -12.632  55.794  48.421  0.00  0.00    +0.000 S 
ATOM      9  C   UNL     1     -11.599  55.282  50.726  0.00  0.00    +0.000 A 
ATOM     10  C   UNL     1     -13.335  56.542  49.785  0.00  0.00    +0.000 A 
ATOM     11  C   UNL     1     -12.707  56.174  50.962  0.00  0.00    +0.000 A 
ATOM     12  C   UNL     1     -14.500  57.495  49.687  0.00  0.00    +0.000 C 
ATOM     13  C   UNL     1     -13.104  56.744  52.292  0.00  0.00    +0.000 C 
ATOM     14  C   UNL     1     -14.636  58.352  50.986  0.00  0.00    +0.000 C 
ATOM     15  C   UNL     1     -14.466  57.441  52.232  0.00  0.00    +0.000 C 
ATOM     16  C   UNL     1     -16.032  58.997  51.060  0.00  0.00    +0.000 C 
ATOM     17  C   UNL     1     -13.591  59.487  50.985  0.00  0.00    +0.000 C 
BRANCH   9  18
ATOM     18  C   UNL     1     -10.597  54.915  51.731  0.00  0.00    +0.000 C 
ATOM     19  O   UNL     1     -10.822  54.163  52.673  0.00  0.00    +0.000 OA
BRANCH  18  20
ATOM     20  O   UNL     1      -9.463  55.665  51.598  0.00  0.00    +0.000 OA
BRANCH  20  21
ATOM     21  C   UNL     1      -8.216  54.960  51.631  0.00  0.00    +0.000 C 
ATOM     22  C   UNL     1      -7.411  55.405  52.831  0.00  0.00    +0.000 C 
ENDBRANCH  20  21
ENDBRANCH  18  20
ENDBRANCH   9  18
ENDBRANCH   4   7
BRANCH   1  23
ATOM     23  S   UNL     1      -7.467  53.306  46.961  0.00  0.00    +0.000 S 
ATOM     24  O   UNL     1      -7.381  54.497  46.138  0.00  0.00    +0.000 OA
ATOM     25  O   UNL     1      -7.160  52.009  46.388  0.00  0.00    +0.000 OA
BRANCH  23  26
ATOM     26  C   UNL     1      -6.449  53.525  48.423  0.00  0.00    +0.000 A 
ATOM     27  N   UNL     1      -6.408  52.442  49.250  0.00  0.00    +0.000 NA
ATOM     28  C   UNL     1      -5.766  54.712  48.638  0.00  0.00    +0.000 A 
ATOM     29  C   UNL     1      -5.605  52.563  50.333  0.00  0.00    +0.000 A 
ATOM     30  C   UNL     1      -4.966  54.798  49.775  0.00  0.00    +0.000 A 
ATOM     31  C   UNL     1      -4.869  53.706  50.643  0.00  0.00    +0.000 A 
ATOM     32  C   UNL     1      -4.004  53.779  51.865  0.00  0.00    +0.000 C 
ENDBRANCH  23  26
ENDBRANCH   1  23
TORSDOF 6
ENDMDL
MODEL 9
REMARK VINA RESULT:      -6.2      2.694      3.968
REMARK  Name = 
REMARK  10 active torsions:
REMARK  status: ('A' for Active; 'I' for Inactive)
REMARK    1  A    between atoms: S_1  and  N_4
REMARK    2  A    between atoms: S_1  and  C_5
REMARK    3  A    between atoms: N_10  and  C_13
REMARK    4  A    between atoms: C_14  and  C_17
REMARK    5  A    between atoms: C_16  and  C_20
REMARK    6  A    between atoms: C_20  and  O_24
REMARK    7  A    between atoms: O_24  and  C_27
REMARK    8  A    between atoms: C_25  and  C_28
REMARK    9  A    between atoms: C_25  and  C_29
REMARK   10  A    between atoms: C_27  and  C_30
REMARK                            x       y       z     vdW  Elec       q    Type
REMARK                         _______ _______ _______ _____ _____    ______ ____
ROOT
ATOM      1  N   UNL     1      -9.133  53.788  45.687  0.00  0.00    +0.000 N 
ATOM      2  C   UNL     1      -9.985  54.089  46.735  0.00  0.00    +0.000 C 
ATOM      3  O   UNL     1     -10.501  53.211  47.406  0.00  0.00    +0.000 OA
ATOM      4  N   UNL     1     -10.237  55.440  46.883  0.00  0.00    +0.000 N 
ATOM      5  H   UNL     1      -8.661  54.523  45.234  0.00  0.00    +0.000 HD
ATOM      6  H   UNL     1      -9.812  56.104  46.293  0.00  0.00    +0.000 HD
ENDROOT
BRANCH   4   7
ATOM      7  C   UNL     1     -11.106  55.828  47.885  0.00  0.00    +0.000 A 
ATOM      8  S   UNL     1     -12.688  56.194  47.381  0.00  0.00    +0.000 S 
ATOM      9  C   UNL     1     -10.924  55.968  49.247  0.00  0.00    +0.000 A 
ATOM     10  C   UNL     1     -13.233  56.274  48.997  0.00  0.00    +0.000 A 
ATOM     11  C   UNL     1     -12.198  56.120  49.903  0.00  0.00    +0.000 A 
ATOM     12  C   UNL     1     -14.679  56.496  49.363  0.00  0.00    +0.000 C 
ATOM     13  C   UNL     1     -12.414  56.212  51.385  0.00  0.00    +0.000 C 
ATOM     14  C   UNL     1     -14.817  56.969  50.845  0.00  0.00    +0.000 C 
ATOM     15  C   UNL     1     -13.896  56.110  51.755  0.00  0.00    +0.000 C 
ATOM     16  C   UNL     1     -16.265  56.786  51.334  0.00  0.00    +0.000 C 
ATOM     17  C   UNL     1     -14.465  58.466  50.960  0.00  0.00    +0.000 C 
BRANCH   9  18
ATOM     18  C   UNL     1      -9.625  56.032  49.924  0.00  0.00    +0.000 C 
ATOM     19  O   UNL     1      -8.754  56.849  49.648  0.00  0.00    +0.000 OA
BRANCH  18  20
ATOM     20  O   UNL     1      -9.438  54.954  50.743  0.00  0.00    +0.000 OA
BRANCH  20  21
ATOM     21  C   UNL     1      -8.702  55.183  51.951  0.00  0.00    +0.000 C 
ATOM     22  C   UNL     1      -9.552  54.809  53.143  0.00  0.00    +0.000 C 
ENDBRANCH  20  21
ENDBRANCH  18  20
ENDBRANCH   9  18
ENDBRANCH   4   7
BRANCH   1  23
ATOM     23  S   UNL     1      -8.876  52.220  45.163  0.00  0.00    +0.000 S 
ATOM     24  O   UNL     1      -8.276  52.267  43.843  0.00  0.00    +0.000 OA
ATOM     25  O   UNL     1     -10.140  51.533  45.358  0.00  0.00    +0.000 OA
BRANCH  23  26
ATOM     26  C   UNL     1      -7.688  51.544  46.326  0.00  0.00    +0.000 A 
ATOM     27  N   UNL     1      -6.772  52.443  46.784  0.00  0.00    +0.000 NA
ATOM     28  C   UNL     1      -7.754  50.214  46.711  0.00  0.00    +0.000 A 
ATOM     29  C   UNL     1      -5.897  51.971  47.703  0.00  0.00    +0.000 A 
ATOM     30  C   UNL     1      -6.822  49.767  47.645  0.00  0.00    +0.000 A 
ATOM     31  C   UNL     1      -5.875  50.656  48.165  0.00  0.00    +0.000 A 
ATOM     32  C   UNL     1      -4.874  50.193  49.179  0.00  0.00    +0.000 C 
ENDBRANCH  23  26
ENDBRANCH   1  23
TORSDOF 6
ENDMDL
