MODEL 1
REMARK VINA RESULT:      -7.4      0.000      0.000
REMARK  Name = 
REMARK  10 active torsions:
REMARK  status: ('A' for Active; 'I' for Inactive)
REMARK    1  A    between atoms: S_1  and  N_4
REMARK    2  A    between atoms: S_1  and  C_5
REMARK    3  A    between atoms: N_10  and  C_13
REMARK    4  A    between atoms: C_14  and  C_17
REMARK    5  A    between atoms: C_16  and  C_20
REMARK    6  A    between atoms: C_20  and  O_24
REMARK    7  A    between atoms: O_24  and  C_27
REMARK    8  A    between atoms: C_25  and  C_28
REMARK    9  A    between atoms: C_25  and  C_29
REMARK   10  A    between atoms: C_27  and  C_30
REMARK                            x       y       z     vdW  Elec       q    Type
REMARK                         _______ _______ _______ _____ _____    ______ ____
ROOT
ATOM      1  N   UNL     1      -9.734  51.706  48.705  0.00  0.00    +0.000 N 
ATOM      2  C   UNL     1     -10.799  52.569  48.943  0.00  0.00    +0.000 C 
ATOM      3  O   UNL     1     -11.902  52.386  48.460  0.00  0.00    +0.000 OA
ATOM      4  N   UNL     1     -10.448  53.687  49.681  0.00  0.00    +0.000 N 
ATOM      5  H   UNL     1      -8.869  51.912  49.126  0.00  0.00    +0.000 HD
ATOM      6  H   UNL     1      -9.535  53.799  50.032  0.00  0.00    +0.000 HD
ENDROOT
BRANCH   4   7
ATOM      7  C   UNL     1     -11.423  54.643  49.909  0.00  0.00    +0.000 A 
ATOM      8  S   UNL     1     -12.117  54.614  51.459  0.00  0.00    +0.000 S 
ATOM      9  C   UNL     1     -11.901  55.664  49.109  0.00  0.00    +0.000 A 
ATOM     10  C   UNL     1     -12.878  56.118  51.196  0.00  0.00    +0.000 A 
ATOM     11  C   UNL     1     -12.688  56.582  49.904  0.00  0.00    +0.000 A 
ATOM     12  C   UNL     1     -13.659  56.836  52.271  0.00  0.00    +0.000 C 
ATOM     13  C   UNL     1     -13.312  57.862  49.426  0.00  0.00    +0.000 C 
ATOM     14  C   UNL     1     -14.609  57.906  51.652  0.00  0.00    +0.000 C 
ATOM     15  C   UNL     1     -13.842  58.718  50.578  0.00  0.00    +0.000 C 
ATOM     16  C   UNL     1     -15.091  58.891  52.734  0.00  0.00    +0.000 C 
ATOM     17  C   UNL     1     -15.851  57.226  51.043  0.00  0.00    +0.000 C 
BRANCH   9  18
ATOM     18  C   UNL     1     -11.615  55.751  47.677  0.00  0.00    +0.000 C 
ATOM     19  O   UNL     1     -12.489  55.881  46.828  0.00  0.00    +0.000 OA
BRANCH  18  20
ATOM     20  O   UNL     1     -10.282  55.677  47.409  0.00  0.00    +0.000 OA
BRANCH  20  21
ATOM     21  C   UNL     1      -9.885  54.857  46.307  0.00  0.00    +0.000 C 
ATOM     22  C   UNL     1      -8.385  54.962  46.112  0.00  0.00    +0.000 C 
ENDBRANCH  20  21
ENDBRANCH  18  20
ENDBRANCH   9  18
ENDBRANCH   4   7
BRANCH   1  23
ATOM     23  S   UNL     1      -9.834  50.342  47.749  0.00  0.00    +0.000 S 
ATOM     24  O   UNL     1     -11.135  49.723  47.865  0.00  0.00    +0.000 OA
ATOM     25  O   UNL     1      -8.632  49.588  48.047  0.00  0.00    +0.000 OA
BRANCH  23  26
ATOM     26  C   UNL     1      -9.655  50.988  46.099  0.00  0.00    +0.000 A 
ATOM     27  C   UNL     1     -10.789  51.337  45.358  0.00  0.00    +0.000 A 
ATOM     28  C   UNL     1      -8.380  51.214  45.576  0.00  0.00    +0.000 A 
ATOM     29  C   UNL     1     -10.643  51.879  44.078  0.00  0.00    +0.000 A 
ATOM     30  C   UNL     1      -8.239  51.746  44.290  0.00  0.00    +0.000 A 
ATOM     31  C   UNL     1      -9.368  52.077  43.529  0.00  0.00    +0.000 A 
ATOM     32  C   UNL     1      -9.201  52.632  42.145  0.00  0.00    +0.000 C 
ENDBRANCH  23  26
ENDBRANCH   1  23
TORSDOF 6
ENDMDL
MODEL 2
REMARK VINA RESULT:      -6.9      3.275      4.933
REMARK  Name = 
REMARK  10 active torsions:
REMARK  status: ('A' for Active; 'I' for Inactive)
REMARK    1  A    between atoms: S_1  and  N_4
REMARK    2  A    between atoms: S_1  and  C_5
REMARK    3  A    between atoms: N_10  and  C_13
REMARK    4  A    between atoms: C_14  and  C_17
REMARK    5  A    between atoms: C_16  and  C_20
REMARK    6  A    between atoms: C_20  and  O_24
REMARK    7  A    between atoms: O_24  and  C_27
REMARK    8  A    between atoms: C_25  and  C_28
REMARK    9  A    between atoms: C_25  and  C_29
REMARK   10  A    between atoms: C_27  and  C_30
REMARK                            x       y       z     vdW  Elec       q    Type
REMARK                         _______ _______ _______ _____ _____    ______ ____
ROOT
ATOM      1  N   UNL     1      -8.419  52.639  48.957  0.00  0.00    +0.000 N 
ATOM      2  C   UNL     1      -9.306  53.682  49.205  0.00  0.00    +0.000 C 
ATOM      3  O   UNL     1      -8.926  54.791  49.538  0.00  0.00    +0.000 OA
ATOM      4  N   UNL     1     -10.637  53.303  49.140  0.00  0.00    +0.000 N 
ATOM      5  H   UNL     1      -8.794  51.768  48.692  0.00  0.00    +0.000 HD
ATOM      6  H   UNL     1     -10.892  52.386  48.887  0.00  0.00    +0.000 HD
ENDROOT
BRANCH   4   7
ATOM      7  C   UNL     1     -11.596  54.253  49.444  0.00  0.00    +0.000 A 
ATOM      8  S   UNL     1     -12.094  54.285  51.068  0.00  0.00    +0.000 S 
ATOM      9  C   UNL     1     -12.189  55.228  48.665  0.00  0.00    +0.000 A 
ATOM     10  C   UNL     1     -12.913  55.763  50.835  0.00  0.00    +0.000 A 
ATOM     11  C   UNL     1     -12.893  56.170  49.510  0.00  0.00    +0.000 A 
ATOM     12  C   UNL     1     -13.571  56.518  51.965  0.00  0.00    +0.000 C 
ATOM     13  C   UNL     1     -13.597  57.416  49.056  0.00  0.00    +0.000 C 
ATOM     14  C   UNL     1     -14.613  57.543  51.421  0.00  0.00    +0.000 C 
ATOM     15  C   UNL     1     -14.000  58.317  50.226  0.00  0.00    +0.000 C 
ATOM     16  C   UNL     1     -14.979  58.570  52.510  0.00  0.00    +0.000 C 
ATOM     17  C   UNL     1     -15.905  56.816  51.001  0.00  0.00    +0.000 C 
BRANCH   9  18
ATOM     18  C   UNL     1     -12.083  55.253  47.206  0.00  0.00    +0.000 C 
ATOM     19  O   UNL     1     -12.073  56.290  46.554  0.00  0.00    +0.000 OA
BRANCH  18  20
ATOM     20  O   UNL     1     -11.992  54.004  46.672  0.00  0.00    +0.000 OA
BRANCH  20  21
ATOM     21  C   UNL     1     -11.440  53.898  45.357  0.00  0.00    +0.000 C 
ATOM     22  C   UNL     1      -9.936  53.728  45.452  0.00  0.00    +0.000 C 
ENDBRANCH  20  21
ENDBRANCH  18  20
ENDBRANCH   9  18
ENDBRANCH   4   7
BRANCH   1  23
ATOM     23  S   UNL     1      -6.762  52.774  49.081  0.00  0.00    +0.000 S 
ATOM     24  O   UNL     1      -6.272  53.883  48.293  0.00  0.00    +0.000 OA
ATOM     25  O   UNL     1      -6.258  51.434  48.854  0.00  0.00    +0.000 OA
BRANCH  23  26
ATOM     26  C   UNL     1      -6.511  53.146  50.805  0.00  0.00    +0.000 A 
ATOM     27  C   UNL     1      -5.781  54.280  51.176  0.00  0.00    +0.000 A 
ATOM     28  C   UNL     1      -7.106  52.345  51.782  0.00  0.00    +0.000 A 
ATOM     29  C   UNL     1      -5.618  54.590  52.529  0.00  0.00    +0.000 A 
ATOM     30  C   UNL     1      -6.933  52.653  53.135  0.00  0.00    +0.000 A 
ATOM     31  C   UNL     1      -6.183  53.773  53.519  0.00  0.00    +0.000 A 
ATOM     32  C   UNL     1      -5.991  54.080  54.976  0.00  0.00    +0.000 C 
ENDBRANCH  23  26
ENDBRANCH   1  23
TORSDOF 6
ENDMDL
MODEL 3
REMARK VINA RESULT:      -6.9      1.843      2.776
REMARK  Name = 
REMARK  10 active torsions:
REMARK  status: ('A' for Active; 'I' for Inactive)
REMARK    1  A    between atoms: S_1  and  N_4
REMARK    2  A    between atoms: S_1  and  C_5
REMARK    3  A    between atoms: N_10  and  C_13
REMARK    4  A    between atoms: C_14  and  C_17
REMARK    5  A    between atoms: C_16  and  C_20
REMARK    6  A    between atoms: C_20  and  O_24
REMARK    7  A    between atoms: O_24  and  C_27
REMARK    8  A    between atoms: C_25  and  C_28
REMARK    9  A    between atoms: C_25  and  C_29
REMARK   10  A    between atoms: C_27  and  C_30
REMARK                            x       y       z     vdW  Elec       q    Type
REMARK                         _______ _______ _______ _____ _____    ______ ____
ROOT
ATOM      1  N   UNL     1      -8.126  53.335  49.353  0.00  0.00    +0.000 N 
ATOM      2  C   UNL     1      -9.233  54.176  49.426  0.00  0.00    +0.000 C 
ATOM      3  O   UNL     1      -9.295  55.220  48.800  0.00  0.00    +0.000 OA
ATOM      4  N   UNL     1     -10.182  53.761  50.345  0.00  0.00    +0.000 N 
ATOM      5  H   UNL     1      -8.140  52.507  49.885  0.00  0.00    +0.000 HD
ATOM      6  H   UNL     1     -10.073  52.918  50.842  0.00  0.00    +0.000 HD
ENDROOT
BRANCH   4   7
ATOM      7  C   UNL     1     -11.286  54.571  50.543  0.00  0.00    +0.000 A 
ATOM      8  S   UNL     1     -11.503  55.123  52.135  0.00  0.00    +0.000 S 
ATOM      9  C   UNL     1     -12.227  55.060  49.657  0.00  0.00    +0.000 A 
ATOM     10  C   UNL     1     -12.696  56.235  51.636  0.00  0.00    +0.000 A 
ATOM     11  C   UNL     1     -12.997  56.110  50.289  0.00  0.00    +0.000 A 
ATOM     12  C   UNL     1     -13.328  57.231  52.579  0.00  0.00    +0.000 C 
ATOM     13  C   UNL     1     -14.059  56.949  49.637  0.00  0.00    +0.000 C 
ATOM     14  C   UNL     1     -14.670  57.774  52.000  0.00  0.00    +0.000 C 
ATOM     15  C   UNL     1     -14.478  58.137  50.506  0.00  0.00    +0.000 C 
ATOM     16  C   UNL     1     -15.100  59.053  52.744  0.00  0.00    +0.000 C 
ATOM     17  C   UNL     1     -15.788  56.727  52.173  0.00  0.00    +0.000 C 
BRANCH   9  18
ATOM     18  C   UNL     1     -12.373  54.553  48.292  0.00  0.00    +0.000 C 
ATOM     19  O   UNL     1     -12.423  55.283  47.310  0.00  0.00    +0.000 OA
BRANCH  18  20
ATOM     20  O   UNL     1     -12.437  53.194  48.249  0.00  0.00    +0.000 OA
BRANCH  20  21
ATOM     21  C   UNL     1     -11.666  52.538  47.238  0.00  0.00    +0.000 C 
ATOM     22  C   UNL     1     -12.542  51.549  46.494  0.00  0.00    +0.000 C 
ENDBRANCH  20  21
ENDBRANCH  18  20
ENDBRANCH   9  18
ENDBRANCH   4   7
BRANCH   1  23
ATOM     23  S   UNL     1      -6.778  53.645  48.421  0.00  0.00    +0.000 S 
ATOM     24  O   UNL     1      -5.740  52.672  48.672  0.00  0.00    +0.000 OA
ATOM     25  O   UNL     1      -6.517  55.060  48.599  0.00  0.00    +0.000 OA
BRANCH  23  26
ATOM     26  C   UNL     1      -7.375  53.425  46.757  0.00  0.00    +0.000 A 
ATOM     27  C   UNL     1      -7.774  52.159  46.319  0.00  0.00    +0.000 A 
ATOM     28  C   UNL     1      -7.513  54.533  45.916  0.00  0.00    +0.000 A 
ATOM     29  C   UNL     1      -8.277  51.996  45.025  0.00  0.00    +0.000 A 
ATOM     30  C   UNL     1      -8.007  54.365  44.619  0.00  0.00    +0.000 A 
ATOM     31  C   UNL     1      -8.387  53.095  44.161  0.00  0.00    +0.000 A 
ATOM     32  C   UNL     1      -8.900  52.928  42.761  0.00  0.00    +0.000 C 
ENDBRANCH  23  26
ENDBRANCH   1  23
TORSDOF 6
ENDMDL
MODEL 4
REMARK VINA RESULT:      -6.9      3.583      5.350
REMARK  Name = 
REMARK  10 active torsions:
REMARK  status: ('A' for Active; 'I' for Inactive)
REMARK    1  A    between atoms: S_1  and  N_4
REMARK    2  A    between atoms: S_1  and  C_5
REMARK    3  A    between atoms: N_10  and  C_13
REMARK    4  A    between atoms: C_14  and  C_17
REMARK    5  A    between atoms: C_16  and  C_20
REMARK    6  A    between atoms: C_20  and  O_24
REMARK    7  A    between atoms: O_24  and  C_27
REMARK    8  A    between atoms: C_25  and  C_28
REMARK    9  A    between atoms: C_25  and  C_29
REMARK   10  A    between atoms: C_27  and  C_30
REMARK                            x       y       z     vdW  Elec       q    Type
REMARK                         _______ _______ _______ _____ _____    ______ ____
ROOT
ATOM      1  N   UNL     1      -8.256  52.811  50.150  0.00  0.00    +0.000 N 
ATOM      2  C   UNL     1      -9.166  53.837  50.386  0.00  0.00    +0.000 C 
ATOM      3  O   UNL     1      -8.974  54.692  51.232  0.00  0.00    +0.000 OA
ATOM      4  N   UNL     1     -10.332  53.721  49.647  0.00  0.00    +0.000 N 
ATOM      5  H   UNL     1      -8.473  52.153  49.451  0.00  0.00    +0.000 HD
ATOM      6  H   UNL     1     -10.447  52.997  48.989  0.00  0.00    +0.000 HD
ENDROOT
BRANCH   4   7
ATOM      7  C   UNL     1     -11.331  54.654  49.865  0.00  0.00    +0.000 A 
ATOM      8  S   UNL     1     -12.032  54.617  51.412  0.00  0.00    +0.000 S 
ATOM      9  C   UNL     1     -11.830  55.658  49.057  0.00  0.00    +0.000 A 
ATOM     10  C   UNL     1     -12.829  56.099  51.137  0.00  0.00    +0.000 A 
ATOM     11  C   UNL     1     -12.645  56.561  49.843  0.00  0.00    +0.000 A 
ATOM     12  C   UNL     1     -13.632  56.803  52.204  0.00  0.00    +0.000 C 
ATOM     13  C   UNL     1     -13.297  57.822  49.354  0.00  0.00    +0.000 C 
ATOM     14  C   UNL     1     -14.606  57.846  51.574  0.00  0.00    +0.000 C 
ATOM     15  C   UNL     1     -13.854  58.671  50.499  0.00  0.00    +0.000 C 
ATOM     16  C   UNL     1     -15.117  58.825  52.648  0.00  0.00    +0.000 C 
ATOM     17  C   UNL     1     -15.828  57.132  50.963  0.00  0.00    +0.000 C 
BRANCH   9  18
ATOM     18  C   UNL     1     -11.540  55.744  47.625  0.00  0.00    +0.000 C 
ATOM     19  O   UNL     1     -12.411  55.868  46.773  0.00  0.00    +0.000 OA
BRANCH  18  20
ATOM     20  O   UNL     1     -10.206  55.678  47.363  0.00  0.00    +0.000 OA
BRANCH  20  21
ATOM     21  C   UNL     1      -9.791  54.781  46.328  0.00  0.00    +0.000 C 
ATOM     22  C   UNL     1      -8.294  54.903  46.122  0.00  0.00    +0.000 C 
ENDBRANCH  20  21
ENDBRANCH  18  20
ENDBRANCH   9  18
ENDBRANCH   4   7
BRANCH   1  23
ATOM     23  S   UNL     1      -6.821  52.629  50.979  0.00  0.00    +0.000 S 
ATOM     24  O   UNL     1      -6.197  53.910  51.223  0.00  0.00    +0.000 OA
ATOM     25  O   UNL     1      -6.106  51.588  50.267  0.00  0.00    +0.000 OA
BRANCH  23  26
ATOM     26  C   UNL     1      -7.336  51.940  52.539  0.00  0.00    +0.000 A 
ATOM     27  C   UNL     1      -8.419  51.056  52.589  0.00  0.00    +0.000 A 
ATOM     28  C   UNL     1      -6.611  52.226  53.698  0.00  0.00    +0.000 A 
ATOM     29  C   UNL     1      -8.797  50.488  53.809  0.00  0.00    +0.000 A 
ATOM     30  C   UNL     1      -6.999  51.663  54.918  0.00  0.00    +0.000 A 
ATOM     31  C   UNL     1      -8.098  50.795  54.984  0.00  0.00    +0.000 A 
ATOM     32  C   UNL     1      -8.512  50.212  56.304  0.00  0.00    +0.000 C 
ENDBRANCH  23  26
ENDBRANCH   1  23
TORSDOF 6
ENDMDL
MODEL 5
REMARK VINA RESULT:      -6.8      3.733      8.161
REMARK  Name = 
REMARK  10 active torsions:
REMARK  status: ('A' for Active; 'I' for Inactive)
REMARK    1  A    between atoms: S_1  and  N_4
REMARK    2  A    between atoms: S_1  and  C_5
REMARK    3  A    between atoms: N_10  and  C_13
REMARK    4  A    between atoms: C_14  and  C_17
REMARK    5  A    between atoms: C_16  and  C_20
REMARK    6  A    between atoms: C_20  and  O_24
REMARK    7  A    between atoms: O_24  and  C_27
REMARK    8  A    between atoms: C_25  and  C_28
REMARK    9  A    between atoms: C_25  and  C_29
REMARK   10  A    between atoms: C_27  and  C_30
REMARK                            x       y       z     vdW  Elec       q    Type
REMARK                         _______ _______ _______ _____ _____    ______ ____
ROOT
ATOM      1  N   UNL     1     -11.691  56.729  48.923  0.00  0.00    +0.000 N 
ATOM      2  C   UNL     1     -10.686  55.867  49.352  0.00  0.00    +0.000 C 
ATOM      3  O   UNL     1     -10.927  54.750  49.775  0.00  0.00    +0.000 OA
ATOM      4  N   UNL     1      -9.426  56.442  49.347  0.00  0.00    +0.000 N 
ATOM      5  H   UNL     1     -11.427  57.618  48.593  0.00  0.00    +0.000 HD
ATOM      6  H   UNL     1      -9.288  57.359  49.014  0.00  0.00    +0.000 HD
ENDROOT
BRANCH   4   7
ATOM      7  C   UNL     1      -8.369  55.688  49.826  0.00  0.00    +0.000 A 
ATOM      8  S   UNL     1      -7.962  55.963  51.452  0.00  0.00    +0.000 S 
ATOM      9  C   UNL     1      -7.610  54.701  49.226  0.00  0.00    +0.000 A 
ATOM     10  C   UNL     1      -6.944  54.595  51.476  0.00  0.00    +0.000 A 
ATOM     11  C   UNL     1      -6.837  54.000  50.229  0.00  0.00    +0.000 A 
ATOM     12  C   UNL     1      -6.257  54.112  52.731  0.00  0.00    +0.000 C 
ATOM     13  C   UNL     1      -5.951  52.809  49.996  0.00  0.00    +0.000 C 
ATOM     14  C   UNL     1      -5.061  53.172  52.386  0.00  0.00    +0.000 C 
ATOM     15  C   UNL     1      -5.499  52.155  51.303  0.00  0.00    +0.000 C 
ATOM     16  C   UNL     1      -4.624  52.377  53.631  0.00  0.00    +0.000 C 
ATOM     17  C   UNL     1      -3.853  54.001  51.906  0.00  0.00    +0.000 C 
BRANCH   9  18
ATOM     18  C   UNL     1      -7.631  54.448  47.785  0.00  0.00    +0.000 C 
ATOM     19  O   UNL     1      -6.652  54.604  47.065  0.00  0.00    +0.000 OA
BRANCH  18  20
ATOM     20  O   UNL     1      -8.848  54.019  47.352  0.00  0.00    +0.000 OA
BRANCH  20  21
ATOM     21  C   UNL     1      -9.355  54.608  46.151  0.00  0.00    +0.000 C 
ATOM     22  C   UNL     1     -10.833  54.298  46.019  0.00  0.00    +0.000 C 
ENDBRANCH  20  21
ENDBRANCH  18  20
ENDBRANCH   9  18
ENDBRANCH   4   7
BRANCH   1  23
ATOM     23  S   UNL     1     -13.315  56.347  48.935  0.00  0.00    +0.000 S 
ATOM     24  O   UNL     1     -13.514  54.938  49.189  0.00  0.00    +0.000 OA
ATOM     25  O   UNL     1     -13.852  56.961  47.736  0.00  0.00    +0.000 OA
BRANCH  23  26
ATOM     26  C   UNL     1     -13.940  57.271  50.324  0.00  0.00    +0.000 A 
ATOM     27  C   UNL     1     -14.266  58.622  50.175  0.00  0.00    +0.000 A 
ATOM     28  C   UNL     1     -14.174  56.624  51.540  0.00  0.00    +0.000 A 
ATOM     29  C   UNL     1     -14.792  59.335  51.257  0.00  0.00    +0.000 A 
ATOM     30  C   UNL     1     -14.691  57.342  52.623  0.00  0.00    +0.000 A 
ATOM     31  C   UNL     1     -14.998  58.704  52.492  0.00  0.00    +0.000 A 
ATOM     32  C   UNL     1     -15.536  59.465  53.668  0.00  0.00    +0.000 C 
ENDBRANCH  23  26
ENDBRANCH   1  23
TORSDOF 6
ENDMDL
MODEL 6
REMARK VINA RESULT:      -6.7      3.829      8.163
REMARK  Name = 
REMARK  10 active torsions:
REMARK  status: ('A' for Active; 'I' for Inactive)
REMARK    1  A    between atoms: S_1  and  N_4
REMARK    2  A    between atoms: S_1  and  C_5
REMARK    3  A    between atoms: N_10  and  C_13
REMARK    4  A    between atoms: C_14  and  C_17
REMARK    5  A    between atoms: C_16  and  C_20
REMARK    6  A    between atoms: C_20  and  O_24
REMARK    7  A    between atoms: O_24  and  C_27
REMARK    8  A    between atoms: C_25  and  C_28
REMARK    9  A    between atoms: C_25  and  C_29
REMARK   10  A    between atoms: C_27  and  C_30
REMARK                            x       y       z     vdW  Elec       q    Type
REMARK                         _______ _______ _______ _____ _____    ______ ____
ROOT
ATOM      1  N   UNL     1     -11.458  56.771  49.275  0.00  0.00    +0.000 N 
ATOM      2  C   UNL     1     -10.636  55.816  49.866  0.00  0.00    +0.000 C 
ATOM      3  O   UNL     1     -11.059  54.734  50.231  0.00  0.00    +0.000 OA
ATOM      4  N   UNL     1      -9.343  56.261  50.085  0.00  0.00    +0.000 N 
ATOM      5  H   UNL     1     -11.052  57.625  49.003  0.00  0.00    +0.000 HD
ATOM      6  H   UNL     1      -9.056  57.156  49.790  0.00  0.00    +0.000 HD
ENDROOT
BRANCH   4   7
ATOM      7  C   UNL     1      -8.468  55.409  50.736  0.00  0.00    +0.000 A 
ATOM      8  S   UNL     1      -8.566  55.427  52.431  0.00  0.00    +0.000 S 
ATOM      9  C   UNL     1      -7.554  54.495  50.245  0.00  0.00    +0.000 A 
ATOM     10  C   UNL     1      -7.586  54.036  52.549  0.00  0.00    +0.000 A 
ATOM     11  C   UNL     1      -7.106  53.628  51.314  0.00  0.00    +0.000 A 
ATOM     12  C   UNL     1      -7.297  53.350  53.862  0.00  0.00    +0.000 C 
ATOM     13  C   UNL     1      -6.177  52.455  51.176  0.00  0.00    +0.000 C 
ATOM     14  C   UNL     1      -6.042  52.430  53.749  0.00  0.00    +0.000 C 
ATOM     15  C   UNL     1      -6.127  51.599  52.444  0.00  0.00    +0.000 C 
ATOM     16  C   UNL     1      -5.987  51.445  54.932  0.00  0.00    +0.000 C 
ATOM     17  C   UNL     1      -4.756  53.279  53.778  0.00  0.00    +0.000 C 
BRANCH   9  18
ATOM     18  C   UNL     1      -7.142  54.459  48.841  0.00  0.00    +0.000 C 
ATOM     19  O   UNL     1      -6.001  54.708  48.473  0.00  0.00    +0.000 OA
BRANCH  18  20
ATOM     20  O   UNL     1      -8.165  54.114  48.011  0.00  0.00    +0.000 OA
BRANCH  20  21
ATOM     21  C   UNL     1      -8.427  54.985  46.907  0.00  0.00    +0.000 C 
ATOM     22  C   UNL     1      -9.856  54.794  46.439  0.00  0.00    +0.000 C 
ENDBRANCH  20  21
ENDBRANCH  18  20
ENDBRANCH   9  18
ENDBRANCH   4   7
BRANCH   1  23
ATOM     23  S   UNL     1     -13.089  56.556  48.999  0.00  0.00    +0.000 S 
ATOM     24  O   UNL     1     -13.442  55.155  49.044  0.00  0.00    +0.000 OA
ATOM     25  O   UNL     1     -13.378  57.349  47.820  0.00  0.00    +0.000 OA
BRANCH  23  26
ATOM     26  C   UNL     1     -13.849  57.379  50.385  0.00  0.00    +0.000 A 
ATOM     27  C   UNL     1     -13.821  56.784  51.651  0.00  0.00    +0.000 A 
ATOM     28  C   UNL     1     -14.404  58.649  50.219  0.00  0.00    +0.000 A 
ATOM     29  C   UNL     1     -14.384  57.450  52.744  0.00  0.00    +0.000 A 
ATOM     30  C   UNL     1     -14.976  59.307  51.313  0.00  0.00    +0.000 A 
ATOM     31  C   UNL     1     -14.976  58.711  52.581  0.00  0.00    +0.000 A 
ATOM     32  C   UNL     1     -15.608  59.422  53.742  0.00  0.00    +0.000 C 
ENDBRANCH  23  26
ENDBRANCH   1  23
TORSDOF 6
ENDMDL
MODEL 7
REMARK VINA RESULT:      -6.6      3.117      8.053
REMARK  Name = 
REMARK  10 active torsions:
REMARK  status: ('A' for Active; 'I' for Inactive)
REMARK    1  A    between atoms: S_1  and  N_4
REMARK    2  A    between atoms: S_1  and  C_5
REMARK    3  A    between atoms: N_10  and  C_13
REMARK    4  A    between atoms: C_14  and  C_17
REMARK    5  A    between atoms: C_16  and  C_20
REMARK    6  A    between atoms: C_20  and  O_24
REMARK    7  A    between atoms: O_24  and  C_27
REMARK    8  A    between atoms: C_25  and  C_28
REMARK    9  A    between atoms: C_25  and  C_29
REMARK   10  A    between atoms: C_27  and  C_30
REMARK                            x       y       z     vdW  Elec       q    Type
REMARK                         _______ _______ _______ _____ _____    ______ ____
ROOT
ATOM      1  N   UNL     1     -12.299  57.126  49.098  0.00  0.00    +0.000 N 
ATOM      2  C   UNL     1     -11.853  55.958  49.708  0.00  0.00    +0.000 C 
ATOM      3  O   UNL     1     -12.623  55.127  50.158  0.00  0.00    +0.000 OA
ATOM      4  N   UNL     1     -10.476  55.896  49.841  0.00  0.00    +0.000 N 
ATOM      5  H   UNL     1     -11.624  57.755  48.756  0.00  0.00    +0.000 HD
ATOM      6  H   UNL     1      -9.898  56.606  49.478  0.00  0.00    +0.000 HD
ENDROOT
BRANCH   4   7
ATOM      7  C   UNL     1      -9.939  54.805  50.503  0.00  0.00    +0.000 A 
ATOM      8  S   UNL     1      -9.879  54.942  52.195  0.00  0.00    +0.000 S 
ATOM      9  C   UNL     1      -9.485  53.588  50.031  0.00  0.00    +0.000 A 
ATOM     10  C   UNL     1      -9.495  53.288  52.361  0.00  0.00    +0.000 A 
ATOM     11  C   UNL     1      -9.312  52.668  51.135  0.00  0.00    +0.000 A 
ATOM     12  C   UNL     1      -9.379  52.609  53.704  0.00  0.00    +0.000 C 
ATOM     13  C   UNL     1      -8.914  51.223  51.033  0.00  0.00    +0.000 C 
ATOM     14  C   UNL     1      -8.582  51.273  53.588  0.00  0.00    +0.000 C 
ATOM     15  C   UNL     1      -9.086  50.476  52.358  0.00  0.00    +0.000 C 
ATOM     16  C   UNL     1      -8.806  50.401  54.838  0.00  0.00    +0.000 C 
ATOM     17  C   UNL     1      -7.073  51.562  53.475  0.00  0.00    +0.000 C 
BRANCH   9  18
ATOM     18  C   UNL     1      -9.238  53.328  48.612  0.00  0.00    +0.000 C 
ATOM     19  O   UNL     1      -8.141  53.005  48.173  0.00  0.00    +0.000 OA
BRANCH  18  20
ATOM     20  O   UNL     1     -10.359  53.479  47.855  0.00  0.00    +0.000 OA
BRANCH  20  21
ATOM     21  C   UNL     1     -10.224  54.208  46.632  0.00  0.00    +0.000 C 
ATOM     22  C   UNL     1     -11.566  54.795  46.240  0.00  0.00    +0.000 C 
ENDBRANCH  20  21
ENDBRANCH  18  20
ENDBRANCH   9  18
ENDBRANCH   4   7
BRANCH   1  23
ATOM     23  S   UNL     1     -13.908  57.525  48.910  0.00  0.00    +0.000 S 
ATOM     24  O   UNL     1     -14.660  56.410  48.379  0.00  0.00    +0.000 OA
ATOM     25  O   UNL     1     -13.899  58.800  48.220  0.00  0.00    +0.000 OA
BRANCH  23  26
ATOM     26  C   UNL     1     -14.449  57.833  50.579  0.00  0.00    +0.000 A 
ATOM     27  C   UNL     1     -14.227  59.083  51.165  0.00  0.00    +0.000 A 
ATOM     28  C   UNL     1     -15.158  56.850  51.272  0.00  0.00    +0.000 A 
ATOM     29  C   UNL     1     -14.686  59.334  52.462  0.00  0.00    +0.000 A 
ATOM     30  C   UNL     1     -15.607  57.101  52.573  0.00  0.00    +0.000 A 
ATOM     31  C   UNL     1     -15.369  58.342  53.180  0.00  0.00    +0.000 A 
ATOM     32  C   UNL     1     -15.842  58.591  54.582  0.00  0.00    +0.000 C 
ENDBRANCH  23  26
ENDBRANCH   1  23
TORSDOF 6
ENDMDL
MODEL 8
REMARK VINA RESULT:      -6.5      3.005      8.053
REMARK  Name = 
REMARK  10 active torsions:
REMARK  status: ('A' for Active; 'I' for Inactive)
REMARK    1  A    between atoms: S_1  and  N_4
REMARK    2  A    between atoms: S_1  and  C_5
REMARK    3  A    between atoms: N_10  and  C_13
REMARK    4  A    between atoms: C_14  and  C_17
REMARK    5  A    between atoms: C_16  and  C_20
REMARK    6  A    between atoms: C_20  and  O_24
REMARK    7  A    between atoms: O_24  and  C_27
REMARK    8  A    between atoms: C_25  and  C_28
REMARK    9  A    between atoms: C_25  and  C_29
REMARK   10  A    between atoms: C_27  and  C_30
REMARK                            x       y       z     vdW  Elec       q    Type
REMARK                         _______ _______ _______ _____ _____    ______ ____
ROOT
ATOM      1  N   UNL     1      -8.390  56.283  49.144  0.00  0.00    +0.000 N 
ATOM      2  C   UNL     1      -8.598  55.133  48.388  0.00  0.00    +0.000 C 
ATOM      3  O   UNL     1      -8.154  54.049  48.723  0.00  0.00    +0.000 OA
ATOM      4  N   UNL     1      -9.254  55.370  47.192  0.00  0.00    +0.000 N 
ATOM      5  H   UNL     1      -8.777  57.127  48.816  0.00  0.00    +0.000 HD
ATOM      6  H   UNL     1      -9.575  56.271  46.958  0.00  0.00    +0.000 HD
ENDROOT
BRANCH   4   7
ATOM      7  C   UNL     1      -9.443  54.300  46.335  0.00  0.00    +0.000 A 
ATOM      8  S   UNL     1      -8.214  54.065  45.187  0.00  0.00    +0.000 S 
ATOM      9  C   UNL     1     -10.439  53.343  46.280  0.00  0.00    +0.000 A 
ATOM     10  C   UNL     1      -8.840  52.537  44.761  0.00  0.00    +0.000 A 
ATOM     11  C   UNL     1     -10.030  52.258  45.413  0.00  0.00    +0.000 A 
ATOM     12  C   UNL     1      -8.148  51.616  43.784  0.00  0.00    +0.000 C 
ATOM     13  C   UNL     1     -10.795  50.991  45.154  0.00  0.00    +0.000 C 
ATOM     14  C   UNL     1      -9.135  50.541  43.235  0.00  0.00    +0.000 C 
ATOM     15  C   UNL     1      -9.959  49.950  44.406  0.00  0.00    +0.000 C 
ATOM     16  C   UNL     1      -8.361  49.385  42.572  0.00  0.00    +0.000 C 
ATOM     17  C   UNL     1     -10.061  51.163  42.171  0.00  0.00    +0.000 C 
BRANCH   9  18
ATOM     18  C   UNL     1     -11.699  53.464  47.016  0.00  0.00    +0.000 C 
ATOM     19  O   UNL     1     -12.395  52.500  47.312  0.00  0.00    +0.000 OA
BRANCH  18  20
ATOM     20  O   UNL     1     -11.993  54.755  47.330  0.00  0.00    +0.000 OA
BRANCH  20  21
ATOM     21  C   UNL     1     -12.415  55.017  48.672  0.00  0.00    +0.000 C 
ATOM     22  C   UNL     1     -12.314  56.504  48.953  0.00  0.00    +0.000 C 
ENDBRANCH  20  21
ENDBRANCH  18  20
ENDBRANCH   9  18
ENDBRANCH   4   7
BRANCH   1  23
ATOM     23  S   UNL     1      -7.527  56.319  50.571  0.00  0.00    +0.000 S 
ATOM     24  O   UNL     1      -7.539  57.643  51.150  0.00  0.00    +0.000 OA
ATOM     25  O   UNL     1      -6.272  55.661  50.265  0.00  0.00    +0.000 OA
BRANCH  23  26
ATOM     26  C   UNL     1      -8.450  55.224  51.632  0.00  0.00    +0.000 A 
ATOM     27  C   UNL     1      -9.832  55.383  51.766  0.00  0.00    +0.000 A 
ATOM     28  C   UNL     1      -7.800  54.164  52.269  0.00  0.00    +0.000 A 
ATOM     29  C   UNL     1     -10.559  54.499  52.570  0.00  0.00    +0.000 A 
ATOM     30  C   UNL     1      -8.529  53.289  53.080  0.00  0.00    +0.000 A 
ATOM     31  C   UNL     1      -9.912  53.453  53.242  0.00  0.00    +0.000 A 
ATOM     32  C   UNL     1     -10.677  52.515  54.129  0.00  0.00    +0.000 C 
ENDBRANCH  23  26
ENDBRANCH   1  23
TORSDOF 6
ENDMDL
MODEL 9
REMARK VINA RESULT:      -6.3      3.870      8.232
REMARK  Name = 
REMARK  10 active torsions:
REMARK  status: ('A' for Active; 'I' for Inactive)
REMARK    1  A    between atoms: S_1  and  N_4
REMARK    2  A    between atoms: S_1  and  C_5
REMARK    3  A    between atoms: N_10  and  C_13
REMARK    4  A    between atoms: C_14  and  C_17
REMARK    5  A    between atoms: C_16  and  C_20
REMARK    6  A    between atoms: C_20  and  O_24
REMARK    7  A    between atoms: O_24  and  C_27
REMARK    8  A    between atoms: C_25  and  C_28
REMARK    9  A    between atoms: C_25  and  C_29
REMARK   10  A    between atoms: C_27  and  C_30
REMARK                            x       y       z     vdW  Elec       q    Type
REMARK                         _______ _______ _______ _____ _____    ______ ____
ROOT
ATOM      1  N   UNL     1     -11.863  56.655  49.650  0.00  0.00    +0.000 N 
ATOM      2  C   UNL     1     -11.420  55.516  50.317  0.00  0.00    +0.000 C 
ATOM      3  O   UNL     1     -12.171  54.600  50.602  0.00  0.00    +0.000 OA
ATOM      4  N   UNL     1     -10.093  55.585  50.705  0.00  0.00    +0.000 N 
ATOM      5  H   UNL     1     -11.204  57.358  49.450  0.00  0.00    +0.000 HD
ATOM      6  H   UNL     1      -9.533  56.360  50.467  0.00  0.00    +0.000 HD
ENDROOT
BRANCH   4   7
ATOM      7  C   UNL     1      -9.578  54.531  51.439  0.00  0.00    +0.000 A 
ATOM      8  S   UNL     1     -10.003  54.520  53.084  0.00  0.00    +0.000 S 
ATOM      9  C   UNL     1      -8.815  53.443  51.059  0.00  0.00    +0.000 A 
ATOM     10  C   UNL     1      -9.405  52.934  53.275  0.00  0.00    +0.000 A 
ATOM     11  C   UNL     1      -8.795  52.462  52.123  0.00  0.00    +0.000 A 
ATOM     12  C   UNL     1      -9.544  52.159  54.563  0.00  0.00    +0.000 C 
ATOM     13  C   UNL     1      -8.146  51.108  52.071  0.00  0.00    +0.000 C 
ATOM     14  C   UNL     1      -8.532  50.973  54.615  0.00  0.00    +0.000 C 
ATOM     15  C   UNL     1      -8.542  50.226  53.257  0.00  0.00    +0.000 C 
ATOM     16  C   UNL     1      -8.935  49.967  55.710  0.00  0.00    +0.000 C 
ATOM     17  C   UNL     1      -7.119  51.493  54.946  0.00  0.00    +0.000 C 
BRANCH   9  18
ATOM     18  C   UNL     1      -8.153  53.354  49.757  0.00  0.00    +0.000 C 
ATOM     19  O   UNL     1      -8.766  53.328  48.696  0.00  0.00    +0.000 OA
BRANCH  18  20
ATOM     20  O   UNL     1      -6.797  53.310  49.867  0.00  0.00    +0.000 OA
BRANCH  20  21
ATOM     21  C   UNL     1      -6.149  54.476  50.383  0.00  0.00    +0.000 C 
ATOM     22  C   UNL     1      -5.042  54.900  49.439  0.00  0.00    +0.000 C 
ENDBRANCH  20  21
ENDBRANCH  18  20
ENDBRANCH   9  18
ENDBRANCH   4   7
BRANCH   1  23
ATOM     23  S   UNL     1     -13.441  56.900  49.170  0.00  0.00    +0.000 S 
ATOM     24  O   UNL     1     -14.110  55.643  48.924  0.00  0.00    +0.000 OA
ATOM     25  O   UNL     1     -13.363  57.906  48.128  0.00  0.00    +0.000 OA
BRANCH  23  26
ATOM     26  C   UNL     1     -14.185  57.673  50.593  0.00  0.00    +0.000 A 
ATOM     27  C   UNL     1     -14.291  56.966  51.795  0.00  0.00    +0.000 A 
ATOM     28  C   UNL     1     -14.592  59.007  50.525  0.00  0.00    +0.000 A 
ATOM     29  C   UNL     1     -14.840  57.588  52.920  0.00  0.00    +0.000 A 
ATOM     30  C   UNL     1     -15.150  59.622  51.650  0.00  0.00    +0.000 A 
ATOM     31  C   UNL     1     -15.285  58.916  52.854  0.00  0.00    +0.000 A 
ATOM     32  C   UNL     1     -15.901  59.585  54.047  0.00  0.00    +0.000 C 
ENDBRANCH  23  26
ENDBRANCH   1  23
TORSDOF 6
ENDMDL
