MODEL 1
REMARK VINA RESULT:      -7.3      0.000      0.000
REMARK  Name = 
REMARK  9 active torsions:
REMARK  status: ('A' for Active; 'I' for Inactive)
REMARK    1  A    between atoms: S_1  and  N_4
REMARK    2  A    between atoms: S_1  and  C_5
REMARK    3  A    between atoms: N_10  and  C_13
REMARK    4  A    between atoms: C_14  and  C_17
REMARK    5  A    between atoms: C_16  and  C_20
REMARK    6  A    between atoms: C_20  and  O_24
REMARK    7  A    between atoms: O_24  and  C_27
REMARK    8  A    between atoms: C_26  and  C_28
REMARK    9  A    between atoms: C_27  and  C_29
REMARK                            x       y       z     vdW  Elec       q    Type
REMARK                         _______ _______ _______ _____ _____    ______ ____
ROOT
ATOM      1  N   UNL     1      -9.929  53.952  52.632  0.00  0.00    +0.000 N 
ATOM      2  C   UNL     1     -10.619  54.987  52.015  0.00  0.00    +0.000 C 
ATOM      3  O   UNL     1     -10.038  55.967  51.557  0.00  0.00    +0.000 OA
ATOM      4  N   UNL     1     -11.991  54.845  52.037  0.00  0.00    +0.000 N 
ATOM      5  H   UNL     1     -10.449  53.198  52.993  0.00  0.00    +0.000 HD
ATOM      6  H   UNL     1     -12.416  54.057  52.447  0.00  0.00    +0.000 HD
ENDROOT
BRANCH   4   7
ATOM      7  C   UNL     1     -12.747  55.851  51.460  0.00  0.00    +0.000 A 
ATOM      8  S   UNL     1     -13.684  56.748  52.556  0.00  0.00    +0.000 S 
ATOM      9  C   UNL     1     -12.875  56.273  50.146  0.00  0.00    +0.000 A 
ATOM     10  C   UNL     1     -14.053  57.902  51.360  0.00  0.00    +0.000 A 
ATOM     11  C   UNL     1     -13.567  57.545  50.114  0.00  0.00    +0.000 A 
ATOM     12  C   UNL     1     -14.802  59.164  51.671  0.00  0.00    +0.000 C 
ATOM     13  C   UNL     1     -13.811  58.401  48.899  0.00  0.00    +0.000 C 
ATOM     14  C   UNL     1     -15.260  59.863  50.378  0.00  0.00    +0.000 C 
ATOM     15  C   UNL     1     -14.191  59.853  49.266  0.00  0.00    +0.000 C 
ATOM     16  C   UNL     1     -12.956  60.679  49.646  0.00  0.00    +0.000 C 
BRANCH   9  17
ATOM     17  C   UNL     1     -12.427  55.512  48.970  0.00  0.00    +0.000 C 
ATOM     18  O   UNL     1     -12.778  54.361  48.737  0.00  0.00    +0.000 OA
BRANCH  17  19
ATOM     19  O   UNL     1     -11.457  56.169  48.271  0.00  0.00    +0.000 OA
BRANCH  19  20
ATOM     20  C   UNL     1     -10.175  55.546  48.152  0.00  0.00    +0.000 C 
ATOM     21  C   UNL     1      -9.882  55.196  46.709  0.00  0.00    +0.000 C 
ENDBRANCH  19  20
ENDBRANCH  17  19
ENDBRANCH   9  17
ENDBRANCH   4   7
BRANCH   1  22
ATOM     22  S   UNL     1      -8.268  53.912  52.795  0.00  0.00    +0.000 S 
ATOM     23  O   UNL     1      -7.855  52.707  53.476  0.00  0.00    +0.000 OA
ATOM     24  O   UNL     1      -7.916  55.211  53.334  0.00  0.00    +0.000 OA
BRANCH  22  25
ATOM     25  C   UNL     1      -7.695  53.863  51.109  0.00  0.00    +0.000 A 
ATOM     26  C   UNL     1      -8.112  52.840  50.253  0.00  0.00    +0.000 A 
ATOM     27  C   UNL     1      -6.878  54.890  50.626  0.00  0.00    +0.000 A 
ATOM     28  C   UNL     1      -7.677  52.826  48.925  0.00  0.00    +0.000 A 
ATOM     29  C   UNL     1      -6.441  54.869  49.302  0.00  0.00    +0.000 A 
ATOM     30  C   UNL     1      -6.831  53.835  48.443  0.00  0.00    +0.000 A 
ATOM     31  C   UNL     1      -6.342  53.826  47.022  0.00  0.00    +0.000 C 
ENDBRANCH  22  25
ENDBRANCH   1  22
TORSDOF 6
ENDMDL
MODEL 2
REMARK VINA RESULT:      -7.2      2.974      3.771
REMARK  Name = 
REMARK  9 active torsions:
REMARK  status: ('A' for Active; 'I' for Inactive)
REMARK    1  A    between atoms: S_1  and  N_4
REMARK    2  A    between atoms: S_1  and  C_5
REMARK    3  A    between atoms: N_10  and  C_13
REMARK    4  A    between atoms: C_14  and  C_17
REMARK    5  A    between atoms: C_16  and  C_20
REMARK    6  A    between atoms: C_20  and  O_24
REMARK    7  A    between atoms: O_24  and  C_27
REMARK    8  A    between atoms: C_26  and  C_28
REMARK    9  A    between atoms: C_27  and  C_29
REMARK                            x       y       z     vdW  Elec       q    Type
REMARK                         _______ _______ _______ _____ _____    ______ ____
ROOT
ATOM      1  N   UNL     1      -8.329  54.036  48.629  0.00  0.00    +0.000 N 
ATOM      2  C   UNL     1      -9.631  54.219  49.072  0.00  0.00    +0.000 C 
ATOM      3  O   UNL     1     -10.441  53.296  49.095  0.00  0.00    +0.000 OA
ATOM      4  N   UNL     1      -9.940  55.522  49.403  0.00  0.00    +0.000 N 
ATOM      5  H   UNL     1      -7.728  54.817  48.621  0.00  0.00    +0.000 HD
ATOM      6  H   UNL     1      -9.268  56.238  49.337  0.00  0.00    +0.000 HD
ENDROOT
BRANCH   4   7
ATOM      7  C   UNL     1     -11.230  55.785  49.831  0.00  0.00    +0.000 A 
ATOM      8  S   UNL     1     -11.455  55.670  51.511  0.00  0.00    +0.000 S 
ATOM      9  C   UNL     1     -12.379  56.138  49.141  0.00  0.00    +0.000 A 
ATOM     10  C   UNL     1     -13.003  56.370  51.393  0.00  0.00    +0.000 A 
ATOM     11  C   UNL     1     -13.389  56.580  50.080  0.00  0.00    +0.000 A 
ATOM     12  C   UNL     1     -13.811  56.729  52.604  0.00  0.00    +0.000 C 
ATOM     13  C   UNL     1     -14.739  57.153  49.739  0.00  0.00    +0.000 C 
ATOM     14  C   UNL     1     -15.266  57.052  52.216  0.00  0.00    +0.000 C 
ATOM     15  C   UNL     1     -15.383  57.897  50.930  0.00  0.00    +0.000 C 
ATOM     16  C   UNL     1     -14.789  59.300  51.106  0.00  0.00    +0.000 C 
BRANCH   9  17
ATOM     17  C   UNL     1     -12.555  56.022  47.685  0.00  0.00    +0.000 C 
ATOM     18  O   UNL     1     -13.037  56.909  46.991  0.00  0.00    +0.000 OA
BRANCH  17  19
ATOM     19  O   UNL     1     -12.278  54.766  47.232  0.00  0.00    +0.000 OA
BRANCH  19  20
ATOM     20  C   UNL     1     -11.694  54.633  45.933  0.00  0.00    +0.000 C 
ATOM     21  C   UNL     1     -11.788  53.203  45.447  0.00  0.00    +0.000 C 
ENDBRANCH  19  20
ENDBRANCH  17  19
ENDBRANCH   9  17
ENDBRANCH   4   7
BRANCH   1  22
ATOM     22  S   UNL     1      -7.722  52.570  48.111  0.00  0.00    +0.000 S 
ATOM     23  O   UNL     1      -8.443  51.478  48.723  0.00  0.00    +0.000 OA
ATOM     24  O   UNL     1      -6.286  52.681  48.280  0.00  0.00    +0.000 OA
BRANCH  22  25
ATOM     25  C   UNL     1      -8.054  52.588  46.361  0.00  0.00    +0.000 A 
ATOM     26  C   UNL     1      -8.403  51.408  45.698  0.00  0.00    +0.000 A 
ATOM     27  C   UNL     1      -8.029  53.801  45.664  0.00  0.00    +0.000 A 
ATOM     28  C   UNL     1      -8.688  51.439  44.331  0.00  0.00    +0.000 A 
ATOM     29  C   UNL     1      -8.307  53.826  44.299  0.00  0.00    +0.000 A 
ATOM     30  C   UNL     1      -8.632  52.646  43.619  0.00  0.00    +0.000 A 
ATOM     31  C   UNL     1      -8.921  52.694  42.145  0.00  0.00    +0.000 C 
ENDBRANCH  22  25
ENDBRANCH   1  22
TORSDOF 6
ENDMDL
MODEL 3
REMARK VINA RESULT:      -7.2      2.672      7.745
REMARK  Name = 
REMARK  9 active torsions:
REMARK  status: ('A' for Active; 'I' for Inactive)
REMARK    1  A    between atoms: S_1  and  N_4
REMARK    2  A    between atoms: S_1  and  C_5
REMARK    3  A    between atoms: N_10  and  C_13
REMARK    4  A    between atoms: C_14  and  C_17
REMARK    5  A    between atoms: C_16  and  C_20
REMARK    6  A    between atoms: C_20  and  O_24
REMARK    7  A    between atoms: O_24  and  C_27
REMARK    8  A    between atoms: C_26  and  C_28
REMARK    9  A    between atoms: C_27  and  C_29
REMARK                            x       y       z     vdW  Elec       q    Type
REMARK                         _______ _______ _______ _____ _____    ______ ____
ROOT
ATOM      1  N   UNL     1     -10.614  56.098  48.518  0.00  0.00    +0.000 N 
ATOM      2  C   UNL     1      -9.705  55.565  49.422  0.00  0.00    +0.000 C 
ATOM      3  O   UNL     1     -10.031  54.704  50.235  0.00  0.00    +0.000 OA
ATOM      4  N   UNL     1      -8.451  56.138  49.368  0.00  0.00    +0.000 N 
ATOM      5  H   UNL     1     -10.299  56.795  47.899  0.00  0.00    +0.000 HD
ATOM      6  H   UNL     1      -8.243  56.852  48.722  0.00  0.00    +0.000 HD
ENDROOT
BRANCH   4   7
ATOM      7  C   UNL     1      -7.497  55.674  50.257  0.00  0.00    +0.000 A 
ATOM      8  S   UNL     1      -7.584  56.357  51.809  0.00  0.00    +0.000 S 
ATOM      9  C   UNL     1      -6.483  54.739  50.119  0.00  0.00    +0.000 A 
ATOM     10  C   UNL     1      -6.471  55.220  52.417  0.00  0.00    +0.000 A 
ATOM     11  C   UNL     1      -5.952  54.406  51.424  0.00  0.00    +0.000 A 
ATOM     12  C   UNL     1      -6.140  55.128  53.877  0.00  0.00    +0.000 C 
ATOM     13  C   UNL     1      -4.919  53.354  51.729  0.00  0.00    +0.000 C 
ATOM     14  C   UNL     1      -4.902  54.242  54.103  0.00  0.00    +0.000 C 
ATOM     15  C   UNL     1      -4.889  52.972  53.226  0.00  0.00    +0.000 C 
ATOM     16  C   UNL     1      -6.029  52.012  53.586  0.00  0.00    +0.000 C 
BRANCH   9  17
ATOM     17  C   UNL     1      -5.989  54.217  48.835  0.00  0.00    +0.000 C 
ATOM     18  O   UNL     1      -4.808  54.230  48.510  0.00  0.00    +0.000 OA
BRANCH  17  19
ATOM     19  O   UNL     1      -7.007  53.875  47.993  0.00  0.00    +0.000 OA
BRANCH  19  20
ATOM     20  C   UNL     1      -6.858  54.172  46.602  0.00  0.00    +0.000 C 
ATOM     21  C   UNL     1      -8.126  54.785  46.047  0.00  0.00    +0.000 C 
ENDBRANCH  19  20
ENDBRANCH  17  19
ENDBRANCH   9  17
ENDBRANCH   4   7
BRANCH   1  22
ATOM     22  S   UNL     1     -12.211  55.623  48.421  0.00  0.00    +0.000 S 
ATOM     23  O   UNL     1     -12.345  54.221  48.743  0.00  0.00    +0.000 OA
ATOM     24  O   UNL     1     -12.671  56.123  47.140  0.00  0.00    +0.000 OA
BRANCH  22  25
ATOM     25  C   UNL     1     -13.003  56.596  49.686  0.00  0.00    +0.000 A 
ATOM     26  C   UNL     1     -13.409  57.905  49.417  0.00  0.00    +0.000 A 
ATOM     27  C   UNL     1     -13.278  56.019  50.931  0.00  0.00    +0.000 A 
ATOM     28  C   UNL     1     -14.053  58.650  50.408  0.00  0.00    +0.000 A 
ATOM     29  C   UNL     1     -13.915  56.768  51.920  0.00  0.00    +0.000 A 
ATOM     30  C   UNL     1     -14.302  58.090  51.670  0.00  0.00    +0.000 A 
ATOM     31  C   UNL     1     -14.980  58.882  52.752  0.00  0.00    +0.000 C 
ENDBRANCH  22  25
ENDBRANCH   1  22
TORSDOF 6
ENDMDL
MODEL 4
REMARK VINA RESULT:      -7.2      2.615      4.003
REMARK  Name = 
REMARK  9 active torsions:
REMARK  status: ('A' for Active; 'I' for Inactive)
REMARK    1  A    between atoms: S_1  and  N_4
REMARK    2  A    between atoms: S_1  and  C_5
REMARK    3  A    between atoms: N_10  and  C_13
REMARK    4  A    between atoms: C_14  and  C_17
REMARK    5  A    between atoms: C_16  and  C_20
REMARK    6  A    between atoms: C_20  and  O_24
REMARK    7  A    between atoms: O_24  and  C_27
REMARK    8  A    between atoms: C_26  and  C_28
REMARK    9  A    between atoms: C_27  and  C_29
REMARK                            x       y       z     vdW  Elec       q    Type
REMARK                         _______ _______ _______ _____ _____    ______ ____
ROOT
ATOM      1  N   UNL     1      -9.740  53.682  47.254  0.00  0.00    +0.000 N 
ATOM      2  C   UNL     1     -10.214  54.695  48.076  0.00  0.00    +0.000 C 
ATOM      3  O   UNL     1      -9.520  55.665  48.371  0.00  0.00    +0.000 OA
ATOM      4  N   UNL     1     -11.480  54.472  48.578  0.00  0.00    +0.000 N 
ATOM      5  H   UNL     1     -10.337  52.922  47.063  0.00  0.00    +0.000 HD
ATOM      6  H   UNL     1     -11.987  53.662  48.341  0.00  0.00    +0.000 HD
ENDROOT
BRANCH   4   7
ATOM      7  C   UNL     1     -12.010  55.430  49.425  0.00  0.00    +0.000 A 
ATOM      8  S   UNL     1     -12.823  56.697  48.640  0.00  0.00    +0.000 S 
ATOM      9  C   UNL     1     -12.009  55.543  50.807  0.00  0.00    +0.000 A 
ATOM     10  C   UNL     1     -13.446  57.268  50.119  0.00  0.00    +0.000 A 
ATOM     11  C   UNL     1     -12.945  56.573  51.207  0.00  0.00    +0.000 A 
ATOM     12  C   UNL     1     -14.445  58.385  50.187  0.00  0.00    +0.000 C 
ATOM     13  C   UNL     1     -13.330  56.935  52.617  0.00  0.00    +0.000 C 
ATOM     14  C   UNL     1     -14.600  58.895  51.631  0.00  0.00    +0.000 C 
ATOM     15  C   UNL     1     -14.633  57.764  52.680  0.00  0.00    +0.000 C 
ATOM     16  C   UNL     1     -15.873  56.874  52.529  0.00  0.00    +0.000 C 
BRANCH   9  17
ATOM     17  C   UNL     1     -11.145  54.772  51.714  0.00  0.00    +0.000 C 
ATOM     18  O   UNL     1     -11.457  53.682  52.178  0.00  0.00    +0.000 OA
BRANCH  17  19
ATOM     19  O   UNL     1     -10.047  55.481  52.104  0.00  0.00    +0.000 OA
BRANCH  19  20
ATOM     20  C   UNL     1      -8.760  54.993  51.716  0.00  0.00    +0.000 C 
ATOM     21  C   UNL     1      -7.818  56.141  51.422  0.00  0.00    +0.000 C 
ENDBRANCH  19  20
ENDBRANCH  17  19
ENDBRANCH   9  17
ENDBRANCH   4   7
BRANCH   1  22
ATOM     22  S   UNL     1      -8.218  53.678  46.569  0.00  0.00    +0.000 S 
ATOM     23  O   UNL     1      -7.996  54.893  45.821  0.00  0.00    +0.000 OA
ATOM     24  O   UNL     1      -8.107  52.389  45.917  0.00  0.00    +0.000 OA
BRANCH  22  25
ATOM     25  C   UNL     1      -7.136  53.653  47.985  0.00  0.00    +0.000 A 
ATOM     26  C   UNL     1      -7.223  52.618  48.919  0.00  0.00    +0.000 A 
ATOM     27  C   UNL     1      -6.152  54.638  48.121  0.00  0.00    +0.000 A 
ATOM     28  C   UNL     1      -6.351  52.593  50.011  0.00  0.00    +0.000 A 
ATOM     29  C   UNL     1      -5.288  54.614  49.215  0.00  0.00    +0.000 A 
ATOM     30  C   UNL     1      -5.384  53.596  50.172  0.00  0.00    +0.000 A 
ATOM     31  C   UNL     1      -4.449  53.593  51.348  0.00  0.00    +0.000 C 
ENDBRANCH  22  25
ENDBRANCH   1  22
TORSDOF 6
ENDMDL
MODEL 5
REMARK VINA RESULT:      -6.9      3.366      8.121
REMARK  Name = 
REMARK  9 active torsions:
REMARK  status: ('A' for Active; 'I' for Inactive)
REMARK    1  A    between atoms: S_1  and  N_4
REMARK    2  A    between atoms: S_1  and  C_5
REMARK    3  A    between atoms: N_10  and  C_13
REMARK    4  A    between atoms: C_14  and  C_17
REMARK    5  A    between atoms: C_16  and  C_20
REMARK    6  A    between atoms: C_20  and  O_24
REMARK    7  A    between atoms: O_24  and  C_27
REMARK    8  A    between atoms: C_26  and  C_28
REMARK    9  A    between atoms: C_27  and  C_29
REMARK                            x       y       z     vdW  Elec       q    Type
REMARK                         _______ _______ _______ _____ _____    ______ ____
ROOT
ATOM      1  N   UNL     1     -12.847  55.679  49.092  0.00  0.00    +0.000 N 
ATOM      2  C   UNL     1     -12.174  54.976  48.103  0.00  0.00    +0.000 C 
ATOM      3  O   UNL     1     -12.096  55.396  46.951  0.00  0.00    +0.000 OA
ATOM      4  N   UNL     1     -11.681  53.754  48.512  0.00  0.00    +0.000 N 
ATOM      5  H   UNL     1     -12.888  55.287  49.995  0.00  0.00    +0.000 HD
ATOM      6  H   UNL     1     -11.797  53.441  49.439  0.00  0.00    +0.000 HD
ENDROOT
BRANCH   4   7
ATOM      7  C   UNL     1     -11.017  52.985  47.572  0.00  0.00    +0.000 A 
ATOM      8  S   UNL     1     -11.998  51.868  46.752  0.00  0.00    +0.000 S 
ATOM      9  C   UNL     1      -9.693  52.963  47.164  0.00  0.00    +0.000 A 
ATOM     10  C   UNL     1     -10.758  51.536  45.634  0.00  0.00    +0.000 A 
ATOM     11  C   UNL     1      -9.573  52.179  45.953  0.00  0.00    +0.000 A 
ATOM     12  C   UNL     1     -10.975  50.659  44.437  0.00  0.00    +0.000 C 
ATOM     13  C   UNL     1      -8.331  51.997  45.122  0.00  0.00    +0.000 C 
ATOM     14  C   UNL     1      -9.633  50.287  43.780  0.00  0.00    +0.000 C 
ATOM     15  C   UNL     1      -8.640  51.465  43.705  0.00  0.00    +0.000 C 
ATOM     16  C   UNL     1      -9.140  52.582  42.781  0.00  0.00    +0.000 C 
BRANCH   9  17
ATOM     17  C   UNL     1      -8.578  53.594  47.889  0.00  0.00    +0.000 C 
ATOM     18  O   UNL     1      -7.703  52.959  48.466  0.00  0.00    +0.000 OA
BRANCH  17  19
ATOM     19  O   UNL     1      -8.727  54.947  47.985  0.00  0.00    +0.000 OA
BRANCH  19  20
ATOM     20  C   UNL     1      -8.316  55.584  49.197  0.00  0.00    +0.000 C 
ATOM     21  C   UNL     1      -9.262  56.710  49.558  0.00  0.00    +0.000 C 
ENDBRANCH  19  20
ENDBRANCH  17  19
ENDBRANCH   9  17
ENDBRANCH   4   7
BRANCH   1  22
ATOM     22  S   UNL     1     -13.589  57.153  48.841  0.00  0.00    +0.000 S 
ATOM     23  O   UNL     1     -14.669  57.022  47.890  0.00  0.00    +0.000 OA
ATOM     24  O   UNL     1     -12.503  58.078  48.588  0.00  0.00    +0.000 OA
BRANCH  22  25
ATOM     25  C   UNL     1     -14.262  57.548  50.444  0.00  0.00    +0.000 A 
ATOM     26  C   UNL     1     -14.919  56.568  51.192  0.00  0.00    +0.000 A 
ATOM     27  C   UNL     1     -14.069  58.827  50.978  0.00  0.00    +0.000 A 
ATOM     28  C   UNL     1     -15.419  56.882  52.459  0.00  0.00    +0.000 A 
ATOM     29  C   UNL     1     -14.575  59.137  52.239  0.00  0.00    +0.000 A 
ATOM     30  C   UNL     1     -15.259  58.172  52.987  0.00  0.00    +0.000 A 
ATOM     31  C   UNL     1     -15.803  58.530  54.341  0.00  0.00    +0.000 C 
ENDBRANCH  22  25
ENDBRANCH   1  22
TORSDOF 6
ENDMDL
MODEL 6
REMARK VINA RESULT:      -6.8      2.822      5.602
REMARK  Name = 
REMARK  9 active torsions:
REMARK  status: ('A' for Active; 'I' for Inactive)
REMARK    1  A    between atoms: S_1  and  N_4
REMARK    2  A    between atoms: S_1  and  C_5
REMARK    3  A    between atoms: N_10  and  C_13
REMARK    4  A    between atoms: C_14  and  C_17
REMARK    5  A    between atoms: C_16  and  C_20
REMARK    6  A    between atoms: C_20  and  O_24
REMARK    7  A    between atoms: O_24  and  C_27
REMARK    8  A    between atoms: C_26  and  C_28
REMARK    9  A    between atoms: C_27  and  C_29
REMARK                            x       y       z     vdW  Elec       q    Type
REMARK                         _______ _______ _______ _____ _____    ______ ____
ROOT
ATOM      1  N   UNL     1      -7.832  56.013  51.039  0.00  0.00    +0.000 N 
ATOM      2  C   UNL     1      -8.438  55.351  49.980  0.00  0.00    +0.000 C 
ATOM      3  O   UNL     1      -8.836  54.194  50.085  0.00  0.00    +0.000 OA
ATOM      4  N   UNL     1      -8.478  56.077  48.807  0.00  0.00    +0.000 N 
ATOM      5  H   UNL     1      -7.521  56.936  50.893  0.00  0.00    +0.000 HD
ATOM      6  H   UNL     1      -8.114  56.990  48.760  0.00  0.00    +0.000 HD
ENDROOT
BRANCH   4   7
ATOM      7  C   UNL     1      -9.047  55.472  47.700  0.00  0.00    +0.000 A 
ATOM      8  S   UNL     1      -7.931  54.810  46.604  0.00  0.00    +0.000 S 
ATOM      9  C   UNL     1     -10.368  55.294  47.322  0.00  0.00    +0.000 A 
ATOM     10  C   UNL     1      -9.175  54.017  45.753  0.00  0.00    +0.000 A 
ATOM     11  C   UNL     1     -10.434  54.348  46.227  0.00  0.00    +0.000 A 
ATOM     12  C   UNL     1      -8.893  53.055  44.638  0.00  0.00    +0.000 C 
ATOM     13  C   UNL     1     -11.683  53.793  45.596  0.00  0.00    +0.000 C 
ATOM     14  C   UNL     1     -10.178  52.728  43.856  0.00  0.00    +0.000 C 
ATOM     15  C   UNL     1     -11.410  52.521  44.763  0.00  0.00    +0.000 C 
ATOM     16  C   UNL     1     -11.265  51.283  45.656  0.00  0.00    +0.000 C 
BRANCH   9  17
ATOM     17  C   UNL     1     -11.515  56.006  47.908  0.00  0.00    +0.000 C 
ATOM     18  O   UNL     1     -12.508  56.328  47.268  0.00  0.00    +0.000 OA
BRANCH  17  19
ATOM     19  O   UNL     1     -11.271  56.405  49.190  0.00  0.00    +0.000 OA
BRANCH  19  20
ATOM     20  C   UNL     1     -12.346  56.340  50.130  0.00  0.00    +0.000 C 
ATOM     21  C   UNL     1     -11.914  55.618  51.388  0.00  0.00    +0.000 C 
ENDBRANCH  19  20
ENDBRANCH  17  19
ENDBRANCH   9  17
ENDBRANCH   4   7
BRANCH   1  22
ATOM     22  S   UNL     1      -7.603  55.335  52.548  0.00  0.00    +0.000 S 
ATOM     23  O   UNL     1      -8.850  54.826  53.070  0.00  0.00    +0.000 OA
ATOM     24  O   UNL     1      -6.851  56.327  53.291  0.00  0.00    +0.000 OA
BRANCH  22  25
ATOM     25  C   UNL     1      -6.503  53.972  52.218  0.00  0.00    +0.000 A 
ATOM     26  C   UNL     1      -5.274  54.194  51.591  0.00  0.00    +0.000 A 
ATOM     27  C   UNL     1      -6.846  52.686  52.651  0.00  0.00    +0.000 A 
ATOM     28  C   UNL     1      -4.408  53.122  51.362  0.00  0.00    +0.000 A 
ATOM     29  C   UNL     1      -5.982  51.618  52.414  0.00  0.00    +0.000 A 
ATOM     30  C   UNL     1      -4.760  51.825  51.763  0.00  0.00    +0.000 A 
ATOM     31  C   UNL     1      -3.847  50.658  51.511  0.00  0.00    +0.000 C 
ENDBRANCH  22  25
ENDBRANCH   1  22
TORSDOF 6
ENDMDL
MODEL 7
REMARK VINA RESULT:      -6.7      3.803      6.316
REMARK  Name = 
REMARK  9 active torsions:
REMARK  status: ('A' for Active; 'I' for Inactive)
REMARK    1  A    between atoms: S_1  and  N_4
REMARK    2  A    between atoms: S_1  and  C_5
REMARK    3  A    between atoms: N_10  and  C_13
REMARK    4  A    between atoms: C_14  and  C_17
REMARK    5  A    between atoms: C_16  and  C_20
REMARK    6  A    between atoms: C_20  and  O_24
REMARK    7  A    between atoms: O_24  and  C_27
REMARK    8  A    between atoms: C_26  and  C_28
REMARK    9  A    between atoms: C_27  and  C_29
REMARK                            x       y       z     vdW  Elec       q    Type
REMARK                         _______ _______ _______ _____ _____    ______ ____
ROOT
ATOM      1  N   UNL     1      -6.197  54.813  50.190  0.00  0.00    +0.000 N 
ATOM      2  C   UNL     1      -7.027  54.347  49.180  0.00  0.00    +0.000 C 
ATOM      3  O   UNL     1      -7.389  53.174  49.130  0.00  0.00    +0.000 OA
ATOM      4  N   UNL     1      -7.334  55.289  48.220  0.00  0.00    +0.000 N 
ATOM      5  H   UNL     1      -5.928  55.761  50.170  0.00  0.00    +0.000 HD
ATOM      6  H   UNL     1      -6.993  56.211  48.281  0.00  0.00    +0.000 HD
ENDROOT
BRANCH   4   7
ATOM      7  C   UNL     1      -8.140  54.890  47.167  0.00  0.00    +0.000 A 
ATOM      8  S   UNL     1      -7.297  54.356  45.794  0.00  0.00    +0.000 S 
ATOM      9  C   UNL     1      -9.518  54.834  47.028  0.00  0.00    +0.000 A 
ATOM     10  C   UNL     1      -8.731  53.763  45.093  0.00  0.00    +0.000 A 
ATOM     11  C   UNL     1      -9.853  54.073  45.842  0.00  0.00    +0.000 A 
ATOM     12  C   UNL     1      -8.730  52.973  43.818  0.00  0.00    +0.000 C 
ATOM     13  C   UNL     1     -11.235  53.682  45.390  0.00  0.00    +0.000 C 
ATOM     14  C   UNL     1     -10.157  52.832  43.259  0.00  0.00    +0.000 C 
ATOM     15  C   UNL     1     -11.214  52.543  44.346  0.00  0.00    +0.000 C 
ATOM     16  C   UNL     1     -11.001  51.176  45.008  0.00  0.00    +0.000 C 
BRANCH   9  17
ATOM     17  C   UNL     1     -10.482  55.499  47.920  0.00  0.00    +0.000 C 
ATOM     18  O   UNL     1     -11.509  56.035  47.523  0.00  0.00    +0.000 OA
BRANCH  17  19
ATOM     19  O   UNL     1     -10.018  55.592  49.200  0.00  0.00    +0.000 OA
BRANCH  19  20
ATOM     20  C   UNL     1     -10.810  55.021  50.245  0.00  0.00    +0.000 C 
ATOM     21  C   UNL     1     -10.752  53.509  50.195  0.00  0.00    +0.000 C 
ENDBRANCH  19  20
ENDBRANCH  17  19
ENDBRANCH   9  17
ENDBRANCH   4   7
BRANCH   1  22
ATOM     22  S   UNL     1      -5.628  53.860  51.437  0.00  0.00    +0.000 S 
ATOM     23  O   UNL     1      -4.766  54.625  52.308  0.00  0.00    +0.000 OA
ATOM     24  O   UNL     1      -5.133  52.660  50.792  0.00  0.00    +0.000 OA
BRANCH  22  25
ATOM     25  C   UNL     1      -7.112  53.416  52.319  0.00  0.00    +0.000 A 
ATOM     26  C   UNL     1      -7.955  54.410  52.823  0.00  0.00    +0.000 A 
ATOM     27  C   UNL     1      -7.463  52.068  52.446  0.00  0.00    +0.000 A 
ATOM     28  C   UNL     1      -9.129  54.051  53.489  0.00  0.00    +0.000 A 
ATOM     29  C   UNL     1      -8.632  51.714  53.118  0.00  0.00    +0.000 A 
ATOM     30  C   UNL     1      -9.472  52.700  53.650  0.00  0.00    +0.000 A 
ATOM     31  C   UNL     1     -10.723  52.297  54.377  0.00  0.00    +0.000 C 
ENDBRANCH  22  25
ENDBRANCH   1  22
TORSDOF 6
ENDMDL
MODEL 8
REMARK VINA RESULT:      -6.6      2.776      4.144
REMARK  Name = 
REMARK  9 active torsions:
REMARK  status: ('A' for Active; 'I' for Inactive)
REMARK    1  A    between atoms: S_1  and  N_4
REMARK    2  A    between atoms: S_1  and  C_5
REMARK    3  A    between atoms: N_10  and  C_13
REMARK    4  A    between atoms: C_14  and  C_17
REMARK    5  A    between atoms: C_16  and  C_20
REMARK    6  A    between atoms: C_20  and  O_24
REMARK    7  A    between atoms: O_24  and  C_27
REMARK    8  A    between atoms: C_26  and  C_28
REMARK    9  A    between atoms: C_27  and  C_29
REMARK                            x       y       z     vdW  Elec       q    Type
REMARK                         _______ _______ _______ _____ _____    ______ ____
ROOT
ATOM      1  N   UNL     1      -8.364  53.394  48.730  0.00  0.00    +0.000 N 
ATOM      2  C   UNL     1      -9.149  54.403  49.270  0.00  0.00    +0.000 C 
ATOM      3  O   UNL     1      -8.658  55.330  49.910  0.00  0.00    +0.000 OA
ATOM      4  N   UNL     1     -10.505  54.226  49.088  0.00  0.00    +0.000 N 
ATOM      5  H   UNL     1      -8.814  52.669  48.238  0.00  0.00    +0.000 HD
ATOM      6  H   UNL     1     -10.856  53.448  48.598  0.00  0.00    +0.000 HD
ENDROOT
BRANCH   4   7
ATOM      7  C   UNL     1     -11.352  55.182  49.621  0.00  0.00    +0.000 A 
ATOM      8  S   UNL     1     -11.839  56.385  48.526  0.00  0.00    +0.000 S 
ATOM      9  C   UNL     1     -11.891  55.336  50.889  0.00  0.00    +0.000 A 
ATOM     10  C   UNL     1     -13.004  56.969  49.621  0.00  0.00    +0.000 A 
ATOM     11  C   UNL     1     -12.942  56.332  50.849  0.00  0.00    +0.000 A 
ATOM     12  C   UNL     1     -13.988  58.038  49.247  0.00  0.00    +0.000 C 
ATOM     13  C   UNL     1     -13.853  56.717  51.984  0.00  0.00    +0.000 C 
ATOM     14  C   UNL     1     -14.706  58.583  50.495  0.00  0.00    +0.000 C 
ATOM     15  C   UNL     1     -15.105  57.484  51.501  0.00  0.00    +0.000 C 
ATOM     16  C   UNL     1     -16.161  56.532  50.925  0.00  0.00    +0.000 C 
BRANCH   9  17
ATOM     17  C   UNL     1     -11.420  54.635  52.094  0.00  0.00    +0.000 C 
ATOM     18  O   UNL     1     -10.712  55.158  52.946  0.00  0.00    +0.000 OA
BRANCH  17  19
ATOM     19  O   UNL     1     -11.723  53.304  52.065  0.00  0.00    +0.000 OA
BRANCH  19  20
ATOM     20  C   UNL     1     -10.682  52.372  52.372  0.00  0.00    +0.000 C 
ATOM     21  C   UNL     1     -10.610  51.285  51.322  0.00  0.00    +0.000 C 
ENDBRANCH  19  20
ENDBRANCH  17  19
ENDBRANCH   9  17
ENDBRANCH   4   7
BRANCH   1  22
ATOM     22  S   UNL     1      -6.701  53.339  48.865  0.00  0.00    +0.000 S 
ATOM     23  O   UNL     1      -6.105  54.507  48.260  0.00  0.00    +0.000 OA
ATOM     24  O   UNL     1      -6.335  52.013  48.407  0.00  0.00    +0.000 OA
BRANCH  22  25
ATOM     25  C   UNL     1      -6.434  53.386  50.626  0.00  0.00    +0.000 A 
ATOM     26  C   UNL     1      -5.665  54.404  51.194  0.00  0.00    +0.000 A 
ATOM     27  C   UNL     1      -7.054  52.436  51.445  0.00  0.00    +0.000 A 
ATOM     28  C   UNL     1      -5.484  54.446  52.579  0.00  0.00    +0.000 A 
ATOM     29  C   UNL     1      -6.865  52.478  52.826  0.00  0.00    +0.000 A 
ATOM     30  C   UNL     1      -6.075  53.478  53.404  0.00  0.00    +0.000 A 
ATOM     31  C   UNL     1      -5.878  53.500  54.893  0.00  0.00    +0.000 C 
ENDBRANCH  22  25
ENDBRANCH   1  22
TORSDOF 6
ENDMDL
MODEL 9
REMARK VINA RESULT:      -6.6      2.104      8.399
REMARK  Name = 
REMARK  9 active torsions:
REMARK  status: ('A' for Active; 'I' for Inactive)
REMARK    1  A    between atoms: S_1  and  N_4
REMARK    2  A    between atoms: S_1  and  C_5
REMARK    3  A    between atoms: N_10  and  C_13
REMARK    4  A    between atoms: C_14  and  C_17
REMARK    5  A    between atoms: C_16  and  C_20
REMARK    6  A    between atoms: C_20  and  O_24
REMARK    7  A    between atoms: O_24  and  C_27
REMARK    8  A    between atoms: C_26  and  C_28
REMARK    9  A    between atoms: C_27  and  C_29
REMARK                            x       y       z     vdW  Elec       q    Type
REMARK                         _______ _______ _______ _____ _____    ______ ____
ROOT
ATOM      1  N   UNL     1     -11.673  55.377  50.884  0.00  0.00    +0.000 N 
ATOM      2  C   UNL     1     -10.407  54.899  50.575  0.00  0.00    +0.000 C 
ATOM      3  O   UNL     1      -9.885  55.112  49.483  0.00  0.00    +0.000 OA
ATOM      4  N   UNL     1      -9.840  54.116  51.560  0.00  0.00    +0.000 N 
ATOM      5  H   UNL     1     -12.046  55.163  51.770  0.00  0.00    +0.000 HD
ATOM      6  H   UNL     1     -10.310  53.943  52.407  0.00  0.00    +0.000 HD
ENDROOT
BRANCH   4   7
ATOM      7  C   UNL     1      -8.587  53.585  51.312  0.00  0.00    +0.000 A 
ATOM      8  S   UNL     1      -8.596  51.977  50.765  0.00  0.00    +0.000 S 
ATOM      9  C   UNL     1      -7.315  54.127  51.417  0.00  0.00    +0.000 A 
ATOM     10  C   UNL     1      -6.940  52.057  50.375  0.00  0.00    +0.000 A 
ATOM     11  C   UNL     1      -6.362  53.253  50.765  0.00  0.00    +0.000 A 
ATOM     12  C   UNL     1      -6.233  50.943  49.662  0.00  0.00    +0.000 C 
ATOM     13  C   UNL     1      -4.896  53.525  50.555  0.00  0.00    +0.000 C 
ATOM     14  C   UNL     1      -4.707  51.142  49.711  0.00  0.00    +0.000 C 
ATOM     15  C   UNL     1      -4.273  52.605  49.481  0.00  0.00    +0.000 C 
ATOM     16  C   UNL     1      -4.605  53.088  48.064  0.00  0.00    +0.000 C 
BRANCH   9  17
ATOM     17  C   UNL     1      -6.987  55.370  52.133  0.00  0.00    +0.000 C 
ATOM     18  O   UNL     1      -7.401  56.472  51.795  0.00  0.00    +0.000 OA
BRANCH  17  19
ATOM     19  O   UNL     1      -6.047  55.172  53.102  0.00  0.00    +0.000 OA
BRANCH  19  20
ATOM     20  C   UNL     1      -6.498  54.966  54.444  0.00  0.00    +0.000 C 
ATOM     21  C   UNL     1      -6.210  53.550  54.893  0.00  0.00    +0.000 C 
ENDBRANCH  19  20
ENDBRANCH  17  19
ENDBRANCH   9  17
ENDBRANCH   4   7
BRANCH   1  22
ATOM     22  S   UNL     1     -12.598  56.295  49.841  0.00  0.00    +0.000 S 
ATOM     23  O   UNL     1     -13.490  55.452  49.079  0.00  0.00    +0.000 OA
ATOM     24  O   UNL     1     -11.650  57.156  49.162  0.00  0.00    +0.000 OA
BRANCH  22  25
ATOM     25  C   UNL     1     -13.554  57.320  50.942  0.00  0.00    +0.000 A 
ATOM     26  C   UNL     1     -14.201  58.460  50.457  0.00  0.00    +0.000 A 
ATOM     27  C   UNL     1     -13.710  56.941  52.279  0.00  0.00    +0.000 A 
ATOM     28  C   UNL     1     -14.970  59.242  51.323  0.00  0.00    +0.000 A 
ATOM     29  C   UNL     1     -14.473  57.728  53.141  0.00  0.00    +0.000 A 
ATOM     30  C   UNL     1     -15.103  58.887  52.674  0.00  0.00    +0.000 A 
ATOM     31  C   UNL     1     -15.914  59.724  53.621  0.00  0.00    +0.000 C 
ENDBRANCH  22  25
ENDBRANCH   1  22
TORSDOF 6
ENDMDL
