MODEL 1
REMARK VINA RESULT:      -7.9      0.000      0.000
REMARK  Name = 
REMARK  9 active torsions:
REMARK  status: ('A' for Active; 'I' for Inactive)
REMARK    1  A    between atoms: S_1  and  N_4
REMARK    2  A    between atoms: S_1  and  N_5
REMARK    3  A    between atoms: N_12  and  C_13
REMARK    4  A    between atoms: C_15  and  C_18
REMARK    5  A    between atoms: C_18  and  O_22
REMARK    6  A    between atoms: O_22  and  C_25
REMARK    7  A    between atoms: C_23  and  C_26
REMARK    8  A    between atoms: C_23  and  C_27
REMARK    9  A    between atoms: C_25  and  C_28
REMARK                            x       y       z     vdW  Elec       q    Type
REMARK                         _______ _______ _______ _____ _____    ______ ____
ROOT
ATOM      1  C   UNL     1     -11.299  53.627  48.074  0.00  0.00    +0.000 A 
ATOM      2  S   UNL     1     -11.933  52.919  46.661  0.00  0.00    +0.000 S 
ATOM      3  C   UNL     1      -9.953  53.938  47.964  0.00  0.00    +0.000 A 
ATOM      4  C   UNL     1     -10.500  53.243  45.789  0.00  0.00    +0.000 A 
ATOM      5  C   UNL     1      -9.515  53.793  46.590  0.00  0.00    +0.000 A 
ATOM      6  C   UNL     1     -10.346  52.946  44.313  0.00  0.00    +0.000 C 
ATOM      7  C   UNL     1      -8.146  54.113  46.058  0.00  0.00    +0.000 C 
ATOM      8  C   UNL     1      -8.839  52.865  43.913  0.00  0.00    +0.000 C 
ATOM      9  C   UNL     1      -8.079  54.064  44.530  0.00  0.00    +0.000 C 
ATOM     10  C   UNL     1      -8.671  52.943  42.383  0.00  0.00    +0.000 C 
ATOM     11  C   UNL     1      -8.233  51.528  44.385  0.00  0.00    +0.000 C 
ENDROOT
BRANCH   1  15
ATOM     12  N   UNL     1     -13.878  55.141  50.137  0.00  0.00    +0.000 N 
ATOM     13  C   UNL     1     -12.907  55.029  49.120  0.00  0.00    +0.000 C 
ATOM     14  O   UNL     1     -12.764  55.903  48.268  0.00  0.00    +0.000 OA
ATOM     15  N   UNL     1     -12.207  53.835  49.109  0.00  0.00    +0.000 N 
ATOM     16  H   UNL     1     -13.995  54.435  50.813  0.00  0.00    +0.000 HD
ATOM     17  H   UNL     1     -12.346  53.156  49.808  0.00  0.00    +0.000 HD
BRANCH  12  18
ATOM     18  S   UNL     1     -14.820  56.527  50.147  0.00  0.00    +0.000 S 
ATOM     19  O   UNL     1     -14.788  57.090  48.817  0.00  0.00    +0.000 OA
ATOM     20  O   UNL     1     -16.054  56.289  50.858  0.00  0.00    +0.000 OA
BRANCH  18  21
ATOM     21  N   UNL     1     -13.898  57.572  51.136  0.00  0.00    +0.000 NA
ATOM     22  C   UNL     1     -13.743  57.188  52.563  0.00  0.00    +0.000 C 
ATOM     23  C   UNL     1     -14.472  58.967  51.166  0.00  0.00    +0.000 C 
ATOM     24  C   UNL     1     -14.910  57.842  53.272  0.00  0.00    +0.000 C 
ATOM     25  C   UNL     1     -15.042  59.180  52.571  0.00  0.00    +0.000 C 
ENDBRANCH  18  21
ENDBRANCH  12  18
ENDBRANCH   1  15
BRANCH   3  26
ATOM     26  C   UNL     1      -9.138  54.357  49.107  0.00  0.00    +0.000 C 
ATOM     27  O   UNL     1      -8.159  53.730  49.498  0.00  0.00    +0.000 OA
BRANCH  26  28
ATOM     28  O   UNL     1      -9.582  55.517  49.665  0.00  0.00    +0.000 OA
BRANCH  28  29
ATOM     29  C   UNL     1      -9.284  55.733  51.047  0.00  0.00    +0.000 C 
ATOM     30  C   UNL     1     -10.433  55.228  51.896  0.00  0.00    +0.000 C 
ENDBRANCH  28  29
ENDBRANCH  26  28
ENDBRANCH   3  26
TORSDOF 6
ENDMDL
MODEL 2
REMARK VINA RESULT:      -7.6      3.266      5.499
REMARK  Name = 
REMARK  9 active torsions:
REMARK  status: ('A' for Active; 'I' for Inactive)
REMARK    1  A    between atoms: S_1  and  N_4
REMARK    2  A    between atoms: S_1  and  N_5
REMARK    3  A    between atoms: N_12  and  C_13
REMARK    4  A    between atoms: C_15  and  C_18
REMARK    5  A    between atoms: C_18  and  O_22
REMARK    6  A    between atoms: O_22  and  C_25
REMARK    7  A    between atoms: C_23  and  C_26
REMARK    8  A    between atoms: C_23  and  C_27
REMARK    9  A    between atoms: C_25  and  C_28
REMARK                            x       y       z     vdW  Elec       q    Type
REMARK                         _______ _______ _______ _____ _____    ______ ____
ROOT
ATOM      1  C   UNL     1     -10.860  53.866  51.820  0.00  0.00    +0.000 A 
ATOM      2  S   UNL     1     -10.636  52.946  53.235  0.00  0.00    +0.000 S 
ATOM      3  C   UNL     1      -9.670  54.348  51.297  0.00  0.00    +0.000 A 
ATOM      4  C   UNL     1      -8.939  52.955  53.040  0.00  0.00    +0.000 A 
ATOM      5  C   UNL     1      -8.542  53.734  51.966  0.00  0.00    +0.000 A 
ATOM      6  C   UNL     1      -7.997  52.200  53.952  0.00  0.00    +0.000 C 
ATOM      7  C   UNL     1      -7.092  53.941  51.628  0.00  0.00    +0.000 C 
ATOM      8  C   UNL     1      -6.548  52.775  53.862  0.00  0.00    +0.000 C 
ATOM      9  C   UNL     1      -6.168  52.976  52.374  0.00  0.00    +0.000 C 
ATOM     10  C   UNL     1      -5.528  51.797  54.477  0.00  0.00    +0.000 C 
ATOM     11  C   UNL     1      -6.453  54.104  54.638  0.00  0.00    +0.000 C 
ENDROOT
BRANCH   1  15
ATOM     12  N   UNL     1     -14.158  55.213  51.108  0.00  0.00    +0.000 N 
ATOM     13  C   UNL     1     -12.870  55.126  51.675  0.00  0.00    +0.000 C 
ATOM     14  O   UNL     1     -12.390  56.050  52.326  0.00  0.00    +0.000 OA
ATOM     15  N   UNL     1     -12.172  53.971  51.365  0.00  0.00    +0.000 N 
ATOM     16  H   UNL     1     -14.536  54.473  50.580  0.00  0.00    +0.000 HD
ATOM     17  H   UNL     1     -12.588  53.249  50.841  0.00  0.00    +0.000 HD
BRANCH  12  18
ATOM     18  S   UNL     1     -15.018  56.628  51.373  0.00  0.00    +0.000 S 
ATOM     19  O   UNL     1     -16.064  56.699  50.379  0.00  0.00    +0.000 OA
ATOM     20  O   UNL     1     -15.275  56.802  52.782  0.00  0.00    +0.000 OA
BRANCH  18  21
ATOM     21  N   UNL     1     -13.869  57.820  50.949  0.00  0.00    +0.000 NA
ATOM     22  C   UNL     1     -14.089  59.188  51.488  0.00  0.00    +0.000 C 
ATOM     23  C   UNL     1     -13.773  57.999  49.454  0.00  0.00    +0.000 C 
ATOM     24  C   UNL     1     -14.933  59.888  50.444  0.00  0.00    +0.000 C 
ATOM     25  C   UNL     1     -14.372  59.372  49.134  0.00  0.00    +0.000 C 
ENDBRANCH  18  21
ENDBRANCH  12  18
ENDBRANCH   1  15
BRANCH   3  26
ATOM     26  C   UNL     1      -9.621  55.334  50.213  0.00  0.00    +0.000 C 
ATOM     27  O   UNL     1      -9.089  56.433  50.331  0.00  0.00    +0.000 OA
BRANCH  26  28
ATOM     28  O   UNL     1     -10.212  54.883  49.073  0.00  0.00    +0.000 OA
BRANCH  28  29
ATOM     29  C   UNL     1     -11.058  55.797  48.370  0.00  0.00    +0.000 C 
ATOM     30  C   UNL     1     -12.203  55.038  47.731  0.00  0.00    +0.000 C 
ENDBRANCH  28  29
ENDBRANCH  26  28
ENDBRANCH   3  26
TORSDOF 6
ENDMDL
MODEL 3
REMARK VINA RESULT:      -7.6      3.062      8.314
REMARK  Name = 
REMARK  9 active torsions:
REMARK  status: ('A' for Active; 'I' for Inactive)
REMARK    1  A    between atoms: S_1  and  N_4
REMARK    2  A    between atoms: S_1  and  N_5
REMARK    3  A    between atoms: N_12  and  C_13
REMARK    4  A    between atoms: C_15  and  C_18
REMARK    5  A    between atoms: C_18  and  O_22
REMARK    6  A    between atoms: O_22  and  C_25
REMARK    7  A    between atoms: C_23  and  C_26
REMARK    8  A    between atoms: C_23  and  C_27
REMARK    9  A    between atoms: C_25  and  C_28
REMARK                            x       y       z     vdW  Elec       q    Type
REMARK                         _______ _______ _______ _____ _____    ______ ____
ROOT
ATOM      1  C   UNL     1     -11.130  55.040  50.337  0.00  0.00    +0.000 A 
ATOM      2  S   UNL     1     -11.677  55.105  51.948  0.00  0.00    +0.000 S 
ATOM      3  C   UNL     1     -11.859  55.857  49.486  0.00  0.00    +0.000 A 
ATOM      4  C   UNL     1     -12.726  56.408  51.598  0.00  0.00    +0.000 A 
ATOM      5  C   UNL     1     -12.733  56.724  50.250  0.00  0.00    +0.000 A 
ATOM      6  C   UNL     1     -13.548  57.115  52.654  0.00  0.00    +0.000 C 
ATOM      7  C   UNL     1     -13.621  57.801  49.691  0.00  0.00    +0.000 C 
ATOM      8  C   UNL     1     -14.744  57.885  52.009  0.00  0.00    +0.000 C 
ATOM      9  C   UNL     1     -14.240  58.680  50.780  0.00  0.00    +0.000 C 
ATOM     10  C   UNL     1     -15.348  58.895  53.004  0.00  0.00    +0.000 C 
ATOM     11  C   UNL     1     -15.858  56.898  51.607  0.00  0.00    +0.000 C 
ENDROOT
BRANCH   1  15
ATOM     12  N   UNL     1      -7.691  53.885  50.137  0.00  0.00    +0.000 N 
ATOM     13  C   UNL     1      -8.768  54.781  50.297  0.00  0.00    +0.000 C 
ATOM     14  O   UNL     1      -8.591  55.942  50.658  0.00  0.00    +0.000 OA
ATOM     15  N   UNL     1     -10.023  54.228  50.105  0.00  0.00    +0.000 N 
ATOM     16  H   UNL     1      -7.838  52.953  49.856  0.00  0.00    +0.000 HD
ATOM     17  H   UNL     1     -10.129  53.293  49.814  0.00  0.00    +0.000 HD
BRANCH  12  18
ATOM     18  S   UNL     1      -6.153  54.474  50.446  0.00  0.00    +0.000 S 
ATOM     19  O   UNL     1      -5.947  55.629  49.603  0.00  0.00    +0.000 OA
ATOM     20  O   UNL     1      -5.900  54.497  51.866  0.00  0.00    +0.000 OA
BRANCH  18  21
ATOM     21  N   UNL     1      -5.167  53.232  49.808  0.00  0.00    +0.000 NA
ATOM     22  C   UNL     1      -4.353  53.566  48.611  0.00  0.00    +0.000 C 
ATOM     23  C   UNL     1      -5.977  52.024  49.407  0.00  0.00    +0.000 C 
ATOM     24  C   UNL     1      -5.237  53.222  47.430  0.00  0.00    +0.000 C 
ATOM     25  C   UNL     1      -5.947  51.960  47.878  0.00  0.00    +0.000 C 
ENDBRANCH  18  21
ENDBRANCH  12  18
ENDBRANCH   1  15
BRANCH   3  26
ATOM     26  C   UNL     1     -11.718  55.812  48.028  0.00  0.00    +0.000 C 
ATOM     27  O   UNL     1     -12.671  55.690  47.267  0.00  0.00    +0.000 OA
BRANCH  26  28
ATOM     28  O   UNL     1     -10.423  55.938  47.627  0.00  0.00    +0.000 OA
BRANCH  28  29
ATOM     29  C   UNL     1      -9.971  55.059  46.594  0.00  0.00    +0.000 C 
ATOM     30  C   UNL     1      -8.457  54.990  46.615  0.00  0.00    +0.000 C 
ENDBRANCH  28  29
ENDBRANCH  26  28
ENDBRANCH   3  26
TORSDOF 6
ENDMDL
MODEL 4
REMARK VINA RESULT:      -7.5      3.481      8.302
REMARK  Name = 
REMARK  9 active torsions:
REMARK  status: ('A' for Active; 'I' for Inactive)
REMARK    1  A    between atoms: S_1  and  N_4
REMARK    2  A    between atoms: S_1  and  N_5
REMARK    3  A    between atoms: N_12  and  C_13
REMARK    4  A    between atoms: C_15  and  C_18
REMARK    5  A    between atoms: C_18  and  O_22
REMARK    6  A    between atoms: O_22  and  C_25
REMARK    7  A    between atoms: C_23  and  C_26
REMARK    8  A    between atoms: C_23  and  C_27
REMARK    9  A    between atoms: C_25  and  C_28
REMARK                            x       y       z     vdW  Elec       q    Type
REMARK                         _______ _______ _______ _____ _____    ______ ____
ROOT
ATOM      1  C   UNL     1     -11.004  54.987  50.386  0.00  0.00    +0.000 A 
ATOM      2  S   UNL     1     -11.581  55.092  51.985  0.00  0.00    +0.000 S 
ATOM      3  C   UNL     1     -11.727  55.770  49.500  0.00  0.00    +0.000 A 
ATOM      4  C   UNL     1     -12.639  56.370  51.579  0.00  0.00    +0.000 A 
ATOM      5  C   UNL     1     -12.625  56.648  50.223  0.00  0.00    +0.000 A 
ATOM      6  C   UNL     1     -13.489  57.096  52.600  0.00  0.00    +0.000 C 
ATOM      7  C   UNL     1     -13.517  57.696  49.618  0.00  0.00    +0.000 C 
ATOM      8  C   UNL     1     -14.683  57.831  51.912  0.00  0.00    +0.000 C 
ATOM      9  C   UNL     1     -14.166  58.598  50.670  0.00  0.00    +0.000 C 
ATOM     10  C   UNL     1     -15.317  58.861  52.867  0.00  0.00    +0.000 C 
ATOM     11  C   UNL     1     -15.777  56.818  51.518  0.00  0.00    +0.000 C 
ENDROOT
BRANCH   1  15
ATOM     12  N   UNL     1      -7.549  53.866  50.299  0.00  0.00    +0.000 N 
ATOM     13  C   UNL     1      -8.639  54.753  50.415  0.00  0.00    +0.000 C 
ATOM     14  O   UNL     1      -8.484  55.921  50.763  0.00  0.00    +0.000 OA
ATOM     15  N   UNL     1      -9.882  54.184  50.196  0.00  0.00    +0.000 N 
ATOM     16  H   UNL     1      -7.679  52.929  50.027  0.00  0.00    +0.000 HD
ATOM     17  H   UNL     1      -9.970  53.244  49.917  0.00  0.00    +0.000 HD
BRANCH  12  18
ATOM     18  S   UNL     1      -6.025  54.476  50.640  0.00  0.00    +0.000 S 
ATOM     19  O   UNL     1      -5.694  55.434  49.611  0.00  0.00    +0.000 OA
ATOM     20  O   UNL     1      -5.910  54.779  52.046  0.00  0.00    +0.000 OA
BRANCH  18  21
ATOM     21  N   UNL     1      -5.032  53.112  50.366  0.00  0.00    +0.000 NA
ATOM     22  C   UNL     1      -5.683  51.779  50.443  0.00  0.00    +0.000 C 
ATOM     23  C   UNL     1      -3.888  53.046  51.347  0.00  0.00    +0.000 C 
ATOM     24  C   UNL     1      -5.548  51.360  51.892  0.00  0.00    +0.000 C 
ATOM     25  C   UNL     1      -4.169  51.860  52.274  0.00  0.00    +0.000 C 
ENDBRANCH  18  21
ENDBRANCH  12  18
ENDBRANCH   1  15
BRANCH   3  26
ATOM     26  C   UNL     1     -11.559  55.687  48.046  0.00  0.00    +0.000 C 
ATOM     27  O   UNL     1     -12.495  55.512  47.273  0.00  0.00    +0.000 OA
BRANCH  26  28
ATOM     28  O   UNL     1     -10.262  55.841  47.663  0.00  0.00    +0.000 OA
BRANCH  28  29
ATOM     29  C   UNL     1      -9.784  54.989  46.619  0.00  0.00    +0.000 C 
ATOM     30  C   UNL     1      -8.270  54.931  46.666  0.00  0.00    +0.000 C 
ENDBRANCH  28  29
ENDBRANCH  26  28
ENDBRANCH   3  26
TORSDOF 6
ENDMDL
MODEL 5
REMARK VINA RESULT:      -7.1      2.698      4.498
REMARK  Name = 
REMARK  9 active torsions:
REMARK  status: ('A' for Active; 'I' for Inactive)
REMARK    1  A    between atoms: S_1  and  N_4
REMARK    2  A    between atoms: S_1  and  N_5
REMARK    3  A    between atoms: N_12  and  C_13
REMARK    4  A    between atoms: C_15  and  C_18
REMARK    5  A    between atoms: C_18  and  O_22
REMARK    6  A    between atoms: O_22  and  C_25
REMARK    7  A    between atoms: C_23  and  C_26
REMARK    8  A    between atoms: C_23  and  C_27
REMARK    9  A    between atoms: C_25  and  C_28
REMARK                            x       y       z     vdW  Elec       q    Type
REMARK                         _______ _______ _______ _____ _____    ______ ____
ROOT
ATOM      1  C   UNL     1     -10.016  54.598  50.412  0.00  0.00    +0.000 A 
ATOM      2  S   UNL     1      -8.862  55.316  51.438  0.00  0.00    +0.000 S 
ATOM      3  C   UNL     1      -9.453  53.715  49.503  0.00  0.00    +0.000 A 
ATOM      4  C   UNL     1      -7.628  54.281  50.867  0.00  0.00    +0.000 A 
ATOM      5  C   UNL     1      -8.065  53.467  49.837  0.00  0.00    +0.000 A 
ATOM      6  C   UNL     1      -6.224  54.279  51.432  0.00  0.00    +0.000 C 
ATOM      7  C   UNL     1      -7.143  52.510  49.135  0.00  0.00    +0.000 C 
ATOM      8  C   UNL     1      -5.217  53.635  50.427  0.00  0.00    +0.000 C 
ATOM      9  C   UNL     1      -5.817  52.318  49.874  0.00  0.00    +0.000 C 
ATOM     10  C   UNL     1      -3.889  53.286  51.127  0.00  0.00    +0.000 C 
ATOM     11  C   UNL     1      -4.903  54.619  49.283  0.00  0.00    +0.000 C 
ENDROOT
BRANCH   1  15
ATOM     12  N   UNL     1     -13.203  56.330  50.213  0.00  0.00    +0.000 N 
ATOM     13  C   UNL     1     -11.830  56.078  50.009  0.00  0.00    +0.000 C 
ATOM     14  O   UNL     1     -11.154  56.772  49.254  0.00  0.00    +0.000 OA
ATOM     15  N   UNL     1     -11.342  54.951  50.648  0.00  0.00    +0.000 N 
ATOM     16  H   UNL     1     -13.743  55.767  50.812  0.00  0.00    +0.000 HD
ATOM     17  H   UNL     1     -11.912  54.417  51.247  0.00  0.00    +0.000 HD
BRANCH  12  18
ATOM     18  S   UNL     1     -13.873  57.630  49.393  0.00  0.00    +0.000 S 
ATOM     19  O   UNL     1     -12.955  58.740  49.503  0.00  0.00    +0.000 OA
ATOM     20  O   UNL     1     -14.417  57.198  48.128  0.00  0.00    +0.000 OA
BRANCH  18  21
ATOM     21  N   UNL     1     -15.214  58.014  50.380  0.00  0.00    +0.000 NA
ATOM     22  C   UNL     1     -15.117  59.254  51.194  0.00  0.00    +0.000 C 
ATOM     23  C   UNL     1     -15.513  56.917  51.371  0.00  0.00    +0.000 C 
ATOM     24  C   UNL     1     -14.507  58.811  52.508  0.00  0.00    +0.000 C 
ATOM     25  C   UNL     1     -15.147  57.459  52.755  0.00  0.00    +0.000 C 
ENDBRANCH  18  21
ENDBRANCH  12  18
ENDBRANCH   1  15
BRANCH   3  26
ATOM     26  C   UNL     1     -10.206  53.138  48.386  0.00  0.00    +0.000 C 
ATOM     27  O   UNL     1     -10.431  51.937  48.279  0.00  0.00    +0.000 OA
BRANCH  26  28
ATOM     28  O   UNL     1     -10.633  54.083  47.504  0.00  0.00    +0.000 OA
BRANCH  28  29
ATOM     29  C   UNL     1     -10.175  53.971  46.154  0.00  0.00    +0.000 C 
ATOM     30  C   UNL     1     -11.352  53.692  45.242  0.00  0.00    +0.000 C 
ENDBRANCH  28  29
ENDBRANCH  26  28
ENDBRANCH   3  26
TORSDOF 6
ENDMDL
MODEL 6
REMARK VINA RESULT:      -7.0      2.840      8.022
REMARK  Name = 
REMARK  9 active torsions:
REMARK  status: ('A' for Active; 'I' for Inactive)
REMARK    1  A    between atoms: S_1  and  N_4
REMARK    2  A    between atoms: S_1  and  N_5
REMARK    3  A    between atoms: N_12  and  C_13
REMARK    4  A    between atoms: C_15  and  C_18
REMARK    5  A    between atoms: C_18  and  O_22
REMARK    6  A    between atoms: O_22  and  C_25
REMARK    7  A    between atoms: C_23  and  C_26
REMARK    8  A    between atoms: C_23  and  C_27
REMARK    9  A    between atoms: C_25  and  C_28
REMARK                            x       y       z     vdW  Elec       q    Type
REMARK                         _______ _______ _______ _____ _____    ______ ____
ROOT
ATOM      1  C   UNL     1     -11.576  55.735  47.640  0.00  0.00    +0.000 A 
ATOM      2  S   UNL     1     -13.211  56.178  47.472  0.00  0.00    +0.000 S 
ATOM      3  C   UNL     1     -11.097  55.918  48.928  0.00  0.00    +0.000 A 
ATOM      4  C   UNL     1     -13.387  56.382  49.160  0.00  0.00    +0.000 A 
ATOM      5  C   UNL     1     -12.190  56.211  49.833  0.00  0.00    +0.000 A 
ATOM      6  C   UNL     1     -14.707  56.718  49.819  0.00  0.00    +0.000 C 
ATOM      7  C   UNL     1     -12.082  56.395  51.321  0.00  0.00    +0.000 C 
ATOM      8  C   UNL     1     -14.485  57.325  51.240  0.00  0.00    +0.000 C 
ATOM      9  C   UNL     1     -13.448  56.468  52.007  0.00  0.00    +0.000 C 
ATOM     10  C   UNL     1     -15.794  57.315  52.054  0.00  0.00    +0.000 C 
ATOM     11  C   UNL     1     -14.013  58.788  51.126  0.00  0.00    +0.000 C 
ENDROOT
BRANCH   1  15
ATOM     12  N   UNL     1     -10.474  53.397  45.086  0.00  0.00    +0.000 N 
ATOM     13  C   UNL     1     -11.026  53.849  46.303  0.00  0.00    +0.000 C 
ATOM     14  O   UNL     1     -11.584  53.079  47.081  0.00  0.00    +0.000 OA
ATOM     15  N   UNL     1     -10.967  55.218  46.500  0.00  0.00    +0.000 N 
ATOM     16  H   UNL     1     -10.035  54.019  44.462  0.00  0.00    +0.000 HD
ATOM     17  H   UNL     1     -10.510  55.806  45.855  0.00  0.00    +0.000 HD
BRANCH  12  18
ATOM     18  S   UNL     1     -10.597  51.760  44.751  0.00  0.00    +0.000 S 
ATOM     19  O   UNL     1      -9.462  51.101  45.354  0.00  0.00    +0.000 OA
ATOM     20  O   UNL     1     -11.952  51.307  44.952  0.00  0.00    +0.000 OA
BRANCH  18  21
ATOM     21  N   UNL     1     -10.331  51.727  43.063  0.00  0.00    +0.000 NA
ATOM     22  C   UNL     1      -9.388  50.700  42.550  0.00  0.00    +0.000 C 
ATOM     23  C   UNL     1      -9.794  53.041  42.554  0.00  0.00    +0.000 C 
ATOM     24  C   UNL     1      -8.031  51.372  42.567  0.00  0.00    +0.000 C 
ATOM     25  C   UNL     1      -8.339  52.796  42.145  0.00  0.00    +0.000 C 
ENDBRANCH  18  21
ENDBRANCH  12  18
ENDBRANCH   1  15
BRANCH   3  26
ATOM     26  C   UNL     1      -9.676  55.810  49.270  0.00  0.00    +0.000 C 
ATOM     27  O   UNL     1      -9.004  56.763  49.650  0.00  0.00    +0.000 OA
BRANCH  26  28
ATOM     28  O   UNL     1      -9.204  54.540  49.135  0.00  0.00    +0.000 OA
BRANCH  28  29
ATOM     29  C   UNL     1      -9.677  53.565  50.068  0.00  0.00    +0.000 C 
ATOM     30  C   UNL     1      -9.196  53.920  51.460  0.00  0.00    +0.000 C 
ENDBRANCH  28  29
ENDBRANCH  26  28
ENDBRANCH   3  26
TORSDOF 6
ENDMDL
MODEL 7
REMARK VINA RESULT:      -6.9      3.400      5.673
REMARK  Name = 
REMARK  9 active torsions:
REMARK  status: ('A' for Active; 'I' for Inactive)
REMARK    1  A    between atoms: S_1  and  N_4
REMARK    2  A    between atoms: S_1  and  N_5
REMARK    3  A    between atoms: N_12  and  C_13
REMARK    4  A    between atoms: C_15  and  C_18
REMARK    5  A    between atoms: C_18  and  O_22
REMARK    6  A    between atoms: O_22  and  C_25
REMARK    7  A    between atoms: C_23  and  C_26
REMARK    8  A    between atoms: C_23  and  C_27
REMARK    9  A    between atoms: C_25  and  C_28
REMARK                            x       y       z     vdW  Elec       q    Type
REMARK                         _______ _______ _______ _____ _____    ______ ____
ROOT
ATOM      1  C   UNL     1      -8.659  55.012  47.478  0.00  0.00    +0.000 A 
ATOM      2  S   UNL     1      -7.435  54.141  46.676  0.00  0.00    +0.000 S 
ATOM      3  C   UNL     1      -9.924  54.752  46.974  0.00  0.00    +0.000 A 
ATOM      4  C   UNL     1      -8.582  53.213  45.815  0.00  0.00    +0.000 A 
ATOM      5  C   UNL     1      -9.879  53.628  46.061  0.00  0.00    +0.000 A 
ATOM      6  C   UNL     1      -8.200  52.078  44.890  0.00  0.00    +0.000 C 
ATOM      7  C   UNL     1     -11.058  52.998  45.373  0.00  0.00    +0.000 C 
ATOM      8  C   UNL     1      -9.354  51.760  43.888  0.00  0.00    +0.000 C 
ATOM      9  C   UNL     1     -10.697  51.695  44.656  0.00  0.00    +0.000 C 
ATOM     10  C   UNL     1      -9.136  50.391  43.213  0.00  0.00    +0.000 C 
ATOM     11  C   UNL     1      -9.406  52.829  42.778  0.00  0.00    +0.000 C 
ENDROOT
BRANCH   1  15
ATOM     12  N   UNL     1      -7.773  56.102  50.829  0.00  0.00    +0.000 N 
ATOM     13  C   UNL     1      -8.298  55.278  49.812  0.00  0.00    +0.000 C 
ATOM     14  O   UNL     1      -8.698  54.140  50.048  0.00  0.00    +0.000 OA
ATOM     15  N   UNL     1      -8.240  55.814  48.537  0.00  0.00    +0.000 N 
ATOM     16  H   UNL     1      -7.445  57.010  50.634  0.00  0.00    +0.000 HD
ATOM     17  H   UNL     1      -7.913  56.730  48.383  0.00  0.00    +0.000 HD
BRANCH  12  18
ATOM     18  S   UNL     1      -7.732  55.471  52.381  0.00  0.00    +0.000 S 
ATOM     19  O   UNL     1      -7.002  56.399  53.214  0.00  0.00    +0.000 OA
ATOM     20  O   UNL     1      -9.030  54.958  52.748  0.00  0.00    +0.000 OA
BRANCH  18  21
ATOM     21  N   UNL     1      -6.722  54.108  52.180  0.00  0.00    +0.000 NA
ATOM     22  C   UNL     1      -7.080  52.886  52.947  0.00  0.00    +0.000 C 
ATOM     23  C   UNL     1      -5.294  54.407  52.563  0.00  0.00    +0.000 C 
ATOM     24  C   UNL     1      -6.336  53.017  54.260  0.00  0.00    +0.000 C 
ATOM     25  C   UNL     1      -5.011  53.631  53.852  0.00  0.00    +0.000 C 
ENDBRANCH  18  21
ENDBRANCH  12  18
ENDBRANCH   1  15
BRANCH   3  26
ATOM     26  C   UNL     1     -11.106  55.531  47.353  0.00  0.00    +0.000 C 
ATOM     27  O   UNL     1     -11.778  56.164  46.546  0.00  0.00    +0.000 OA
BRANCH  26  28
ATOM     28  O   UNL     1     -11.373  55.455  48.686  0.00  0.00    +0.000 OA
BRANCH  28  29
ATOM     29  C   UNL     1     -11.789  56.657  49.338  0.00  0.00    +0.000 C 
ATOM     30  C   UNL     1     -13.011  56.375  50.189  0.00  0.00    +0.000 C 
ENDBRANCH  28  29
ENDBRANCH  26  28
ENDBRANCH   3  26
TORSDOF 6
ENDMDL
MODEL 8
REMARK VINA RESULT:      -6.8      2.991      4.382
REMARK  Name = 
REMARK  9 active torsions:
REMARK  status: ('A' for Active; 'I' for Inactive)
REMARK    1  A    between atoms: S_1  and  N_4
REMARK    2  A    between atoms: S_1  and  N_5
REMARK    3  A    between atoms: N_12  and  C_13
REMARK    4  A    between atoms: C_15  and  C_18
REMARK    5  A    between atoms: C_18  and  O_22
REMARK    6  A    between atoms: O_22  and  C_25
REMARK    7  A    between atoms: C_23  and  C_26
REMARK    8  A    between atoms: C_23  and  C_27
REMARK    9  A    between atoms: C_25  and  C_28
REMARK                            x       y       z     vdW  Elec       q    Type
REMARK                         _______ _______ _______ _____ _____    ______ ____
ROOT
ATOM      1  C   UNL     1     -11.362  52.851  50.104  0.00  0.00    +0.000 A 
ATOM      2  S   UNL     1      -9.959  53.148  51.021  0.00  0.00    +0.000 S 
ATOM      3  C   UNL     1     -11.193  51.839  49.172  0.00  0.00    +0.000 A 
ATOM      4  C   UNL     1      -9.178  51.772  50.376  0.00  0.00    +0.000 A 
ATOM      5  C   UNL     1      -9.938  51.151  49.400  0.00  0.00    +0.000 A 
ATOM      6  C   UNL     1      -7.810  51.309  50.829  0.00  0.00    +0.000 C 
ATOM      7  C   UNL     1      -9.437  49.950  48.647  0.00  0.00    +0.000 C 
ATOM      8  C   UNL     1      -7.152  50.379  49.761  0.00  0.00    +0.000 C 
ATOM      9  C   UNL     1      -8.190  49.333  49.283  0.00  0.00    +0.000 C 
ATOM     10  C   UNL     1      -5.957  49.612  50.360  0.00  0.00    +0.000 C 
ATOM     11  C   UNL     1      -6.629  51.215  48.576  0.00  0.00    +0.000 C 
ENDROOT
BRANCH   1  15
ATOM     12  N   UNL     1     -13.783  55.559  50.168  0.00  0.00    +0.000 N 
ATOM     13  C   UNL     1     -12.588  54.873  49.868  0.00  0.00    +0.000 C 
ATOM     14  O   UNL     1     -11.755  55.339  49.094  0.00  0.00    +0.000 OA
ATOM     15  N   UNL     1     -12.478  53.615  50.436  0.00  0.00    +0.000 N 
ATOM     16  H   UNL     1     -14.451  55.179  50.782  0.00  0.00    +0.000 HD
ATOM     17  H   UNL     1     -13.164  53.273  51.053  0.00  0.00    +0.000 HD
BRANCH  12  18
ATOM     18  S   UNL     1     -14.015  57.050  49.436  0.00  0.00    +0.000 S 
ATOM     19  O   UNL     1     -12.849  57.858  49.707  0.00  0.00    +0.000 OA
ATOM     20  O   UNL     1     -14.546  56.877  48.105  0.00  0.00    +0.000 OA
BRANCH  18  21
ATOM     21  N   UNL     1     -15.284  57.707  50.372  0.00  0.00    +0.000 NA
ATOM     22  C   UNL     1     -14.956  58.880  51.223  0.00  0.00    +0.000 C 
ATOM     23  C   UNL     1     -15.868  56.687  51.319  0.00  0.00    +0.000 C 
ATOM     24  C   UNL     1     -14.525  58.292  52.550  0.00  0.00    +0.000 C 
ATOM     25  C   UNL     1     -15.460  57.113  52.732  0.00  0.00    +0.000 C 
ENDBRANCH  18  21
ENDBRANCH  12  18
ENDBRANCH   1  15
BRANCH   3  26
ATOM     26  C   UNL     1     -12.180  51.546  48.129  0.00  0.00    +0.000 C 
ATOM     27  O   UNL     1     -12.745  50.462  48.027  0.00  0.00    +0.000 OA
BRANCH  26  28
ATOM     28  O   UNL     1     -12.404  52.611  47.311  0.00  0.00    +0.000 OA
BRANCH  28  29
ATOM     29  C   UNL     1     -11.578  52.728  46.150  0.00  0.00    +0.000 C 
ATOM     30  C   UNL     1     -11.453  54.187  45.761  0.00  0.00    +0.000 C 
ENDBRANCH  28  29
ENDBRANCH  26  28
ENDBRANCH   3  26
TORSDOF 6
ENDMDL
MODEL 9
REMARK VINA RESULT:      -6.8      2.910      8.183
REMARK  Name = 
REMARK  9 active torsions:
REMARK  status: ('A' for Active; 'I' for Inactive)
REMARK    1  A    between atoms: S_1  and  N_4
REMARK    2  A    between atoms: S_1  and  N_5
REMARK    3  A    between atoms: N_12  and  C_13
REMARK    4  A    between atoms: C_15  and  C_18
REMARK    5  A    between atoms: C_18  and  O_22
REMARK    6  A    between atoms: O_22  and  C_25
REMARK    7  A    between atoms: C_23  and  C_26
REMARK    8  A    between atoms: C_23  and  C_27
REMARK    9  A    between atoms: C_25  and  C_28
REMARK                            x       y       z     vdW  Elec       q    Type
REMARK                         _______ _______ _______ _____ _____    ______ ____
ROOT
ATOM      1  C   UNL     1     -11.068  55.727  48.031  0.00  0.00    +0.000 A 
ATOM      2  S   UNL     1     -12.658  56.063  47.523  0.00  0.00    +0.000 S 
ATOM      3  C   UNL     1     -10.885  55.921  49.391  0.00  0.00    +0.000 A 
ATOM      4  C   UNL     1     -13.198  56.227  49.136  0.00  0.00    +0.000 A 
ATOM      5  C   UNL     1     -12.161  56.125  50.046  0.00  0.00    +0.000 A 
ATOM      6  C   UNL     1     -14.648  56.463  49.502  0.00  0.00    +0.000 C 
ATOM      7  C   UNL     1     -12.381  56.293  51.524  0.00  0.00    +0.000 C 
ATOM      8  C   UNL     1     -14.771  57.061  50.939  0.00  0.00    +0.000 C 
ATOM      9  C   UNL     1     -13.862  56.263  51.907  0.00  0.00    +0.000 C 
ATOM     10  C   UNL     1     -16.218  56.950  51.459  0.00  0.00    +0.000 C 
ATOM     11  C   UNL     1     -14.388  58.554  50.930  0.00  0.00    +0.000 C 
ENDROOT
BRANCH   1  15
ATOM     12  N   UNL     1      -9.295  53.510  45.764  0.00  0.00    +0.000 N 
ATOM     13  C   UNL     1     -10.120  53.904  46.838  0.00  0.00    +0.000 C 
ATOM     14  O   UNL     1     -10.773  53.086  47.481  0.00  0.00    +0.000 OA
ATOM     15  N   UNL     1     -10.199  55.271  47.044  0.00  0.00    +0.000 N 
ATOM     16  H   UNL     1      -8.779  54.169  45.246  0.00  0.00    +0.000 HD
ATOM     17  H   UNL     1      -9.660  55.898  46.509  0.00  0.00    +0.000 HD
BRANCH  12  18
ATOM     18  S   UNL     1      -9.230  51.873  45.409  0.00  0.00    +0.000 S 
ATOM     19  O   UNL     1      -8.432  51.233  46.429  0.00  0.00    +0.000 OA
ATOM     20  O   UNL     1     -10.536  51.389  45.031  0.00  0.00    +0.000 OA
BRANCH  18  21
ATOM     21  N   UNL     1      -8.288  51.860  43.983  0.00  0.00    +0.000 NA
ATOM     22  C   UNL     1      -8.962  52.279  42.727  0.00  0.00    +0.000 C 
ATOM     23  C   UNL     1      -7.732  50.488  43.691  0.00  0.00    +0.000 C 
ATOM     24  C   UNL     1      -9.532  51.002  42.145  0.00  0.00    +0.000 C 
ATOM     25  C   UNL     1      -8.465  49.970  42.451  0.00  0.00    +0.000 C 
ENDBRANCH  18  21
ENDBRANCH  12  18
ENDBRANCH   1  15
BRANCH   3  26
ATOM     26  C   UNL     1      -9.563  55.903  50.025  0.00  0.00    +0.000 C 
ATOM     27  O   UNL     1      -8.672  56.696  49.739  0.00  0.00    +0.000 OA
BRANCH  26  28
ATOM     28  O   UNL     1      -9.452  54.926  50.966  0.00  0.00    +0.000 OA
BRANCH  28  29
ATOM     29  C   UNL     1      -8.680  55.227  52.132  0.00  0.00    +0.000 C 
ATOM     30  C   UNL     1      -8.196  53.938  52.765  0.00  0.00    +0.000 C 
ENDBRANCH  28  29
ENDBRANCH  26  28
ENDBRANCH   3  26
TORSDOF 6
ENDMDL
