MODEL 1
REMARK VINA RESULT:      -7.9      0.000      0.000
REMARK  Name = 
REMARK  7 active torsions:
REMARK  status: ('A' for Active; 'I' for Inactive)
REMARK    1  A    between atoms: S_1  and  N_4
REMARK    2  A    between atoms: S_1  and  C_5
REMARK    3  A    between atoms: N_10  and  C_14
REMARK    4  A    between atoms: C_19  and  C_23
REMARK    5  A    between atoms: C_23  and  O_27
REMARK    6  A    between atoms: O_27  and  C_30
REMARK    7  A    between atoms: C_30  and  C_31
REMARK                            x       y       z     vdW  Elec       q    Type
REMARK                         _______ _______ _______ _____ _____    ______ ____
ROOT
ATOM      1  N   UNL     1     -11.125  56.625  49.424  0.00  0.00    +0.000 N 
ATOM      2  C   UNL     1     -10.155  55.625  49.360  0.00  0.00    +0.000 C 
ATOM      3  O   UNL     1     -10.453  54.538  48.897  0.00  0.00    +0.000 OA
ATOM      4  N   UNL     1      -8.941  55.989  49.901  0.00  0.00    +0.000 N 
ATOM      5  H   UNL     1     -10.874  57.509  49.777  0.00  0.00    +0.000 HD
ATOM      6  H   UNL     1      -8.860  56.900  50.267  0.00  0.00    +0.000 HD
ENDROOT
BRANCH   4   7
ATOM      7  C   UNL     1      -7.817  55.162  49.966  0.00  0.00    +0.000 A 
ATOM      8  S   UNL     1      -6.909  54.864  48.558  0.00  0.00    +0.000 S 
ATOM      9  C   UNL     1      -7.261  54.545  51.086  0.00  0.00    +0.000 A 
ATOM     10  C   UNL     1      -5.852  53.824  49.353  0.00  0.00    +0.000 A 
ATOM     11  C   UNL     1      -6.110  53.733  50.706  0.00  0.00    +0.000 A 
ATOM     12  C   UNL     1      -4.746  53.149  48.608  0.00  0.00    +0.000 C 
ATOM     13  C   UNL     1      -5.255  52.851  51.580  0.00  0.00    +0.000 C 
ATOM     14  C   UNL     1      -4.129  52.031  49.452  0.00  0.00    +0.000 C 
ATOM     15  C   UNL     1      -3.926  52.473  50.904  0.00  0.00    +0.000 C 
BRANCH   9  16
ATOM     16  C   UNL     1      -7.797  54.744  52.437  0.00  0.00    +0.000 C 
ATOM     17  O   UNL     1      -8.900  54.328  52.785  0.00  0.00    +0.000 OA
BRANCH  16  18
ATOM     18  O   UNL     1      -6.984  55.508  53.216  0.00  0.00    +0.000 OA
BRANCH  18  19
ATOM     19  C   UNL     1      -6.569  54.950  54.469  0.00  0.00    +0.000 C 
ATOM     20  C   UNL     1      -5.050  54.975  54.521  0.00  0.00    +0.000 C 
ENDBRANCH  18  19
ENDBRANCH  16  18
ENDBRANCH   9  16
ENDBRANCH   4   7
BRANCH   1  21
ATOM     21  S   UNL     1     -12.701  56.372  48.920  0.00  0.00    +0.000 S 
ATOM     22  O   UNL     1     -13.204  55.189  49.586  0.00  0.00    +0.000 OA
ATOM     23  O   UNL     1     -12.665  56.419  47.471  0.00  0.00    +0.000 OA
BRANCH  21  24
ATOM     24  C   UNL     1     -13.612  57.806  49.482  0.00  0.00    +0.000 A 
ATOM     25  C   UNL     1     -14.054  57.933  50.829  0.00  0.00    +0.000 A 
ATOM     26  C   UNL     1     -13.872  58.812  48.536  0.00  0.00    +0.000 A 
ATOM     27  C   UNL     1     -14.769  59.111  51.178  0.00  0.00    +0.000 A 
ATOM     28  C   UNL     1     -13.843  56.982  51.860  0.00  0.00    +0.000 A 
ATOM     29  C   UNL     1     -14.567  59.959  48.906  0.00  0.00    +0.000 A 
ATOM     30  C   UNL     1     -15.009  60.106  50.217  0.00  0.00    +0.000 A 
ATOM     31  C   UNL     1     -15.238  59.294  52.489  0.00  0.00    +0.000 A 
ATOM     32  C   UNL     1     -14.320  57.177  53.157  0.00  0.00    +0.000 A 
ATOM     33  C   UNL     1     -15.017  58.333  53.472  0.00  0.00    +0.000 A 
ENDBRANCH  21  24
ENDBRANCH   1  21
TORSDOF 6
ENDMDL
MODEL 2
REMARK VINA RESULT:      -7.8      3.721      8.789
REMARK  Name = 
REMARK  7 active torsions:
REMARK  status: ('A' for Active; 'I' for Inactive)
REMARK    1  A    between atoms: S_1  and  N_4
REMARK    2  A    between atoms: S_1  and  C_5
REMARK    3  A    between atoms: N_10  and  C_14
REMARK    4  A    between atoms: C_19  and  C_23
REMARK    5  A    between atoms: C_23  and  O_27
REMARK    6  A    between atoms: O_27  and  C_30
REMARK    7  A    between atoms: C_30  and  C_31
REMARK                            x       y       z     vdW  Elec       q    Type
REMARK                         _______ _______ _______ _____ _____    ______ ____
ROOT
ATOM      1  N   UNL     1      -9.817  54.199  47.358  0.00  0.00    +0.000 N 
ATOM      2  C   UNL     1     -10.337  55.164  48.219  0.00  0.00    +0.000 C 
ATOM      3  O   UNL     1      -9.607  56.050  48.628  0.00  0.00    +0.000 OA
ATOM      4  N   UNL     1     -11.656  54.959  48.557  0.00  0.00    +0.000 N 
ATOM      5  H   UNL     1     -10.415  53.499  47.011  0.00  0.00    +0.000 HD
ATOM      6  H   UNL     1     -12.110  54.176  48.167  0.00  0.00    +0.000 HD
ENDROOT
BRANCH   4   7
ATOM      7  C   UNL     1     -12.399  55.778  49.411  0.00  0.00    +0.000 A 
ATOM      8  S   UNL     1     -13.362  57.020  48.758  0.00  0.00    +0.000 S 
ATOM      9  C   UNL     1     -12.518  55.700  50.798  0.00  0.00    +0.000 A 
ATOM     10  C   UNL     1     -13.850  57.560  50.275  0.00  0.00    +0.000 A 
ATOM     11  C   UNL     1     -13.362  56.778  51.302  0.00  0.00    +0.000 A 
ATOM     12  C   UNL     1     -14.758  58.740  50.406  0.00  0.00    +0.000 C 
ATOM     13  C   UNL     1     -13.706  57.109  52.732  0.00  0.00    +0.000 C 
ATOM     14  C   UNL     1     -14.805  59.228  51.856  0.00  0.00    +0.000 C 
ATOM     15  C   UNL     1     -14.911  58.058  52.837  0.00  0.00    +0.000 C 
BRANCH   9  16
ATOM     16  C   UNL     1     -11.874  54.639  51.581  0.00  0.00    +0.000 C 
ATOM     17  O   UNL     1     -12.163  53.451  51.458  0.00  0.00    +0.000 OA
BRANCH  16  18
ATOM     18  O   UNL     1     -11.001  55.125  52.504  0.00  0.00    +0.000 OA
BRANCH  18  19
ATOM     19  C   UNL     1      -9.609  55.102  52.161  0.00  0.00    +0.000 C 
ATOM     20  C   UNL     1      -8.818  54.748  53.409  0.00  0.00    +0.000 C 
ENDBRANCH  18  19
ENDBRANCH  16  18
ENDBRANCH   9  16
ENDBRANCH   4   7
BRANCH   1  21
ATOM     21  S   UNL     1      -8.208  54.191  46.895  0.00  0.00    +0.000 S 
ATOM     22  O   UNL     1      -7.394  54.325  48.084  0.00  0.00    +0.000 OA
ATOM     23  O   UNL     1      -8.097  55.174  45.834  0.00  0.00    +0.000 OA
BRANCH  21  24
ATOM     24  C   UNL     1      -7.936  52.580  46.163  0.00  0.00    +0.000 A 
ATOM     25  C   UNL     1      -8.534  52.208  44.926  0.00  0.00    +0.000 A 
ATOM     26  C   UNL     1      -7.100  51.691  46.861  0.00  0.00    +0.000 A 
ATOM     27  C   UNL     1      -8.257  50.906  44.427  0.00  0.00    +0.000 A 
ATOM     28  C   UNL     1      -9.389  53.026  44.144  0.00  0.00    +0.000 A 
ATOM     29  C   UNL     1      -6.838  50.426  46.346  0.00  0.00    +0.000 A 
ATOM     30  C   UNL     1      -7.412  50.040  45.138  0.00  0.00    +0.000 A 
ATOM     31  C   UNL     1      -8.822  50.476  43.216  0.00  0.00    +0.000 A 
ATOM     32  C   UNL     1      -9.946  52.582  42.944  0.00  0.00    +0.000 A 
ATOM     33  C   UNL     1      -9.662  51.306  42.479  0.00  0.00    +0.000 A 
ENDBRANCH  21  24
ENDBRANCH   1  21
TORSDOF 6
ENDMDL
MODEL 3
REMARK VINA RESULT:      -7.8      2.135      8.566
REMARK  Name = 
REMARK  7 active torsions:
REMARK  status: ('A' for Active; 'I' for Inactive)
REMARK    1  A    between atoms: S_1  and  N_4
REMARK    2  A    between atoms: S_1  and  C_5
REMARK    3  A    between atoms: N_10  and  C_14
REMARK    4  A    between atoms: C_19  and  C_23
REMARK    5  A    between atoms: C_23  and  O_27
REMARK    6  A    between atoms: O_27  and  C_30
REMARK    7  A    between atoms: C_30  and  C_31
REMARK                            x       y       z     vdW  Elec       q    Type
REMARK                         _______ _______ _______ _____ _____    ______ ____
ROOT
ATOM      1  N   UNL     1     -10.919  52.826  51.675  0.00  0.00    +0.000 N 
ATOM      2  C   UNL     1     -11.252  54.180  51.655  0.00  0.00    +0.000 C 
ATOM      3  O   UNL     1     -10.600  54.962  52.325  0.00  0.00    +0.000 OA
ATOM      4  N   UNL     1     -12.357  54.472  50.887  0.00  0.00    +0.000 N 
ATOM      5  H   UNL     1     -11.432  52.201  51.114  0.00  0.00    +0.000 HD
ATOM      6  H   UNL     1     -12.801  53.724  50.423  0.00  0.00    +0.000 HD
ENDROOT
BRANCH   4   7
ATOM      7  C   UNL     1     -12.896  55.750  50.716  0.00  0.00    +0.000 A 
ATOM      8  S   UNL     1     -13.707  56.501  52.010  0.00  0.00    +0.000 S 
ATOM      9  C   UNL     1     -12.824  56.575  49.595  0.00  0.00    +0.000 A 
ATOM     10  C   UNL     1     -14.092  57.859  51.096  0.00  0.00    +0.000 A 
ATOM     11  C   UNL     1     -13.559  57.816  49.824  0.00  0.00    +0.000 A 
ATOM     12  C   UNL     1     -14.888  58.976  51.691  0.00  0.00    +0.000 C 
ATOM     13  C   UNL     1     -13.795  58.955  48.866  0.00  0.00    +0.000 C 
ATOM     14  C   UNL     1     -15.374  59.934  50.602  0.00  0.00    +0.000 C 
ATOM     15  C   UNL     1     -14.271  60.230  49.583  0.00  0.00    +0.000 C 
BRANCH   9  16
ATOM     16  C   UNL     1     -12.077  56.198  48.390  0.00  0.00    +0.000 C 
ATOM     17  O   UNL     1     -12.618  56.002  47.304  0.00  0.00    +0.000 OA
BRANCH  16  18
ATOM     18  O   UNL     1     -10.752  56.006  48.634  0.00  0.00    +0.000 OA
BRANCH  18  19
ATOM     19  C   UNL     1     -10.139  54.857  48.035  0.00  0.00    +0.000 C 
ATOM     20  C   UNL     1      -9.036  55.338  47.107  0.00  0.00    +0.000 C 
ENDBRANCH  18  19
ENDBRANCH  16  18
ENDBRANCH   9  16
ENDBRANCH   4   7
BRANCH   1  21
ATOM     21  S   UNL     1      -9.674  52.228  52.621  0.00  0.00    +0.000 S 
ATOM     22  O   UNL     1      -9.657  50.787  52.488  0.00  0.00    +0.000 OA
ATOM     23  O   UNL     1      -9.851  52.827  53.931  0.00  0.00    +0.000 OA
BRANCH  21  24
ATOM     24  C   UNL     1      -8.177  52.911  51.917  0.00  0.00    +0.000 A 
ATOM     25  C   UNL     1      -7.121  53.403  52.734  0.00  0.00    +0.000 A 
ATOM     26  C   UNL     1      -8.082  52.939  50.515  0.00  0.00    +0.000 A 
ATOM     27  C   UNL     1      -5.972  53.925  52.080  0.00  0.00    +0.000 A 
ATOM     28  C   UNL     1      -7.114  53.420  54.153  0.00  0.00    +0.000 A 
ATOM     29  C   UNL     1      -6.943  53.448  49.900  0.00  0.00    +0.000 A 
ATOM     30  C   UNL     1      -5.898  53.935  50.678  0.00  0.00    +0.000 A 
ATOM     31  C   UNL     1      -4.898  54.433  52.829  0.00  0.00    +0.000 A 
ATOM     32  C   UNL     1      -6.040  53.932  54.883  0.00  0.00    +0.000 A 
ATOM     33  C   UNL     1      -4.932  54.438  54.221  0.00  0.00    +0.000 A 
ENDBRANCH  21  24
ENDBRANCH   1  21
TORSDOF 6
ENDMDL
MODEL 4
REMARK VINA RESULT:      -7.7      2.246      7.755
REMARK  Name = 
REMARK  7 active torsions:
REMARK  status: ('A' for Active; 'I' for Inactive)
REMARK    1  A    between atoms: S_1  and  N_4
REMARK    2  A    between atoms: S_1  and  C_5
REMARK    3  A    between atoms: N_10  and  C_14
REMARK    4  A    between atoms: C_19  and  C_23
REMARK    5  A    between atoms: C_23  and  O_27
REMARK    6  A    between atoms: O_27  and  C_30
REMARK    7  A    between atoms: C_30  and  C_31
REMARK                            x       y       z     vdW  Elec       q    Type
REMARK                         _______ _______ _______ _____ _____    ______ ____
ROOT
ATOM      1  N   UNL     1     -10.372  54.144  47.275  0.00  0.00    +0.000 N 
ATOM      2  C   UNL     1     -10.813  55.111  48.177  0.00  0.00    +0.000 C 
ATOM      3  O   UNL     1     -10.027  55.950  48.581  0.00  0.00    +0.000 OA
ATOM      4  N   UNL     1     -12.129  54.961  48.558  0.00  0.00    +0.000 N 
ATOM      5  H   UNL     1     -11.017  53.483  46.933  0.00  0.00    +0.000 HD
ATOM      6  H   UNL     1     -12.634  54.212  48.166  0.00  0.00    +0.000 HD
ENDROOT
BRANCH   4   7
ATOM      7  C   UNL     1     -12.799  55.794  49.458  0.00  0.00    +0.000 A 
ATOM      8  S   UNL     1     -13.848  56.998  48.869  0.00  0.00    +0.000 S 
ATOM      9  C   UNL     1     -12.778  55.756  50.852  0.00  0.00    +0.000 A 
ATOM     10  C   UNL     1     -14.193  57.575  50.411  0.00  0.00    +0.000 A 
ATOM     11  C   UNL     1     -13.590  56.834  51.407  0.00  0.00    +0.000 A 
ATOM     12  C   UNL     1     -15.108  58.743  50.598  0.00  0.00    +0.000 C 
ATOM     13  C   UNL     1     -13.796  57.203  52.854  0.00  0.00    +0.000 C 
ATOM     14  C   UNL     1     -15.021  59.274  52.031  0.00  0.00    +0.000 C 
ATOM     15  C   UNL     1     -15.005  58.133  53.051  0.00  0.00    +0.000 C 
BRANCH   9  16
ATOM     16  C   UNL     1     -12.038  54.731  51.596  0.00  0.00    +0.000 C 
ATOM     17  O   UNL     1     -12.278  53.530  51.495  0.00  0.00    +0.000 OA
BRANCH  16  18
ATOM     18  O   UNL     1     -11.133  55.263  52.462  0.00  0.00    +0.000 OA
BRANCH  18  19
ATOM     19  C   UNL     1      -9.746  55.099  52.139  0.00  0.00    +0.000 C 
ATOM     20  C   UNL     1      -8.990  54.810  53.425  0.00  0.00    +0.000 C 
ENDBRANCH  18  19
ENDBRANCH  16  18
ENDBRANCH   9  16
ENDBRANCH   4   7
BRANCH   1  21
ATOM     21  S   UNL     1      -8.783  54.070  46.753  0.00  0.00    +0.000 S 
ATOM     22  O   UNL     1      -8.480  55.299  46.050  0.00  0.00    +0.000 OA
ATOM     23  O   UNL     1      -8.651  52.799  46.068  0.00  0.00    +0.000 OA
BRANCH  21  24
ATOM     24  C   UNL     1      -7.801  53.979  48.247  0.00  0.00    +0.000 A 
ATOM     25  C   UNL     1      -8.059  53.008  49.255  0.00  0.00    +0.000 A 
ATOM     26  C   UNL     1      -6.756  54.909  48.385  0.00  0.00    +0.000 A 
ATOM     27  C   UNL     1      -7.223  53.016  50.405  0.00  0.00    +0.000 A 
ATOM     28  C   UNL     1      -9.084  52.028  49.214  0.00  0.00    +0.000 A 
ATOM     29  C   UNL     1      -5.948  54.890  49.517  0.00  0.00    +0.000 A 
ATOM     30  C   UNL     1      -6.180  53.949  50.516  0.00  0.00    +0.000 A 
ATOM     31  C   UNL     1      -7.429  52.089  51.439  0.00  0.00    +0.000 A 
ATOM     32  C   UNL     1      -9.278  51.115  50.252  0.00  0.00    +0.000 A 
ATOM     33  C   UNL     1      -8.451  51.145  51.365  0.00  0.00    +0.000 A 
ENDBRANCH  21  24
ENDBRANCH   1  21
TORSDOF 6
ENDMDL
MODEL 5
REMARK VINA RESULT:      -7.7      2.222      8.465
REMARK  Name = 
REMARK  7 active torsions:
REMARK  status: ('A' for Active; 'I' for Inactive)
REMARK    1  A    between atoms: S_1  and  N_4
REMARK    2  A    between atoms: S_1  and  C_5
REMARK    3  A    between atoms: N_10  and  C_14
REMARK    4  A    between atoms: C_19  and  C_23
REMARK    5  A    between atoms: C_23  and  O_27
REMARK    6  A    between atoms: O_27  and  C_30
REMARK    7  A    between atoms: C_30  and  C_31
REMARK                            x       y       z     vdW  Elec       q    Type
REMARK                         _______ _______ _______ _____ _____    ______ ____
ROOT
ATOM      1  N   UNL     1     -11.035  52.718  51.914  0.00  0.00    +0.000 N 
ATOM      2  C   UNL     1     -11.358  54.074  51.875  0.00  0.00    +0.000 C 
ATOM      3  O   UNL     1     -10.756  54.849  52.598  0.00  0.00    +0.000 OA
ATOM      4  N   UNL     1     -12.400  54.376  51.026  0.00  0.00    +0.000 N 
ATOM      5  H   UNL     1     -11.507  52.099  51.311  0.00  0.00    +0.000 HD
ATOM      6  H   UNL     1     -12.810  53.633  50.525  0.00  0.00    +0.000 HD
ENDROOT
BRANCH   4   7
ATOM      7  C   UNL     1     -12.917  55.658  50.820  0.00  0.00    +0.000 A 
ATOM      8  S   UNL     1     -13.676  56.474  52.106  0.00  0.00    +0.000 S 
ATOM      9  C   UNL     1     -12.859  56.439  49.667  0.00  0.00    +0.000 A 
ATOM     10  C   UNL     1     -14.058  57.805  51.151  0.00  0.00    +0.000 A 
ATOM     11  C   UNL     1     -13.561  57.702  49.868  0.00  0.00    +0.000 A 
ATOM     12  C   UNL     1     -14.815  58.960  51.725  0.00  0.00    +0.000 C 
ATOM     13  C   UNL     1     -13.801  58.810  48.873  0.00  0.00    +0.000 C 
ATOM     14  C   UNL     1     -15.311  59.887  50.613  0.00  0.00    +0.000 C 
ATOM     15  C   UNL     1     -14.230  60.120  49.554  0.00  0.00    +0.000 C 
BRANCH   9  16
ATOM     16  C   UNL     1     -12.153  56.000  48.458  0.00  0.00    +0.000 C 
ATOM     17  O   UNL     1     -12.577  56.212  47.324  0.00  0.00    +0.000 OA
BRANCH  16  18
ATOM     18  O   UNL     1     -11.042  55.266  48.737  0.00  0.00    +0.000 OA
BRANCH  18  19
ATOM     19  C   UNL     1      -9.773  55.872  48.458  0.00  0.00    +0.000 C 
ATOM     20  C   UNL     1      -9.175  56.350  49.771  0.00  0.00    +0.000 C 
ENDBRANCH  18  19
ENDBRANCH  16  18
ENDBRANCH   9  16
ENDBRANCH   4   7
BRANCH   1  21
ATOM     21  S   UNL     1      -9.871  52.108  52.951  0.00  0.00    +0.000 S 
ATOM     22  O   UNL     1      -9.660  50.714  52.624  0.00  0.00    +0.000 OA
ATOM     23  O   UNL     1     -10.300  52.476  54.286  0.00  0.00    +0.000 OA
BRANCH  21  24
ATOM     24  C   UNL     1      -8.385  53.038  52.589  0.00  0.00    +0.000 A 
ATOM     25  C   UNL     1      -7.867  53.139  51.267  0.00  0.00    +0.000 A 
ATOM     26  C   UNL     1      -7.747  53.673  53.668  0.00  0.00    +0.000 A 
ATOM     27  C   UNL     1      -6.682  53.901  51.081  0.00  0.00    +0.000 A 
ATOM     28  C   UNL     1      -8.432  52.540  50.111  0.00  0.00    +0.000 A 
ATOM     29  C   UNL     1      -6.592  54.420  53.458  0.00  0.00    +0.000 A 
ATOM     30  C   UNL     1      -6.067  54.533  52.174  0.00  0.00    +0.000 A 
ATOM     31  C   UNL     1      -6.116  54.033  49.803  0.00  0.00    +0.000 A 
ATOM     32  C   UNL     1      -7.855  52.679  48.848  0.00  0.00    +0.000 A 
ATOM     33  C   UNL     1      -6.697  53.425  48.693  0.00  0.00    +0.000 A 
ENDBRANCH  21  24
ENDBRANCH   1  21
TORSDOF 6
ENDMDL
MODEL 6
REMARK VINA RESULT:      -7.6      3.895      5.162
REMARK  Name = 
REMARK  7 active torsions:
REMARK  status: ('A' for Active; 'I' for Inactive)
REMARK    1  A    between atoms: S_1  and  N_4
REMARK    2  A    between atoms: S_1  and  C_5
REMARK    3  A    between atoms: N_10  and  C_14
REMARK    4  A    between atoms: C_19  and  C_23
REMARK    5  A    between atoms: C_23  and  O_27
REMARK    6  A    between atoms: O_27  and  C_30
REMARK    7  A    between atoms: C_30  and  C_31
REMARK                            x       y       z     vdW  Elec       q    Type
REMARK                         _______ _______ _______ _____ _____    ______ ____
ROOT
ATOM      1  N   UNL     1     -11.953  55.876  48.166  0.00  0.00    +0.000 N 
ATOM      2  C   UNL     1     -11.475  54.699  47.590  0.00  0.00    +0.000 C 
ATOM      3  O   UNL     1     -11.405  53.690  48.271  0.00  0.00    +0.000 OA
ATOM      4  N   UNL     1     -11.075  54.840  46.280  0.00  0.00    +0.000 N 
ATOM      5  H   UNL     1     -12.030  56.681  47.606  0.00  0.00    +0.000 HD
ATOM      6  H   UNL     1     -11.165  55.731  45.869  0.00  0.00    +0.000 HD
ENDROOT
BRANCH   4   7
ATOM      7  C   UNL     1     -10.551  53.813  45.489  0.00  0.00    +0.000 A 
ATOM      8  S   UNL     1     -11.595  52.637  44.839  0.00  0.00    +0.000 S 
ATOM      9  C   UNL     1      -9.231  53.620  45.086  0.00  0.00    +0.000 A 
ATOM     10  C   UNL     1     -10.332  51.782  44.129  0.00  0.00    +0.000 A 
ATOM     11  C   UNL     1      -9.108  52.397  44.299  0.00  0.00    +0.000 A 
ATOM     12  C   UNL     1     -10.600  50.524  43.367  0.00  0.00    +0.000 C 
ATOM     13  C   UNL     1      -7.863  51.775  43.721  0.00  0.00    +0.000 C 
ATOM     14  C   UNL     1      -9.296  49.771  43.092  0.00  0.00    +0.000 C 
ATOM     15  C   UNL     1      -8.183  50.723  42.646  0.00  0.00    +0.000 C 
BRANCH   9  16
ATOM     16  C   UNL     1      -8.162  54.568  45.423  0.00  0.00    +0.000 C 
ATOM     17  O   UNL     1      -7.515  55.172  44.571  0.00  0.00    +0.000 OA
BRANCH  16  18
ATOM     18  O   UNL     1      -7.917  54.627  46.760  0.00  0.00    +0.000 OA
BRANCH  18  19
ATOM     19  C   UNL     1      -7.213  53.523  47.344  0.00  0.00    +0.000 C 
ATOM     20  C   UNL     1      -7.993  53.052  48.560  0.00  0.00    +0.000 C 
ENDBRANCH  18  19
ENDBRANCH  16  18
ENDBRANCH   9  16
ENDBRANCH   4   7
BRANCH   1  21
ATOM     21  S   UNL     1     -12.398  55.963  49.777  0.00  0.00    +0.000 S 
ATOM     22  O   UNL     1     -11.195  56.060  50.575  0.00  0.00    +0.000 OA
ATOM     23  O   UNL     1     -13.317  54.861  49.993  0.00  0.00    +0.000 OA
BRANCH  21  24
ATOM     24  C   UNL     1     -13.336  57.480  49.925  0.00  0.00    +0.000 A 
ATOM     25  C   UNL     1     -13.991  57.842  51.136  0.00  0.00    +0.000 A 
ATOM     26  C   UNL     1     -13.398  58.309  48.791  0.00  0.00    +0.000 A 
ATOM     27  C   UNL     1     -14.710  59.067  51.153  0.00  0.00    +0.000 A 
ATOM     28  C   UNL     1     -13.990  57.081  52.333  0.00  0.00    +0.000 A 
ATOM     29  C   UNL     1     -14.103  59.507  48.838  0.00  0.00    +0.000 A 
ATOM     30  C   UNL     1     -14.751  59.882  50.010  0.00  0.00    +0.000 A 
ATOM     31  C   UNL     1     -15.384  59.478  52.315  0.00  0.00    +0.000 A 
ATOM     32  C   UNL     1     -14.668  57.502  53.478  0.00  0.00    +0.000 A 
ATOM     33  C   UNL     1     -15.366  58.700  53.469  0.00  0.00    +0.000 A 
ENDBRANCH  21  24
ENDBRANCH   1  21
TORSDOF 6
ENDMDL
MODEL 7
REMARK VINA RESULT:      -7.5      1.729      3.114
REMARK  Name = 
REMARK  7 active torsions:
REMARK  status: ('A' for Active; 'I' for Inactive)
REMARK    1  A    between atoms: S_1  and  N_4
REMARK    2  A    between atoms: S_1  and  C_5
REMARK    3  A    between atoms: N_10  and  C_14
REMARK    4  A    between atoms: C_19  and  C_23
REMARK    5  A    between atoms: C_23  and  O_27
REMARK    6  A    between atoms: O_27  and  C_30
REMARK    7  A    between atoms: C_30  and  C_31
REMARK                            x       y       z     vdW  Elec       q    Type
REMARK                         _______ _______ _______ _____ _____    ______ ____
ROOT
ATOM      1  N   UNL     1     -10.962  56.283  49.694  0.00  0.00    +0.000 N 
ATOM      2  C   UNL     1     -10.042  55.497  50.387  0.00  0.00    +0.000 C 
ATOM      3  O   UNL     1     -10.414  54.452  50.891  0.00  0.00    +0.000 OA
ATOM      4  N   UNL     1      -8.782  56.048  50.463  0.00  0.00    +0.000 N 
ATOM      5  H   UNL     1     -10.652  57.114  49.268  0.00  0.00    +0.000 HD
ATOM      6  H   UNL     1      -8.639  56.921  50.028  0.00  0.00    +0.000 HD
ENDROOT
BRANCH   4   7
ATOM      7  C   UNL     1      -7.692  55.462  51.112  0.00  0.00    +0.000 A 
ATOM      8  S   UNL     1      -7.423  55.782  52.761  0.00  0.00    +0.000 S 
ATOM      9  C   UNL     1      -6.761  54.561  50.596  0.00  0.00    +0.000 A 
ATOM     10  C   UNL     1      -6.018  54.858  52.803  0.00  0.00    +0.000 A 
ATOM     11  C   UNL     1      -5.758  54.228  51.602  0.00  0.00    +0.000 A 
ATOM     12  C   UNL     1      -5.221  54.742  54.062  0.00  0.00    +0.000 C 
ATOM     13  C   UNL     1      -4.541  53.350  51.458  0.00  0.00    +0.000 C 
ATOM     14  C   UNL     1      -3.849  54.126  53.778  0.00  0.00    +0.000 C 
ATOM     15  C   UNL     1      -3.956  52.938  52.819  0.00  0.00    +0.000 C 
BRANCH   9  16
ATOM     16  C   UNL     1      -6.849  54.041  49.227  0.00  0.00    +0.000 C 
ATOM     17  O   UNL     1      -6.558  52.884  48.934  0.00  0.00    +0.000 OA
BRANCH  16  18
ATOM     18  O   UNL     1      -7.198  54.998  48.325  0.00  0.00    +0.000 OA
BRANCH  18  19
ATOM     19  C   UNL     1      -7.255  54.605  46.947  0.00  0.00    +0.000 C 
ATOM     20  C   UNL     1      -8.614  55.000  46.396  0.00  0.00    +0.000 C 
ENDBRANCH  18  19
ENDBRANCH  16  18
ENDBRANCH   9  16
ENDBRANCH   4   7
BRANCH   1  21
ATOM     21  S   UNL     1     -12.577  55.859  49.563  0.00  0.00    +0.000 S 
ATOM     22  O   UNL     1     -12.899  54.964  50.654  0.00  0.00    +0.000 OA
ATOM     23  O   UNL     1     -12.759  55.417  48.194  0.00  0.00    +0.000 OA
BRANCH  21  24
ATOM     24  C   UNL     1     -13.483  57.390  49.759  0.00  0.00    +0.000 A 
ATOM     25  C   UNL     1     -14.056  57.768  51.006  0.00  0.00    +0.000 A 
ATOM     26  C   UNL     1     -13.604  58.213  48.626  0.00  0.00    +0.000 A 
ATOM     27  C   UNL     1     -14.755  59.004  51.060  0.00  0.00    +0.000 A 
ATOM     28  C   UNL     1     -13.991  57.014  52.206  0.00  0.00    +0.000 A 
ATOM     29  C   UNL     1     -14.287  59.422  48.709  0.00  0.00    +0.000 A 
ATOM     30  C   UNL     1     -14.856  59.812  49.917  0.00  0.00    +0.000 A 
ATOM     31  C   UNL     1     -15.350  59.430  52.259  0.00  0.00    +0.000 A 
ATOM     32  C   UNL     1     -14.590  57.451  53.389  0.00  0.00    +0.000 A 
ATOM     33  C   UNL     1     -15.270  58.659  53.415  0.00  0.00    +0.000 A 
ENDBRANCH  21  24
ENDBRANCH   1  21
TORSDOF 6
ENDMDL
MODEL 8
REMARK VINA RESULT:      -7.5      2.262      8.052
REMARK  Name = 
REMARK  7 active torsions:
REMARK  status: ('A' for Active; 'I' for Inactive)
REMARK    1  A    between atoms: S_1  and  N_4
REMARK    2  A    between atoms: S_1  and  C_5
REMARK    3  A    between atoms: N_10  and  C_14
REMARK    4  A    between atoms: C_19  and  C_23
REMARK    5  A    between atoms: C_23  and  O_27
REMARK    6  A    between atoms: O_27  and  C_30
REMARK    7  A    between atoms: C_30  and  C_31
REMARK                            x       y       z     vdW  Elec       q    Type
REMARK                         _______ _______ _______ _____ _____    ______ ____
ROOT
ATOM      1  N   UNL     1     -10.667  54.412  46.808  0.00  0.00    +0.000 N 
ATOM      2  C   UNL     1     -11.012  55.242  47.874  0.00  0.00    +0.000 C 
ATOM      3  O   UNL     1     -10.129  55.800  48.503  0.00  0.00    +0.000 OA
ATOM      4  N   UNL     1     -12.365  55.290  48.129  0.00  0.00    +0.000 N 
ATOM      5  H   UNL     1     -11.384  53.983  46.288  0.00  0.00    +0.000 HD
ATOM      6  H   UNL     1     -12.957  54.758  47.549  0.00  0.00    +0.000 HD
ENDROOT
BRANCH   4   7
ATOM      7  C   UNL     1     -12.959  56.039  49.149  0.00  0.00    +0.000 A 
ATOM      8  S   UNL     1     -13.989  57.333  48.751  0.00  0.00    +0.000 S 
ATOM      9  C   UNL     1     -12.871  55.846  50.527  0.00  0.00    +0.000 A 
ATOM     10  C   UNL     1     -14.237  57.747  50.362  0.00  0.00    +0.000 A 
ATOM     11  C   UNL     1     -13.614  56.881  51.238  0.00  0.00    +0.000 A 
ATOM     12  C   UNL     1     -15.098  58.915  50.724  0.00  0.00    +0.000 C 
ATOM     13  C   UNL     1     -13.735  57.094  52.725  0.00  0.00    +0.000 C 
ATOM     14  C   UNL     1     -14.921  59.281  52.199  0.00  0.00    +0.000 C 
ATOM     15  C   UNL     1     -14.897  58.034  53.087  0.00  0.00    +0.000 C 
BRANCH   9  16
ATOM     16  C   UNL     1     -12.134  54.722  51.115  0.00  0.00    +0.000 C 
ATOM     17  O   UNL     1     -12.471  53.550  50.962  0.00  0.00    +0.000 OA
BRANCH  16  18
ATOM     18  O   UNL     1     -11.106  55.128  51.909  0.00  0.00    +0.000 OA
BRANCH  18  19
ATOM     19  C   UNL     1      -9.868  54.415  51.788  0.00  0.00    +0.000 C 
ATOM     20  C   UNL     1      -8.749  55.431  51.630  0.00  0.00    +0.000 C 
ENDBRANCH  18  19
ENDBRANCH  16  18
ENDBRANCH   9  16
ENDBRANCH   4   7
BRANCH   1  21
ATOM     21  S   UNL     1      -9.073  54.123  46.383  0.00  0.00    +0.000 S 
ATOM     22  O   UNL     1      -8.381  55.393  46.330  0.00  0.00    +0.000 OA
ATOM     23  O   UNL     1      -9.126  53.284  45.201  0.00  0.00    +0.000 OA
BRANCH  21  24
ATOM     24  C   UNL     1      -8.404  53.133  47.715  0.00  0.00    +0.000 A 
ATOM     25  C   UNL     1      -7.360  53.614  48.555  0.00  0.00    +0.000 A 
ATOM     26  C   UNL     1      -8.955  51.854  47.904  0.00  0.00    +0.000 A 
ATOM     27  C   UNL     1      -6.897  52.752  49.587  0.00  0.00    +0.000 A 
ATOM     28  C   UNL     1      -6.737  54.884  48.453  0.00  0.00    +0.000 A 
ATOM     29  C   UNL     1      -8.489  51.034  48.926  0.00  0.00    +0.000 A 
ATOM     30  C   UNL     1      -7.469  51.482  49.760  0.00  0.00    +0.000 A 
ATOM     31  C   UNL     1      -5.865  53.164  50.445  0.00  0.00    +0.000 A 
ATOM     32  C   UNL     1      -5.710  55.277  49.312  0.00  0.00    +0.000 A 
ATOM     33  C   UNL     1      -5.273  54.418  50.308  0.00  0.00    +0.000 A 
ENDBRANCH  21  24
ENDBRANCH   1  21
TORSDOF 6
ENDMDL
MODEL 9
REMARK VINA RESULT:      -7.5      3.188      8.297
REMARK  Name = 
REMARK  7 active torsions:
REMARK  status: ('A' for Active; 'I' for Inactive)
REMARK    1  A    between atoms: S_1  and  N_4
REMARK    2  A    between atoms: S_1  and  C_5
REMARK    3  A    between atoms: N_10  and  C_14
REMARK    4  A    between atoms: C_19  and  C_23
REMARK    5  A    between atoms: C_23  and  O_27
REMARK    6  A    between atoms: O_27  and  C_30
REMARK    7  A    between atoms: C_30  and  C_31
REMARK                            x       y       z     vdW  Elec       q    Type
REMARK                         _______ _______ _______ _____ _____    ______ ____
ROOT
ATOM      1  N   UNL     1     -11.157  54.384  45.839  0.00  0.00    +0.000 N 
ATOM      2  C   UNL     1     -11.850  54.584  47.033  0.00  0.00    +0.000 C 
ATOM      3  O   UNL     1     -12.349  53.627  47.598  0.00  0.00    +0.000 OA
ATOM      4  N   UNL     1     -11.932  55.905  47.415  0.00  0.00    +0.000 N 
ATOM      5  H   UNL     1     -10.735  55.156  45.399  0.00  0.00    +0.000 HD
ATOM      6  H   UNL     1     -11.501  56.576  46.836  0.00  0.00    +0.000 HD
ENDROOT
BRANCH   4   7
ATOM      7  C   UNL     1     -12.582  56.365  48.564  0.00  0.00    +0.000 A 
ATOM      8  S   UNL     1     -13.982  57.321  48.413  0.00  0.00    +0.000 S 
ATOM      9  C   UNL     1     -12.269  56.104  49.897  0.00  0.00    +0.000 A 
ATOM     10  C   UNL     1     -14.132  57.521  50.076  0.00  0.00    +0.000 A 
ATOM     11  C   UNL     1     -13.182  56.815  50.787  0.00  0.00    +0.000 A 
ATOM     12  C   UNL     1     -15.238  58.349  50.646  0.00  0.00    +0.000 C 
ATOM     13  C   UNL     1     -13.170  56.871  52.293  0.00  0.00    +0.000 C 
ATOM     14  C   UNL     1     -14.988  58.640  52.127  0.00  0.00    +0.000 C 
ATOM     15  C   UNL     1     -14.497  57.393  52.868  0.00  0.00    +0.000 C 
BRANCH   9  16
ATOM     16  C   UNL     1     -11.173  55.209  50.284  0.00  0.00    +0.000 C 
ATOM     17  O   UNL     1     -11.357  54.144  50.868  0.00  0.00    +0.000 OA
BRANCH  16  18
ATOM     18  O   UNL     1      -9.948  55.731  50.006  0.00  0.00    +0.000 OA
BRANCH  18  19
ATOM     19  C   UNL     1      -8.954  54.829  49.502  0.00  0.00    +0.000 C 
ATOM     20  C   UNL     1      -7.584  55.403  49.825  0.00  0.00    +0.000 C 
ENDBRANCH  18  19
ENDBRANCH  16  18
ENDBRANCH   9  16
ENDBRANCH   4   7
BRANCH   1  21
ATOM     21  S   UNL     1     -11.020  52.873  45.132  0.00  0.00    +0.000 S 
ATOM     22  O   UNL     1     -10.470  53.043  43.804  0.00  0.00    +0.000 OA
ATOM     23  O   UNL     1     -12.314  52.240  45.298  0.00  0.00    +0.000 OA
BRANCH  21  24
ATOM     24  C   UNL     1      -9.851  51.980  46.152  0.00  0.00    +0.000 A 
ATOM     25  C   UNL     1      -8.566  52.509  46.458  0.00  0.00    +0.000 A 
ATOM     26  C   UNL     1     -10.256  50.728  46.646  0.00  0.00    +0.000 A 
ATOM     27  C   UNL     1      -7.710  51.724  47.277  0.00  0.00    +0.000 A 
ATOM     28  C   UNL     1      -8.060  53.758  46.014  0.00  0.00    +0.000 A 
ATOM     29  C   UNL     1      -9.402  49.983  47.452  0.00  0.00    +0.000 A 
ATOM     30  C   UNL     1      -8.140  50.480  47.765  0.00  0.00    +0.000 A 
ATOM     31  C   UNL     1      -6.426  52.187  47.609  0.00  0.00    +0.000 A 
ATOM     32  C   UNL     1      -6.781  54.202  46.350  0.00  0.00    +0.000 A 
ATOM     33  C   UNL     1      -5.963  53.416  47.148  0.00  0.00    +0.000 A 
ENDBRANCH  21  24
ENDBRANCH   1  21
TORSDOF 6
ENDMDL
