MODEL 1
REMARK VINA RESULT:      -7.4      0.000      0.000
REMARK  Name = 
REMARK  10 active torsions:
REMARK  status: ('A' for Active; 'I' for Inactive)
REMARK    1  A    between atoms: S_1  and  N_4
REMARK    2  A    between atoms: S_1  and  C_5
REMARK    3  A    between atoms: N_10  and  C_13
REMARK    4  A    between atoms: C_14  and  C_17
REMARK    5  A    between atoms: C_16  and  C_20
REMARK    6  A    between atoms: C_20  and  O_24
REMARK    7  A    between atoms: O_24  and  C_27
REMARK    8  A    between atoms: C_25  and  C_28
REMARK    9  A    between atoms: C_25  and  C_29
REMARK   10  A    between atoms: C_27  and  C_30
REMARK                            x       y       z     vdW  Elec       q    Type
REMARK                         _______ _______ _______ _____ _____    ______ ____
ROOT
ATOM      1  N   UNL     1      -9.757  51.678  48.715  0.00  0.00    +0.000 N 
ATOM      2  C   UNL     1     -10.799  52.571  48.911  0.00  0.00    +0.000 C 
ATOM      3  O   UNL     1     -11.888  52.406  48.378  0.00  0.00    +0.000 OA
ATOM      4  N   UNL     1     -10.458  53.675  49.671  0.00  0.00    +0.000 N 
ATOM      5  H   UNL     1      -8.921  51.810  49.219  0.00  0.00    +0.000 HD
ATOM      6  H   UNL     1      -9.549  53.777  50.036  0.00  0.00    +0.000 HD
ENDROOT
BRANCH   4   7
ATOM      7  C   UNL     1     -11.430  54.631  49.904  0.00  0.00    +0.000 A 
ATOM      8  S   UNL     1     -12.128  54.599  51.453  0.00  0.00    +0.000 S 
ATOM      9  C   UNL     1     -11.909  55.655  49.106  0.00  0.00    +0.000 A 
ATOM     10  C   UNL     1     -12.886  56.106  51.192  0.00  0.00    +0.000 A 
ATOM     11  C   UNL     1     -12.696  56.570  49.900  0.00  0.00    +0.000 A 
ATOM     12  C   UNL     1     -13.667  56.825  52.266  0.00  0.00    +0.000 C 
ATOM     13  C   UNL     1     -13.317  57.850  49.422  0.00  0.00    +0.000 C 
ATOM     14  C   UNL     1     -14.613  57.899  51.646  0.00  0.00    +0.000 C 
ATOM     15  C   UNL     1     -13.843  58.709  50.573  0.00  0.00    +0.000 C 
ATOM     16  C   UNL     1     -15.093  58.888  52.723  0.00  0.00    +0.000 C 
ATOM     17  C   UNL     1     -15.857  57.219  51.036  0.00  0.00    +0.000 C 
BRANCH   9  18
ATOM     18  C   UNL     1     -11.618  55.746  47.673  0.00  0.00    +0.000 C 
ATOM     19  O   UNL     1     -12.488  55.858  46.817  0.00  0.00    +0.000 OA
BRANCH  18  20
ATOM     20  O   UNL     1     -10.283  55.697  47.416  0.00  0.00    +0.000 OA
BRANCH  20  21
ATOM     21  C   UNL     1      -9.864  54.916  46.293  0.00  0.00    +0.000 C 
ATOM     22  C   UNL     1      -8.353  54.950  46.190  0.00  0.00    +0.000 C 
ENDBRANCH  20  21
ENDBRANCH  18  20
ENDBRANCH   9  18
ENDBRANCH   4   7
BRANCH   1  23
ATOM     23  S   UNL     1      -9.862  50.388  47.658  0.00  0.00    +0.000 S 
ATOM     24  O   UNL     1     -11.183  49.799  47.774  0.00  0.00    +0.000 OA
ATOM     25  O   UNL     1      -8.688  49.574  47.905  0.00  0.00    +0.000 OA
BRANCH  23  26
ATOM     26  C   UNL     1      -9.693  51.121  46.031  0.00  0.00    +0.000 A 
ATOM     27  N   UNL     1      -8.411  51.284  45.604  0.00  0.00    +0.000 NA
ATOM     28  C   UNL     1     -10.820  51.453  45.291  0.00  0.00    +0.000 A 
ATOM     29  C   UNL     1      -8.272  51.782  44.354  0.00  0.00    +0.000 A 
ATOM     30  C   UNL     1     -10.628  51.977  44.017  0.00  0.00    +0.000 A 
ATOM     31  C   UNL     1      -9.332  52.142  43.523  0.00  0.00    +0.000 A 
ATOM     32  C   UNL     1      -9.104  52.700  42.146  0.00  0.00    +0.000 C 
ENDBRANCH  23  26
ENDBRANCH   1  23
TORSDOF 6
ENDMDL
MODEL 2
REMARK VINA RESULT:      -7.1      3.230      4.914
REMARK  Name = 
REMARK  10 active torsions:
REMARK  status: ('A' for Active; 'I' for Inactive)
REMARK    1  A    between atoms: S_1  and  N_4
REMARK    2  A    between atoms: S_1  and  C_5
REMARK    3  A    between atoms: N_10  and  C_13
REMARK    4  A    between atoms: C_14  and  C_17
REMARK    5  A    between atoms: C_16  and  C_20
REMARK    6  A    between atoms: C_20  and  O_24
REMARK    7  A    between atoms: O_24  and  C_27
REMARK    8  A    between atoms: C_25  and  C_28
REMARK    9  A    between atoms: C_25  and  C_29
REMARK   10  A    between atoms: C_27  and  C_30
REMARK                            x       y       z     vdW  Elec       q    Type
REMARK                         _______ _______ _______ _____ _____    ______ ____
ROOT
ATOM      1  N   UNL     1      -8.385  52.848  48.865  0.00  0.00    +0.000 N 
ATOM      2  C   UNL     1      -9.295  53.843  49.189  0.00  0.00    +0.000 C 
ATOM      3  O   UNL     1      -8.923  54.951  49.555  0.00  0.00    +0.000 OA
ATOM      4  N   UNL     1     -10.614  53.435  49.145  0.00  0.00    +0.000 N 
ATOM      5  H   UNL     1      -8.725  51.996  48.507  0.00  0.00    +0.000 HD
ATOM      6  H   UNL     1     -10.851  52.514  48.887  0.00  0.00    +0.000 HD
ENDROOT
BRANCH   4   7
ATOM      7  C   UNL     1     -11.594  54.356  49.472  0.00  0.00    +0.000 A 
ATOM      8  S   UNL     1     -12.075  54.362  51.101  0.00  0.00    +0.000 S 
ATOM      9  C   UNL     1     -12.227  55.320  48.707  0.00  0.00    +0.000 A 
ATOM     10  C   UNL     1     -12.937  55.820  50.888  0.00  0.00    +0.000 A 
ATOM     11  C   UNL     1     -12.945  56.233  49.566  0.00  0.00    +0.000 A 
ATOM     12  C   UNL     1     -13.602  56.551  52.030  0.00  0.00    +0.000 C 
ATOM     13  C   UNL     1     -13.690  57.460  49.127  0.00  0.00    +0.000 C 
ATOM     14  C   UNL     1     -14.676  57.551  51.504  0.00  0.00    +0.000 C 
ATOM     15  C   UNL     1     -14.099  58.346  50.305  0.00  0.00    +0.000 C 
ATOM     16  C   UNL     1     -15.057  58.566  52.597  0.00  0.00    +0.000 C 
ATOM     17  C   UNL     1     -15.954  56.789  51.095  0.00  0.00    +0.000 C 
BRANCH   9  18
ATOM     18  C   UNL     1     -12.136  55.359  47.246  0.00  0.00    +0.000 C 
ATOM     19  O   UNL     1     -12.119  56.402  46.602  0.00  0.00    +0.000 OA
BRANCH  18  20
ATOM     20  O   UNL     1     -12.067  54.114  46.702  0.00  0.00    +0.000 OA
BRANCH  20  21
ATOM     21  C   UNL     1     -11.496  54.004  45.395  0.00  0.00    +0.000 C 
ATOM     22  C   UNL     1      -9.999  53.810  45.512  0.00  0.00    +0.000 C 
ENDBRANCH  20  21
ENDBRANCH  18  20
ENDBRANCH   9  18
ENDBRANCH   4   7
BRANCH   1  23
ATOM     23  S   UNL     1      -6.735  53.037  49.057  0.00  0.00    +0.000 S 
ATOM     24  O   UNL     1      -6.322  54.241  48.361  0.00  0.00    +0.000 OA
ATOM     25  O   UNL     1      -6.144  51.761  48.701  0.00  0.00    +0.000 OA
BRANCH  23  26
ATOM     26  C   UNL     1      -6.510  53.278  50.819  0.00  0.00    +0.000 A 
ATOM     27  N   UNL     1      -5.962  54.474  51.170  0.00  0.00    +0.000 NA
ATOM     28  C   UNL     1      -6.907  52.298  51.718  0.00  0.00    +0.000 A 
ATOM     29  C   UNL     1      -5.841  54.692  52.499  0.00  0.00    +0.000 A 
ATOM     30  C   UNL     1      -6.749  52.559  53.075  0.00  0.00    +0.000 A 
ATOM     31  C   UNL     1      -6.214  53.781  53.487  0.00  0.00    +0.000 A 
ATOM     32  C   UNL     1      -6.041  54.085  54.949  0.00  0.00    +0.000 C 
ENDBRANCH  23  26
ENDBRANCH   1  23
TORSDOF 6
ENDMDL
MODEL 3
REMARK VINA RESULT:      -7.0      3.992      7.650
REMARK  Name = 
REMARK  10 active torsions:
REMARK  status: ('A' for Active; 'I' for Inactive)
REMARK    1  A    between atoms: S_1  and  N_4
REMARK    2  A    between atoms: S_1  and  C_5
REMARK    3  A    between atoms: N_10  and  C_13
REMARK    4  A    between atoms: C_14  and  C_17
REMARK    5  A    between atoms: C_16  and  C_20
REMARK    6  A    between atoms: C_20  and  O_24
REMARK    7  A    between atoms: O_24  and  C_27
REMARK    8  A    between atoms: C_25  and  C_28
REMARK    9  A    between atoms: C_25  and  C_29
REMARK   10  A    between atoms: C_27  and  C_30
REMARK                            x       y       z     vdW  Elec       q    Type
REMARK                         _______ _______ _______ _____ _____    ______ ____
ROOT
ATOM      1  N   UNL     1     -14.436  55.065  51.151  0.00  0.00    +0.000 N 
ATOM      2  C   UNL     1     -13.125  55.254  51.560  0.00  0.00    +0.000 C 
ATOM      3  O   UNL     1     -12.779  56.282  52.129  0.00  0.00    +0.000 OA
ATOM      4  N   UNL     1     -12.266  54.238  51.188  0.00  0.00    +0.000 N 
ATOM      5  H   UNL     1     -14.688  54.195  50.762  0.00  0.00    +0.000 HD
ATOM      6  H   UNL     1     -12.595  53.455  50.689  0.00  0.00    +0.000 HD
ENDROOT
BRANCH   4   7
ATOM      7  C   UNL     1     -10.932  54.350  51.537  0.00  0.00    +0.000 A 
ATOM      8  S   UNL     1     -10.513  53.679  53.040  0.00  0.00    +0.000 S 
ATOM      9  C   UNL     1      -9.854  54.877  50.848  0.00  0.00    +0.000 A 
ATOM     10  C   UNL     1      -8.848  53.831  52.695  0.00  0.00    +0.000 A 
ATOM     11  C   UNL     1      -8.621  54.487  51.494  0.00  0.00    +0.000 A 
ATOM     12  C   UNL     1      -7.771  53.303  53.611  0.00  0.00    +0.000 C 
ATOM     13  C   UNL     1      -7.233  54.787  51.009  0.00  0.00    +0.000 C 
ATOM     14  C   UNL     1      -6.396  53.972  53.303  0.00  0.00    +0.000 C 
ATOM     15  C   UNL     1      -6.166  54.000  51.770  0.00  0.00    +0.000 C 
ATOM     16  C   UNL     1      -5.245  53.167  53.934  0.00  0.00    +0.000 C 
ATOM     17  C   UNL     1      -6.357  55.397  53.892  0.00  0.00    +0.000 C 
BRANCH   9  18
ATOM     18  C   UNL     1     -10.005  55.694  49.643  0.00  0.00    +0.000 C 
ATOM     19  O   UNL     1      -9.602  56.849  49.559  0.00  0.00    +0.000 OA
BRANCH  18  20
ATOM     20  O   UNL     1     -10.634  55.022  48.642  0.00  0.00    +0.000 OA
BRANCH  20  21
ATOM     21  C   UNL     1     -11.705  55.696  47.976  0.00  0.00    +0.000 C 
ATOM     22  C   UNL     1     -11.611  55.446  46.485  0.00  0.00    +0.000 C 
ENDBRANCH  20  21
ENDBRANCH  18  20
ENDBRANCH   9  18
ENDBRANCH   4   7
BRANCH   1  23
ATOM     23  S   UNL     1     -15.606  56.250  51.291  0.00  0.00    +0.000 S 
ATOM     24  O   UNL     1     -15.893  56.455  52.700  0.00  0.00    +0.000 OA
ATOM     25  O   UNL     1     -16.674  55.865  50.389  0.00  0.00    +0.000 OA
BRANCH  23  26
ATOM     26  C   UNL     1     -14.834  57.727  50.635  0.00  0.00    +0.000 A 
ATOM     27  N   UNL     1     -14.752  58.770  51.508  0.00  0.00    +0.000 NA
ATOM     28  C   UNL     1     -14.346  57.746  49.335  0.00  0.00    +0.000 A 
ATOM     29  C   UNL     1     -14.118  59.871  51.043  0.00  0.00    +0.000 A 
ATOM     30  C   UNL     1     -13.716  58.906  48.895  0.00  0.00    +0.000 A 
ATOM     31  C   UNL     1     -13.586  59.994  49.760  0.00  0.00    +0.000 A 
ATOM     32  C   UNL     1     -12.902  61.254  49.306  0.00  0.00    +0.000 C 
ENDBRANCH  23  26
ENDBRANCH   1  23
TORSDOF 6
ENDMDL
MODEL 4
REMARK VINA RESULT:      -6.8      3.006      7.975
REMARK  Name = 
REMARK  10 active torsions:
REMARK  status: ('A' for Active; 'I' for Inactive)
REMARK    1  A    between atoms: S_1  and  N_4
REMARK    2  A    between atoms: S_1  and  C_5
REMARK    3  A    between atoms: N_10  and  C_13
REMARK    4  A    between atoms: C_14  and  C_17
REMARK    5  A    between atoms: C_16  and  C_20
REMARK    6  A    between atoms: C_20  and  O_24
REMARK    7  A    between atoms: O_24  and  C_27
REMARK    8  A    between atoms: C_25  and  C_28
REMARK    9  A    between atoms: C_25  and  C_29
REMARK   10  A    between atoms: C_27  and  C_30
REMARK                            x       y       z     vdW  Elec       q    Type
REMARK                         _______ _______ _______ _____ _____    ______ ____
ROOT
ATOM      1  N   UNL     1      -8.177  56.291  49.295  0.00  0.00    +0.000 N 
ATOM      2  C   UNL     1      -8.460  55.181  48.515  0.00  0.00    +0.000 C 
ATOM      3  O   UNL     1      -8.234  54.046  48.916  0.00  0.00    +0.000 OA
ATOM      4  N   UNL     1      -8.919  55.486  47.247  0.00  0.00    +0.000 N 
ATOM      5  H   UNL     1      -8.441  57.180  48.964  0.00  0.00    +0.000 HD
ATOM      6  H   UNL     1      -9.038  56.422  46.964  0.00  0.00    +0.000 HD
ENDROOT
BRANCH   4   7
ATOM      7  C   UNL     1      -9.210  54.441  46.389  0.00  0.00    +0.000 A 
ATOM      8  S   UNL     1      -7.951  53.985  45.343  0.00  0.00    +0.000 S 
ATOM      9  C   UNL     1     -10.343  53.657  46.261  0.00  0.00    +0.000 A 
ATOM     10  C   UNL     1      -8.784  52.567  44.884  0.00  0.00    +0.000 A 
ATOM     11  C   UNL     1     -10.052  52.504  45.441  0.00  0.00    +0.000 A 
ATOM     12  C   UNL     1      -8.183  51.523  43.976  0.00  0.00    +0.000 C 
ATOM     13  C   UNL     1     -10.993  51.375  45.134  0.00  0.00    +0.000 C 
ATOM     14  C   UNL     1      -9.288  50.610  43.363  0.00  0.00    +0.000 C 
ATOM     15  C   UNL     1     -10.287  50.191  44.472  0.00  0.00    +0.000 C 
ATOM     16  C   UNL     1      -8.672  49.325  42.780  0.00  0.00    +0.000 C 
ATOM     17  C   UNL     1     -10.013  51.351  42.220  0.00  0.00    +0.000 C 
BRANCH   9  18
ATOM     18  C   UNL     1     -11.618  53.997  46.896  0.00  0.00    +0.000 C 
ATOM     19  O   UNL     1     -12.311  53.180  47.492  0.00  0.00    +0.000 OA
BRANCH  18  20
ATOM     20  O   UNL     1     -11.930  55.313  46.751  0.00  0.00    +0.000 OA
BRANCH  20  21
ATOM     21  C   UNL     1     -12.771  55.899  47.749  0.00  0.00    +0.000 C 
ATOM     22  C   UNL     1     -11.921  56.374  48.909  0.00  0.00    +0.000 C 
ENDBRANCH  20  21
ENDBRANCH  18  20
ENDBRANCH   9  18
ENDBRANCH   4   7
BRANCH   1  23
ATOM     23  S   UNL     1      -7.409  56.181  50.776  0.00  0.00    +0.000 S 
ATOM     24  O   UNL     1      -7.405  57.494  51.395  0.00  0.00    +0.000 OA
ATOM     25  O   UNL     1      -6.153  55.501  50.524  0.00  0.00    +0.000 OA
BRANCH  23  26
ATOM     26  C   UNL     1      -8.447  55.086  51.743  0.00  0.00    +0.000 A 
ATOM     27  N   UNL     1      -7.794  54.045  52.329  0.00  0.00    +0.000 NA
ATOM     28  C   UNL     1      -9.804  55.342  51.877  0.00  0.00    +0.000 A 
ATOM     29  C   UNL     1      -8.555  53.245  53.110  0.00  0.00    +0.000 A 
ATOM     30  C   UNL     1     -10.551  54.482  52.677  0.00  0.00    +0.000 A 
ATOM     31  C   UNL     1      -9.923  53.413  53.319  0.00  0.00    +0.000 A 
ATOM     32  C   UNL     1     -10.711  52.477  54.193  0.00  0.00    +0.000 C 
ENDBRANCH  23  26
ENDBRANCH   1  23
TORSDOF 6
ENDMDL
MODEL 5
REMARK VINA RESULT:      -6.8      1.947      2.778
REMARK  Name = 
REMARK  10 active torsions:
REMARK  status: ('A' for Active; 'I' for Inactive)
REMARK    1  A    between atoms: S_1  and  N_4
REMARK    2  A    between atoms: S_1  and  C_5
REMARK    3  A    between atoms: N_10  and  C_13
REMARK    4  A    between atoms: C_14  and  C_17
REMARK    5  A    between atoms: C_16  and  C_20
REMARK    6  A    between atoms: C_20  and  O_24
REMARK    7  A    between atoms: O_24  and  C_27
REMARK    8  A    between atoms: C_25  and  C_28
REMARK    9  A    between atoms: C_25  and  C_29
REMARK   10  A    between atoms: C_27  and  C_30
REMARK                            x       y       z     vdW  Elec       q    Type
REMARK                         _______ _______ _______ _____ _____    ______ ____
ROOT
ATOM      1  N   UNL     1      -8.039  53.177  49.771  0.00  0.00    +0.000 N 
ATOM      2  C   UNL     1      -9.145  54.012  49.808  0.00  0.00    +0.000 C 
ATOM      3  O   UNL     1      -9.218  55.003  49.093  0.00  0.00    +0.000 OA
ATOM      4  N   UNL     1     -10.077  53.669  50.769  0.00  0.00    +0.000 N 
ATOM      5  H   UNL     1      -8.052  52.352  50.309  0.00  0.00    +0.000 HD
ATOM      6  H   UNL     1      -9.942  52.884  51.348  0.00  0.00    +0.000 HD
ENDROOT
BRANCH   4   7
ATOM      7  C   UNL     1     -11.207  54.458  50.893  0.00  0.00    +0.000 A 
ATOM      8  S   UNL     1     -11.383  55.249  52.386  0.00  0.00    +0.000 S 
ATOM      9  C   UNL     1     -12.209  54.759  49.988  0.00  0.00    +0.000 A 
ATOM     10  C   UNL     1     -12.648  56.219  51.773  0.00  0.00    +0.000 A 
ATOM     11  C   UNL     1     -13.000  55.863  50.481  0.00  0.00    +0.000 A 
ATOM     12  C   UNL     1     -13.287  57.329  52.572  0.00  0.00    +0.000 C 
ATOM     13  C   UNL     1     -14.127  56.540  49.756  0.00  0.00    +0.000 C 
ATOM     14  C   UNL     1     -14.676  57.718  51.978  0.00  0.00    +0.000 C 
ATOM     15  C   UNL     1     -14.563  57.838  50.437  0.00  0.00    +0.000 C 
ATOM     16  C   UNL     1     -15.136  59.083  52.520  0.00  0.00    +0.000 C 
ATOM     17  C   UNL     1     -15.734  56.668  52.373  0.00  0.00    +0.000 C 
BRANCH   9  18
ATOM     18  C   UNL     1     -12.385  54.033  48.728  0.00  0.00    +0.000 C 
ATOM     19  O   UNL     1     -12.555  52.821  48.669  0.00  0.00    +0.000 OA
BRANCH  18  20
ATOM     20  O   UNL     1     -12.342  54.860  47.649  0.00  0.00    +0.000 OA
BRANCH  20  21
ATOM     21  C   UNL     1     -11.232  54.714  46.758  0.00  0.00    +0.000 C 
ATOM     22  C   UNL     1     -11.733  54.315  45.386  0.00  0.00    +0.000 C 
ENDBRANCH  20  21
ENDBRANCH  18  20
ENDBRANCH   9  18
ENDBRANCH   4   7
BRANCH   1  23
ATOM     23  S   UNL     1      -6.685  53.512  48.849  0.00  0.00    +0.000 S 
ATOM     24  O   UNL     1      -5.701  52.468  49.073  0.00  0.00    +0.000 OA
ATOM     25  O   UNL     1      -6.345  54.893  49.129  0.00  0.00    +0.000 OA
BRANCH  23  26
ATOM     26  C   UNL     1      -7.258  53.416  47.154  0.00  0.00    +0.000 A 
ATOM     27  N   UNL     1      -7.590  52.166  46.729  0.00  0.00    +0.000 NA
ATOM     28  C   UNL     1      -7.364  54.566  46.383  0.00  0.00    +0.000 A 
ATOM     29  C   UNL     1      -8.079  52.089  45.470  0.00  0.00    +0.000 A 
ATOM     30  C   UNL     1      -7.857  54.436  45.088  0.00  0.00    +0.000 A 
ATOM     31  C   UNL     1      -8.234  53.178  44.614  0.00  0.00    +0.000 A 
ATOM     32  C   UNL     1      -8.775  53.018  43.220  0.00  0.00    +0.000 C 
ENDBRANCH  23  26
ENDBRANCH   1  23
TORSDOF 6
ENDMDL
MODEL 6
REMARK VINA RESULT:      -6.6      3.891      7.591
REMARK  Name = 
REMARK  10 active torsions:
REMARK  status: ('A' for Active; 'I' for Inactive)
REMARK    1  A    between atoms: S_1  and  N_4
REMARK    2  A    between atoms: S_1  and  C_5
REMARK    3  A    between atoms: N_10  and  C_13
REMARK    4  A    between atoms: C_14  and  C_17
REMARK    5  A    between atoms: C_16  and  C_20
REMARK    6  A    between atoms: C_20  and  O_24
REMARK    7  A    between atoms: O_24  and  C_27
REMARK    8  A    between atoms: C_25  and  C_28
REMARK    9  A    between atoms: C_25  and  C_29
REMARK   10  A    between atoms: C_27  and  C_30
REMARK                            x       y       z     vdW  Elec       q    Type
REMARK                         _______ _______ _______ _____ _____    ______ ____
ROOT
ATOM      1  N   UNL     1      -7.788  55.965  50.580  0.00  0.00    +0.000 N 
ATOM      2  C   UNL     1      -8.271  55.144  49.573  0.00  0.00    +0.000 C 
ATOM      3  O   UNL     1      -8.639  53.999  49.807  0.00  0.00    +0.000 OA
ATOM      4  N   UNL     1      -8.206  55.703  48.311  0.00  0.00    +0.000 N 
ATOM      5  H   UNL     1      -7.571  56.901  50.363  0.00  0.00    +0.000 HD
ATOM      6  H   UNL     1      -7.856  56.614  48.178  0.00  0.00    +0.000 HD
ENDROOT
BRANCH   4   7
ATOM      7  C   UNL     1      -8.648  54.949  47.239  0.00  0.00    +0.000 A 
ATOM      8  S   UNL     1      -7.442  54.092  46.404  0.00  0.00    +0.000 S 
ATOM      9  C   UNL     1      -9.922  54.727  46.747  0.00  0.00    +0.000 A 
ATOM     10  C   UNL     1      -8.613  53.197  45.541  0.00  0.00    +0.000 A 
ATOM     11  C   UNL     1      -9.902  53.628  45.810  0.00  0.00    +0.000 A 
ATOM     12  C   UNL     1      -8.252  52.072  44.601  0.00  0.00    +0.000 C 
ATOM     13  C   UNL     1     -11.094  53.027  45.123  0.00  0.00    +0.000 C 
ATOM     14  C   UNL     1      -9.428  51.760  43.624  0.00  0.00    +0.000 C 
ATOM     15  C   UNL     1     -10.759  51.713  44.416  0.00  0.00    +0.000 C 
ATOM     16  C   UNL     1      -9.232  50.387  42.958  0.00  0.00    +0.000 C 
ATOM     17  C   UNL     1      -9.487  52.826  42.510  0.00  0.00    +0.000 C 
BRANCH   9  18
ATOM     18  C   UNL     1     -11.082  55.519  47.163  0.00  0.00    +0.000 C 
ATOM     19  O   UNL     1     -11.746  56.196  46.386  0.00  0.00    +0.000 OA
BRANCH  18  20
ATOM     20  O   UNL     1     -11.329  55.408  48.496  0.00  0.00    +0.000 OA
BRANCH  20  21
ATOM     21  C   UNL     1     -12.479  54.651  48.885  0.00  0.00    +0.000 C 
ATOM     22  C   UNL     1     -12.051  53.259  49.300  0.00  0.00    +0.000 C 
ENDBRANCH  20  21
ENDBRANCH  18  20
ENDBRANCH   9  18
ENDBRANCH   4   7
BRANCH   1  23
ATOM     23  S   UNL     1      -7.562  55.432  52.148  0.00  0.00    +0.000 S 
ATOM     24  O   UNL     1      -8.827  54.931  52.656  0.00  0.00    +0.000 OA
ATOM     25  O   UNL     1      -6.887  56.512  52.842  0.00  0.00    +0.000 OA
BRANCH  23  26
ATOM     26  C   UNL     1      -6.413  54.066  52.000  0.00  0.00    +0.000 A 
ATOM     27  N   UNL     1      -6.850  52.887  52.524  0.00  0.00    +0.000 NA
ATOM     28  C   UNL     1      -5.191  54.241  51.364  0.00  0.00    +0.000 A 
ATOM     29  C   UNL     1      -6.016  51.834  52.366  0.00  0.00    +0.000 A 
ATOM     30  C   UNL     1      -4.359  53.133  51.239  0.00  0.00    +0.000 A 
ATOM     31  C   UNL     1      -4.773  51.897  51.738  0.00  0.00    +0.000 A 
ATOM     32  C   UNL     1      -3.891  50.686  51.607  0.00  0.00    +0.000 C 
ENDBRANCH  23  26
ENDBRANCH   1  23
TORSDOF 6
ENDMDL
MODEL 7
REMARK VINA RESULT:      -6.6      3.960      8.088
REMARK  Name = 
REMARK  10 active torsions:
REMARK  status: ('A' for Active; 'I' for Inactive)
REMARK    1  A    between atoms: S_1  and  N_4
REMARK    2  A    between atoms: S_1  and  C_5
REMARK    3  A    between atoms: N_10  and  C_13
REMARK    4  A    between atoms: C_14  and  C_17
REMARK    5  A    between atoms: C_16  and  C_20
REMARK    6  A    between atoms: C_20  and  O_24
REMARK    7  A    between atoms: O_24  and  C_27
REMARK    8  A    between atoms: C_25  and  C_28
REMARK    9  A    between atoms: C_25  and  C_29
REMARK   10  A    between atoms: C_27  and  C_30
REMARK                            x       y       z     vdW  Elec       q    Type
REMARK                         _______ _______ _______ _____ _____    ______ ____
ROOT
ATOM      1  N   UNL     1     -11.454  56.809  49.084  0.00  0.00    +0.000 N 
ATOM      2  C   UNL     1     -10.675  55.887  49.766  0.00  0.00    +0.000 C 
ATOM      3  O   UNL     1     -11.155  54.850  50.206  0.00  0.00    +0.000 OA
ATOM      4  N   UNL     1      -9.369  56.293  49.968  0.00  0.00    +0.000 N 
ATOM      5  H   UNL     1     -11.014  57.595  48.685  0.00  0.00    +0.000 HD
ATOM      6  H   UNL     1      -9.051  57.162  49.631  0.00  0.00    +0.000 HD
ENDROOT
BRANCH   4   7
ATOM      7  C   UNL     1      -8.521  55.445  50.658  0.00  0.00    +0.000 A 
ATOM      8  S   UNL     1      -8.638  55.514  52.351  0.00  0.00    +0.000 S 
ATOM      9  C   UNL     1      -7.615  54.501  50.206  0.00  0.00    +0.000 A 
ATOM     10  C   UNL     1      -7.686  54.107  52.520  0.00  0.00    +0.000 A 
ATOM     11  C   UNL     1      -7.196  53.659  51.303  0.00  0.00    +0.000 A 
ATOM     12  C   UNL     1      -7.425  53.452  53.854  0.00  0.00    +0.000 C 
ATOM     13  C   UNL     1      -6.286  52.469  51.209  0.00  0.00    +0.000 C 
ATOM     14  C   UNL     1      -6.187  52.506  53.781  0.00  0.00    +0.000 C 
ATOM     15  C   UNL     1      -6.270  51.644  52.496  0.00  0.00    +0.000 C 
ATOM     16  C   UNL     1      -6.161  51.548  54.986  0.00  0.00    +0.000 C 
ATOM     17  C   UNL     1      -4.886  53.335  53.805  0.00  0.00    +0.000 C 
BRANCH   9  18
ATOM     18  C   UNL     1      -7.189  54.416  48.808  0.00  0.00    +0.000 C 
ATOM     19  O   UNL     1      -6.036  54.617  48.443  0.00  0.00    +0.000 OA
BRANCH  18  20
ATOM     20  O   UNL     1      -8.214  54.087  47.978  0.00  0.00    +0.000 OA
BRANCH  20  21
ATOM     21  C   UNL     1      -8.347  54.844  46.771  0.00  0.00    +0.000 C 
ATOM     22  C   UNL     1      -9.806  54.901  46.368  0.00  0.00    +0.000 C 
ENDBRANCH  20  21
ENDBRANCH  18  20
ENDBRANCH   9  18
ENDBRANCH   4   7
BRANCH   1  23
ATOM     23  S   UNL     1     -13.108  56.641  48.911  0.00  0.00    +0.000 S 
ATOM     24  O   UNL     1     -13.436  55.227  48.937  0.00  0.00    +0.000 OA
ATOM     25  O   UNL     1     -13.472  57.442  47.759  0.00  0.00    +0.000 OA
BRANCH  23  26
ATOM     26  C   UNL     1     -13.796  57.423  50.369  0.00  0.00    +0.000 A 
ATOM     27  N   UNL     1     -14.221  58.704  50.188  0.00  0.00    +0.000 NA
ATOM     28  C   UNL     1     -13.892  56.722  51.563  0.00  0.00    +0.000 A 
ATOM     29  C   UNL     1     -14.796  59.286  51.265  0.00  0.00    +0.000 A 
ATOM     30  C   UNL     1     -14.477  57.366  52.649  0.00  0.00    +0.000 A 
ATOM     31  C   UNL     1     -14.950  58.672  52.507  0.00  0.00    +0.000 A 
ATOM     32  C   UNL     1     -15.591  59.383  53.667  0.00  0.00    +0.000 C 
ENDBRANCH  23  26
ENDBRANCH   1  23
TORSDOF 6
ENDMDL
MODEL 8
REMARK VINA RESULT:      -6.5      3.633      8.078
REMARK  Name = 
REMARK  10 active torsions:
REMARK  status: ('A' for Active; 'I' for Inactive)
REMARK    1  A    between atoms: S_1  and  N_4
REMARK    2  A    between atoms: S_1  and  C_5
REMARK    3  A    between atoms: N_10  and  C_13
REMARK    4  A    between atoms: C_14  and  C_17
REMARK    5  A    between atoms: C_16  and  C_20
REMARK    6  A    between atoms: C_20  and  O_24
REMARK    7  A    between atoms: O_24  and  C_27
REMARK    8  A    between atoms: C_25  and  C_28
REMARK    9  A    between atoms: C_25  and  C_29
REMARK   10  A    between atoms: C_27  and  C_30
REMARK                            x       y       z     vdW  Elec       q    Type
REMARK                         _______ _______ _______ _____ _____    ______ ____
ROOT
ATOM      1  N   UNL     1     -11.923  56.862  49.495  0.00  0.00    +0.000 N 
ATOM      2  C   UNL     1     -11.492  55.750  50.202  0.00  0.00    +0.000 C 
ATOM      3  O   UNL     1     -12.271  54.863  50.530  0.00  0.00    +0.000 OA
ATOM      4  N   UNL     1     -10.159  55.794  50.563  0.00  0.00    +0.000 N 
ATOM      5  H   UNL     1     -11.253  57.516  49.189  0.00  0.00    +0.000 HD
ATOM      6  H   UNL     1      -9.591  56.558  50.310  0.00  0.00    +0.000 HD
ENDROOT
BRANCH   4   7
ATOM      7  C   UNL     1      -9.644  54.735  51.288  0.00  0.00    +0.000 A 
ATOM      8  S   UNL     1     -10.065  54.704  52.934  0.00  0.00    +0.000 S 
ATOM      9  C   UNL     1      -8.873  53.654  50.897  0.00  0.00    +0.000 A 
ATOM     10  C   UNL     1      -9.461  53.117  53.106  0.00  0.00    +0.000 A 
ATOM     11  C   UNL     1      -8.847  52.664  51.948  0.00  0.00    +0.000 A 
ATOM     12  C   UNL     1      -9.595  52.325  54.383  0.00  0.00    +0.000 C 
ATOM     13  C   UNL     1      -8.190  51.316  51.880  0.00  0.00    +0.000 C 
ATOM     14  C   UNL     1      -8.578  51.143  54.419  0.00  0.00    +0.000 C 
ATOM     15  C   UNL     1      -8.584  50.414  53.051  0.00  0.00    +0.000 C 
ATOM     16  C   UNL     1      -8.974  50.116  55.496  0.00  0.00    +0.000 C 
ATOM     17  C   UNL     1      -7.168  51.668  54.757  0.00  0.00    +0.000 C 
BRANCH   9  18
ATOM     18  C   UNL     1      -8.214  53.582  49.591  0.00  0.00    +0.000 C 
ATOM     19  O   UNL     1      -7.013  53.375  49.455  0.00  0.00    +0.000 OA
BRANCH  18  20
ATOM     20  O   UNL     1      -9.086  53.764  48.564  0.00  0.00    +0.000 OA
BRANCH  20  21
ATOM     21  C   UNL     1      -8.653  54.589  47.479  0.00  0.00    +0.000 C 
ATOM     22  C   UNL     1      -9.855  55.248  46.834  0.00  0.00    +0.000 C 
ENDBRANCH  20  21
ENDBRANCH  18  20
ENDBRANCH   9  18
ENDBRANCH   4   7
BRANCH   1  23
ATOM     23  S   UNL     1     -13.533  57.137  49.141  0.00  0.00    +0.000 S 
ATOM     24  O   UNL     1     -14.141  55.883  48.735  0.00  0.00    +0.000 OA
ATOM     25  O   UNL     1     -13.554  58.271  48.237  0.00  0.00    +0.000 OA
BRANCH  23  26
ATOM     26  C   UNL     1     -14.256  57.657  50.696  0.00  0.00    +0.000 A 
ATOM     27  N   UNL     1     -14.882  56.671  51.397  0.00  0.00    +0.000 NA
ATOM     28  C   UNL     1     -14.135  58.973  51.122  0.00  0.00    +0.000 A 
ATOM     29  C   UNL     1     -15.380  57.038  52.600  0.00  0.00    +0.000 A 
ATOM     30  C   UNL     1     -14.677  59.307  52.358  0.00  0.00    +0.000 A 
ATOM     31  C   UNL     1     -15.308  58.326  53.126  0.00  0.00    +0.000 A 
ATOM     32  C   UNL     1     -15.894  58.667  54.469  0.00  0.00    +0.000 C 
ENDBRANCH  23  26
ENDBRANCH   1  23
TORSDOF 6
ENDMDL
MODEL 9
REMARK VINA RESULT:      -6.4      4.263      8.824
REMARK  Name = 
REMARK  10 active torsions:
REMARK  status: ('A' for Active; 'I' for Inactive)
REMARK    1  A    between atoms: S_1  and  N_4
REMARK    2  A    between atoms: S_1  and  C_5
REMARK    3  A    between atoms: N_10  and  C_13
REMARK    4  A    between atoms: C_14  and  C_17
REMARK    5  A    between atoms: C_16  and  C_20
REMARK    6  A    between atoms: C_20  and  O_24
REMARK    7  A    between atoms: O_24  and  C_27
REMARK    8  A    between atoms: C_25  and  C_28
REMARK    9  A    between atoms: C_25  and  C_29
REMARK   10  A    between atoms: C_27  and  C_30
REMARK                            x       y       z     vdW  Elec       q    Type
REMARK                         _______ _______ _______ _____ _____    ______ ____
ROOT
ATOM      1  N   UNL     1     -11.385  56.727  49.580  0.00  0.00    +0.000 N 
ATOM      2  C   UNL     1     -10.645  55.609  49.934  0.00  0.00    +0.000 C 
ATOM      3  O   UNL     1     -11.147  54.492  49.947  0.00  0.00    +0.000 OA
ATOM      4  N   UNL     1      -9.357  55.894  50.345  0.00  0.00    +0.000 N 
ATOM      5  H   UNL     1     -10.926  57.595  49.513  0.00  0.00    +0.000 HD
ATOM      6  H   UNL     1      -9.023  56.821  50.358  0.00  0.00    +0.000 HD
ENDROOT
BRANCH   4   7
ATOM      7  C   UNL     1      -8.549  54.842  50.736  0.00  0.00    +0.000 A 
ATOM      8  S   UNL     1      -7.744  54.033  49.478  0.00  0.00    +0.000 S 
ATOM      9  C   UNL     1      -8.238  54.353  51.993  0.00  0.00    +0.000 A 
ATOM     10  C   UNL     1      -6.757  53.192  50.588  0.00  0.00    +0.000 A 
ATOM     11  C   UNL     1      -7.117  53.446  51.903  0.00  0.00    +0.000 A 
ATOM     12  C   UNL     1      -5.632  52.283  50.157  0.00  0.00    +0.000 C 
ATOM     13  C   UNL     1      -6.428  52.772  53.053  0.00  0.00    +0.000 C 
ATOM     14  C   UNL     1      -5.224  51.312  51.307  0.00  0.00    +0.000 C 
ATOM     15  C   UNL     1      -5.118  52.102  52.637  0.00  0.00    +0.000 C 
ATOM     16  C   UNL     1      -3.847  50.683  51.026  0.00  0.00    +0.000 C 
ATOM     17  C   UNL     1      -6.254  50.170  51.426  0.00  0.00    +0.000 C 
BRANCH   9  18
ATOM     18  C   UNL     1      -8.970  54.744  53.200  0.00  0.00    +0.000 C 
ATOM     19  O   UNL     1      -8.474  55.413  54.099  0.00  0.00    +0.000 OA
BRANCH  18  20
ATOM     20  O   UNL     1     -10.250  54.284  53.196  0.00  0.00    +0.000 OA
BRANCH  20  21
ATOM     21  C   UNL     1     -10.448  52.902  53.508  0.00  0.00    +0.000 C 
ATOM     22  C   UNL     1     -11.370  52.279  52.481  0.00  0.00    +0.000 C 
ENDBRANCH  20  21
ENDBRANCH  18  20
ENDBRANCH   9  18
ENDBRANCH   4   7
BRANCH   1  23
ATOM     23  S   UNL     1     -13.025  56.660  49.260  0.00  0.00    +0.000 S 
ATOM     24  O   UNL     1     -13.443  55.269  49.269  0.00  0.00    +0.000 OA
ATOM     25  O   UNL     1     -13.233  57.466  48.073  0.00  0.00    +0.000 OA
BRANCH  23  26
ATOM     26  C   UNL     1     -13.790  57.505  50.643  0.00  0.00    +0.000 A 
ATOM     27  N   UNL     1     -14.196  58.779  50.385  0.00  0.00    +0.000 NA
ATOM     28  C   UNL     1     -13.957  56.854  51.858  0.00  0.00    +0.000 A 
ATOM     29  C   UNL     1     -14.827  59.407  51.403  0.00  0.00    +0.000 A 
ATOM     30  C   UNL     1     -14.598  57.545  52.881  0.00  0.00    +0.000 A 
ATOM     31  C   UNL     1     -15.055  58.846  52.659  0.00  0.00    +0.000 A 
ATOM     32  C   UNL     1     -15.755  59.606  53.750  0.00  0.00    +0.000 C 
ENDBRANCH  23  26
ENDBRANCH   1  23
TORSDOF 6
ENDMDL
