MODEL 1
REMARK VINA RESULT:      -6.6      0.000      0.000
REMARK  Name = 
REMARK  10 active torsions:
REMARK  status: ('A' for Active; 'I' for Inactive)
REMARK    1  A    between atoms: S_1  and  N_4
REMARK    2  A    between atoms: S_1  and  C_5
REMARK    3  A    between atoms: C_5  and  C_7
REMARK    4  A    between atoms: C_7  and  C_10
REMARK    5  A    between atoms: N_9  and  C_11
REMARK    6  A    between atoms: C_10  and  C_12
REMARK    7  A    between atoms: C_14  and  C_17
REMARK    8  A    between atoms: C_17  and  O_21
REMARK    9  A    between atoms: O_21  and  C_24
REMARK   10  A    between atoms: C_24  and  C_25
REMARK                            x       y       z     vdW  Elec       q    Type
REMARK                         _______ _______ _______ _____ _____    ______ ____
ROOT
ATOM      1  C   UNL     1     -12.654  56.298  49.405  0.00  0.00    +0.000 A 
ATOM      2  S   UNL     1     -13.583  57.625  48.898  0.00  0.00    +0.000 S 
ATOM      3  C   UNL     1     -12.735  56.070  50.777  0.00  0.00    +0.000 A 
ATOM      4  C   UNL     1     -14.112  57.942  50.474  0.00  0.00    +0.000 A 
ATOM      5  C   UNL     1     -13.606  57.047  51.400  0.00  0.00    +0.000 A 
ATOM      6  C   UNL     1     -15.046  59.072  50.771  0.00  0.00    +0.000 C 
ATOM      7  C   UNL     1     -13.921  57.181  52.864  0.00  0.00    +0.000 C 
ATOM      8  C   UNL     1     -15.078  59.367  52.276  0.00  0.00    +0.000 C 
ATOM      9  C   UNL     1     -15.144  58.080  53.108  0.00  0.00    +0.000 C 
ENDROOT
BRANCH   1  13
ATOM     10  N   UNL     1     -10.148  54.634  47.258  0.00  0.00    +0.000 N 
ATOM     11  C   UNL     1     -10.592  55.494  48.277  0.00  0.00    +0.000 C 
ATOM     12  O   UNL     1      -9.720  56.066  48.914  0.00  0.00    +0.000 OA
ATOM     13  N   UNL     1     -11.944  55.553  48.476  0.00  0.00    +0.000 N 
ATOM     14  H   UNL     1      -9.179  54.629  47.084  0.00  0.00    +0.000 HD
ATOM     15  H   UNL     1     -12.486  54.990  47.878  0.00  0.00    +0.000 HD
BRANCH  10  16
ATOM     16  S   UNL     1     -11.060  53.632  46.320  0.00  0.00    +0.000 S 
ATOM     17  O   UNL     1     -11.710  54.442  45.320  0.00  0.00    +0.000 OA
ATOM     18  O   UNL     1     -11.828  52.805  47.218  0.00  0.00    +0.000 OA
BRANCH  16  19
ATOM     19  C   UNL     1      -9.851  52.594  45.497  0.00  0.00    +0.000 C 
BRANCH  19  20
ATOM     20  C   UNL     1      -8.864  53.486  44.749  0.00  0.00    +0.000 C 
BRANCH  20  21
ATOM     21  C   UNL     1      -8.684  53.094  43.288  0.00  0.00    +0.000 C 
ATOM     22  C   UNL     1      -9.863  52.251  42.820  0.00  0.00    +0.000 C 
ENDBRANCH  20  21
ENDBRANCH  19  20
ENDBRANCH  16  19
ENDBRANCH  10  16
ENDBRANCH   1  13
BRANCH   3  23
ATOM     23  C   UNL     1     -11.980  55.043  51.507  0.00  0.00    +0.000 C 
ATOM     24  O   UNL     1     -11.127  55.295  52.351  0.00  0.00    +0.000 OA
BRANCH  23  25
ATOM     25  O   UNL     1     -12.255  53.780  51.066  0.00  0.00    +0.000 OA
BRANCH  25  26
ATOM     26  C   UNL     1     -11.393  52.734  51.527  0.00  0.00    +0.000 C 
ATOM     27  C   UNL     1     -10.390  52.445  50.426  0.00  0.00    +0.000 C 
ENDBRANCH  25  26
ENDBRANCH  23  25
ENDBRANCH   3  23
TORSDOF 8
ENDMDL
MODEL 2
REMARK VINA RESULT:      -6.4      3.405      7.179
REMARK  Name = 
REMARK  10 active torsions:
REMARK  status: ('A' for Active; 'I' for Inactive)
REMARK    1  A    between atoms: S_1  and  N_4
REMARK    2  A    between atoms: S_1  and  C_5
REMARK    3  A    between atoms: C_5  and  C_7
REMARK    4  A    between atoms: C_7  and  C_10
REMARK    5  A    between atoms: N_9  and  C_11
REMARK    6  A    between atoms: C_10  and  C_12
REMARK    7  A    between atoms: C_14  and  C_17
REMARK    8  A    between atoms: C_17  and  O_21
REMARK    9  A    between atoms: O_21  and  C_24
REMARK   10  A    between atoms: C_24  and  C_25
REMARK                            x       y       z     vdW  Elec       q    Type
REMARK                         _______ _______ _______ _____ _____    ______ ____
ROOT
ATOM      1  C   UNL     1     -10.055  55.119  52.041  0.00  0.00    +0.000 A 
ATOM      2  S   UNL     1      -9.516  54.508  53.530  0.00  0.00    +0.000 S 
ATOM      3  C   UNL     1      -9.023  55.297  51.121  0.00  0.00    +0.000 A 
ATOM      4  C   UNL     1      -7.907  54.469  53.007  0.00  0.00    +0.000 A 
ATOM      5  C   UNL     1      -7.755  54.904  51.702  0.00  0.00    +0.000 A 
ATOM      6  C   UNL     1      -6.808  53.984  53.900  0.00  0.00    +0.000 C 
ATOM      7  C   UNL     1      -6.397  54.987  51.062  0.00  0.00    +0.000 C 
ATOM      8  C   UNL     1      -5.437  54.385  53.339  0.00  0.00    +0.000 C 
ATOM      9  C   UNL     1      -5.352  54.156  51.824  0.00  0.00    +0.000 C 
ENDROOT
BRANCH   1  13
ATOM     10  N   UNL     1     -13.687  54.998  51.369  0.00  0.00    +0.000 N 
ATOM     11  C   UNL     1     -12.392  54.470  51.502  0.00  0.00    +0.000 C 
ATOM     12  O   UNL     1     -12.287  53.261  51.353  0.00  0.00    +0.000 OA
ATOM     13  N   UNL     1     -11.405  55.357  51.836  0.00  0.00    +0.000 N 
ATOM     14  H   UNL     1     -14.387  54.368  51.082  0.00  0.00    +0.000 HD
ATOM     15  H   UNL     1     -11.694  56.291  51.945  0.00  0.00    +0.000 HD
BRANCH  10  16
ATOM     16  S   UNL     1     -14.172  56.551  51.638  0.00  0.00    +0.000 S 
ATOM     17  O   UNL     1     -13.490  57.023  52.816  0.00  0.00    +0.000 OA
ATOM     18  O   UNL     1     -15.613  56.555  51.563  0.00  0.00    +0.000 OA
BRANCH  16  19
ATOM     19  C   UNL     1     -13.534  57.452  50.225  0.00  0.00    +0.000 C 
BRANCH  19  20
ATOM     20  C   UNL     1     -14.599  58.436  49.747  0.00  0.00    +0.000 C 
BRANCH  20  21
ATOM     21  C   UNL     1     -14.433  59.834  50.328  0.00  0.00    +0.000 C 
ATOM     22  C   UNL     1     -13.187  60.498  49.756  0.00  0.00    +0.000 C 
ENDBRANCH  20  21
ENDBRANCH  19  20
ENDBRANCH  16  19
ENDBRANCH  10  16
ENDBRANCH   1  13
BRANCH   3  23
ATOM     23  C   UNL     1      -9.180  55.881  49.782  0.00  0.00    +0.000 C 
ATOM     24  O   UNL     1      -8.791  57.005  49.479  0.00  0.00    +0.000 OA
BRANCH  23  25
ATOM     25  O   UNL     1      -9.899  55.079  48.942  0.00  0.00    +0.000 OA
BRANCH  25  26
ATOM     26  C   UNL     1     -10.944  55.706  48.190  0.00  0.00    +0.000 C 
ATOM     27  C   UNL     1     -10.773  55.300  46.738  0.00  0.00    +0.000 C 
ENDBRANCH  25  26
ENDBRANCH  23  25
ENDBRANCH   3  23
TORSDOF 8
ENDMDL
MODEL 3
REMARK VINA RESULT:      -6.2      1.247      1.721
REMARK  Name = 
REMARK  10 active torsions:
REMARK  status: ('A' for Active; 'I' for Inactive)
REMARK    1  A    between atoms: S_1  and  N_4
REMARK    2  A    between atoms: S_1  and  C_5
REMARK    3  A    between atoms: C_5  and  C_7
REMARK    4  A    between atoms: C_7  and  C_10
REMARK    5  A    between atoms: N_9  and  C_11
REMARK    6  A    between atoms: C_10  and  C_12
REMARK    7  A    between atoms: C_14  and  C_17
REMARK    8  A    between atoms: C_17  and  O_21
REMARK    9  A    between atoms: O_21  and  C_24
REMARK   10  A    between atoms: C_24  and  C_25
REMARK                            x       y       z     vdW  Elec       q    Type
REMARK                         _______ _______ _______ _____ _____    ______ ____
ROOT
ATOM      1  C   UNL     1     -12.082  56.100  49.683  0.00  0.00    +0.000 A 
ATOM      2  S   UNL     1     -12.989  57.343  48.968  0.00  0.00    +0.000 S 
ATOM      3  C   UNL     1     -12.338  55.954  51.045  0.00  0.00    +0.000 A 
ATOM      4  C   UNL     1     -13.741  57.730  50.434  0.00  0.00    +0.000 A 
ATOM      5  C   UNL     1     -13.327  56.921  51.479  0.00  0.00    +0.000 A 
ATOM      6  C   UNL     1     -14.754  58.826  50.527  0.00  0.00    +0.000 C 
ATOM      7  C   UNL     1     -13.843  57.130  52.876  0.00  0.00    +0.000 C 
ATOM      8  C   UNL     1     -15.003  59.212  51.991  0.00  0.00    +0.000 C 
ATOM      9  C   UNL     1     -15.125  57.977  52.893  0.00  0.00    +0.000 C 
ENDROOT
BRANCH   1  13
ATOM     10  N   UNL     1     -10.383  53.587  47.572  0.00  0.00    +0.000 N 
ATOM     11  C   UNL     1     -11.448  54.128  48.311  0.00  0.00    +0.000 C 
ATOM     12  O   UNL     1     -12.488  53.486  48.303  0.00  0.00    +0.000 OA
ATOM     13  N   UNL     1     -11.221  55.337  48.910  0.00  0.00    +0.000 N 
ATOM     14  H   UNL     1     -10.532  52.696  47.181  0.00  0.00    +0.000 HD
ATOM     15  H   UNL     1     -10.322  55.715  48.774  0.00  0.00    +0.000 HD
BRANCH  10  16
ATOM     16  S   UNL     1      -8.911  54.271  47.281  0.00  0.00    +0.000 S 
ATOM     17  O   UNL     1      -8.148  54.199  48.501  0.00  0.00    +0.000 OA
ATOM     18  O   UNL     1      -9.161  55.537  46.635  0.00  0.00    +0.000 OA
BRANCH  16  19
ATOM     19  C   UNL     1      -8.155  53.170  46.085  0.00  0.00    +0.000 C 
BRANCH  19  20
ATOM     20  C   UNL     1      -8.412  53.715  44.682  0.00  0.00    +0.000 C 
BRANCH  20  21
ATOM     21  C   UNL     1      -8.842  52.644  43.688  0.00  0.00    +0.000 C 
ATOM     22  C   UNL     1     -10.360  52.613  43.571  0.00  0.00    +0.000 C 
ENDBRANCH  20  21
ENDBRANCH  19  20
ENDBRANCH  16  19
ENDBRANCH  10  16
ENDBRANCH   1  13
BRANCH   3  23
ATOM     23  C   UNL     1     -11.645  55.015  51.937  0.00  0.00    +0.000 C 
ATOM     24  O   UNL     1     -10.823  55.357  52.781  0.00  0.00    +0.000 OA
BRANCH  23  25
ATOM     25  O   UNL     1     -11.936  53.712  51.652  0.00  0.00    +0.000 OA
BRANCH  25  26
ATOM     26  C   UNL     1     -11.071  52.720  52.214  0.00  0.00    +0.000 C 
ATOM     27  C   UNL     1     -11.189  51.469  51.364  0.00  0.00    +0.000 C 
ENDBRANCH  25  26
ENDBRANCH  23  25
ENDBRANCH   3  23
TORSDOF 8
ENDMDL
MODEL 4
REMARK VINA RESULT:      -6.2      3.680      7.512
REMARK  Name = 
REMARK  10 active torsions:
REMARK  status: ('A' for Active; 'I' for Inactive)
REMARK    1  A    between atoms: S_1  and  N_4
REMARK    2  A    between atoms: S_1  and  C_5
REMARK    3  A    between atoms: C_5  and  C_7
REMARK    4  A    between atoms: C_7  and  C_10
REMARK    5  A    between atoms: N_9  and  C_11
REMARK    6  A    between atoms: C_10  and  C_12
REMARK    7  A    between atoms: C_14  and  C_17
REMARK    8  A    between atoms: C_17  and  O_21
REMARK    9  A    between atoms: O_21  and  C_24
REMARK   10  A    between atoms: C_24  and  C_25
REMARK                            x       y       z     vdW  Elec       q    Type
REMARK                         _______ _______ _______ _____ _____    ______ ____
ROOT
ATOM      1  C   UNL     1      -9.464  54.800  52.172  0.00  0.00    +0.000 A 
ATOM      2  S   UNL     1      -9.053  55.068  53.796  0.00  0.00    +0.000 S 
ATOM      3  C   UNL     1      -8.372  54.429  51.389  0.00  0.00    +0.000 A 
ATOM      4  C   UNL     1      -7.423  54.712  53.512  0.00  0.00    +0.000 A 
ATOM      5  C   UNL     1      -7.168  54.376  52.194  0.00  0.00    +0.000 A 
ATOM      6  C   UNL     1      -6.411  54.753  54.614  0.00  0.00    +0.000 C 
ATOM      7  C   UNL     1      -5.774  54.067  51.725  0.00  0.00    +0.000 C 
ATOM      8  C   UNL     1      -4.987  54.754  54.043  0.00  0.00    +0.000 C 
ATOM      9  C   UNL     1      -4.832  53.747  52.896  0.00  0.00    +0.000 C 
ENDROOT
BRANCH   1  13
ATOM     10  N   UNL     1     -13.024  54.398  51.267  0.00  0.00    +0.000 N 
ATOM     11  C   UNL     1     -11.766  53.978  51.729  0.00  0.00    +0.000 C 
ATOM     12  O   UNL     1     -11.693  52.816  52.104  0.00  0.00    +0.000 OA
ATOM     13  N   UNL     1     -10.781  54.926  51.760  0.00  0.00    +0.000 N 
ATOM     14  H   UNL     1     -13.719  53.703  51.201  0.00  0.00    +0.000 HD
ATOM     15  H   UNL     1     -11.044  55.821  51.445  0.00  0.00    +0.000 HD
BRANCH  10  16
ATOM     16  S   UNL     1     -13.475  55.921  50.823  0.00  0.00    +0.000 S 
ATOM     17  O   UNL     1     -14.828  55.849  50.331  0.00  0.00    +0.000 OA
ATOM     18  O   UNL     1     -12.413  56.446  50.001  0.00  0.00    +0.000 OA
BRANCH  16  19
ATOM     19  C   UNL     1     -13.492  56.832  52.367  0.00  0.00    +0.000 C 
BRANCH  19  20
ATOM     20  C   UNL     1     -14.919  57.289  52.655  0.00  0.00    +0.000 C 
BRANCH  20  21
ATOM     21  C   UNL     1     -15.078  58.804  52.661  0.00  0.00    +0.000 C 
ATOM     22  C   UNL     1     -15.003  59.348  51.241  0.00  0.00    +0.000 C 
ENDBRANCH  20  21
ENDBRANCH  19  20
ENDBRANCH  16  19
ENDBRANCH  10  16
ENDBRANCH   1  13
BRANCH   3  23
ATOM     23  C   UNL     1      -8.413  54.209  49.937  0.00  0.00    +0.000 C 
ATOM     24  O   UNL     1      -8.080  53.159  49.397  0.00  0.00    +0.000 OA
BRANCH  23  25
ATOM     25  O   UNL     1      -8.760  55.335  49.246  0.00  0.00    +0.000 OA
BRANCH  25  26
ATOM     26  C   UNL     1      -9.696  55.172  48.175  0.00  0.00    +0.000 C 
ATOM     27  C   UNL     1      -8.936  55.333  46.871  0.00  0.00    +0.000 C 
ENDBRANCH  25  26
ENDBRANCH  23  25
ENDBRANCH   3  23
TORSDOF 8
ENDMDL
MODEL 5
REMARK VINA RESULT:      -6.0      1.976      7.873
REMARK  Name = 
REMARK  10 active torsions:
REMARK  status: ('A' for Active; 'I' for Inactive)
REMARK    1  A    between atoms: S_1  and  N_4
REMARK    2  A    between atoms: S_1  and  C_5
REMARK    3  A    between atoms: C_5  and  C_7
REMARK    4  A    between atoms: C_7  and  C_10
REMARK    5  A    between atoms: N_9  and  C_11
REMARK    6  A    between atoms: C_10  and  C_12
REMARK    7  A    between atoms: C_14  and  C_17
REMARK    8  A    between atoms: C_17  and  O_21
REMARK    9  A    between atoms: O_21  and  C_24
REMARK   10  A    between atoms: C_24  and  C_25
REMARK                            x       y       z     vdW  Elec       q    Type
REMARK                         _______ _______ _______ _____ _____    ______ ____
ROOT
ATOM      1  C   UNL     1     -11.419  53.904  46.559  0.00  0.00    +0.000 A 
ATOM      2  S   UNL     1     -12.246  52.718  45.670  0.00  0.00    +0.000 S 
ATOM      3  C   UNL     1     -10.091  54.054  46.161  0.00  0.00    +0.000 A 
ATOM      4  C   UNL     1     -10.876  52.363  44.741  0.00  0.00    +0.000 A 
ATOM      5  C   UNL     1      -9.781  53.140  45.080  0.00  0.00    +0.000 A 
ATOM      6  C   UNL     1     -10.910  51.324  43.666  0.00  0.00    +0.000 C 
ATOM      7  C   UNL     1      -8.453  52.950  44.402  0.00  0.00    +0.000 C 
ATOM      8  C   UNL     1      -9.488  50.941  43.236  0.00  0.00    +0.000 C 
ATOM      9  C   UNL     1      -8.588  52.175  43.082  0.00  0.00    +0.000 C 
ENDROOT
BRANCH   1  13
ATOM     10  N   UNL     1     -13.113  55.182  49.585  0.00  0.00    +0.000 N 
ATOM     11  C   UNL     1     -12.455  54.224  48.794  0.00  0.00    +0.000 C 
ATOM     12  O   UNL     1     -12.239  53.145  49.326  0.00  0.00    +0.000 OA
ATOM     13  N   UNL     1     -12.082  54.624  47.540  0.00  0.00    +0.000 N 
ATOM     14  H   UNL     1     -13.422  54.877  50.469  0.00  0.00    +0.000 HD
ATOM     15  H   UNL     1     -12.318  55.550  47.302  0.00  0.00    +0.000 HD
BRANCH  10  16
ATOM     16  S   UNL     1     -13.426  56.755  49.206  0.00  0.00    +0.000 S 
ATOM     17  O   UNL     1     -14.158  56.768  47.965  0.00  0.00    +0.000 OA
ATOM     18  O   UNL     1     -12.181  57.471  49.341  0.00  0.00    +0.000 OA
BRANCH  16  19
ATOM     19  C   UNL     1     -14.529  57.300  50.511  0.00  0.00    +0.000 C 
BRANCH  19  20
ATOM     20  C   UNL     1     -14.123  56.620  51.816  0.00  0.00    +0.000 C 
BRANCH  20  21
ATOM     21  C   UNL     1     -14.019  57.583  52.991  0.00  0.00    +0.000 C 
ATOM     22  C   UNL     1     -15.136  58.616  52.926  0.00  0.00    +0.000 C 
ENDBRANCH  20  21
ENDBRANCH  19  20
ENDBRANCH  16  19
ENDBRANCH  10  16
ENDBRANCH   1  13
BRANCH   3  23
ATOM     23  C   UNL     1      -9.116  54.947  46.801  0.00  0.00    +0.000 C 
ATOM     24  O   UNL     1      -8.330  55.656  46.180  0.00  0.00    +0.000 OA
BRANCH  23  25
ATOM     25  O   UNL     1      -9.107  54.824  48.161  0.00  0.00    +0.000 OA
BRANCH  25  26
ATOM     26  C   UNL     1      -8.963  56.031  48.917  0.00  0.00    +0.000 C 
ATOM     27  C   UNL     1      -7.924  55.779  49.994  0.00  0.00    +0.000 C 
ENDBRANCH  25  26
ENDBRANCH  23  25
ENDBRANCH   3  23
TORSDOF 8
ENDMDL
MODEL 6
REMARK VINA RESULT:      -6.0      2.258      3.075
REMARK  Name = 
REMARK  10 active torsions:
REMARK  status: ('A' for Active; 'I' for Inactive)
REMARK    1  A    between atoms: S_1  and  N_4
REMARK    2  A    between atoms: S_1  and  C_5
REMARK    3  A    between atoms: C_5  and  C_7
REMARK    4  A    between atoms: C_7  and  C_10
REMARK    5  A    between atoms: N_9  and  C_11
REMARK    6  A    between atoms: C_10  and  C_12
REMARK    7  A    between atoms: C_14  and  C_17
REMARK    8  A    between atoms: C_17  and  O_21
REMARK    9  A    between atoms: O_21  and  C_24
REMARK   10  A    between atoms: C_24  and  C_25
REMARK                            x       y       z     vdW  Elec       q    Type
REMARK                         _______ _______ _______ _____ _____    ______ ____
ROOT
ATOM      1  C   UNL     1     -12.156  56.011  49.670  0.00  0.00    +0.000 A 
ATOM      2  S   UNL     1     -13.084  57.233  48.946  0.00  0.00    +0.000 S 
ATOM      3  C   UNL     1     -12.357  55.917  51.045  0.00  0.00    +0.000 A 
ATOM      4  C   UNL     1     -13.773  57.679  50.427  0.00  0.00    +0.000 A 
ATOM      5  C   UNL     1     -13.322  56.907  51.483  0.00  0.00    +0.000 A 
ATOM      6  C   UNL     1     -14.775  58.786  50.520  0.00  0.00    +0.000 C 
ATOM      7  C   UNL     1     -13.779  57.170  52.891  0.00  0.00    +0.000 C 
ATOM      8  C   UNL     1     -14.962  59.227  51.977  0.00  0.00    +0.000 C 
ATOM      9  C   UNL     1     -15.054  58.027  52.929  0.00  0.00    +0.000 C 
ENDROOT
BRANCH   1  13
ATOM     10  N   UNL     1     -10.542  53.390  47.624  0.00  0.00    +0.000 N 
ATOM     11  C   UNL     1     -11.566  53.958  48.401  0.00  0.00    +0.000 C 
ATOM     12  O   UNL     1     -12.584  53.292  48.518  0.00  0.00    +0.000 OA
ATOM     13  N   UNL     1     -11.331  55.213  48.891  0.00  0.00    +0.000 N 
ATOM     14  H   UNL     1     -10.693  52.468  47.312  0.00  0.00    +0.000 HD
ATOM     15  H   UNL     1     -10.457  55.602  48.661  0.00  0.00    +0.000 HD
BRANCH  10  16
ATOM     16  S   UNL     1      -9.117  54.086  47.174  0.00  0.00    +0.000 S 
ATOM     17  O   UNL     1      -9.385  55.469  46.871  0.00  0.00    +0.000 OA
ATOM     18  O   UNL     1      -8.520  53.213  46.193  0.00  0.00    +0.000 OA
BRANCH  16  19
ATOM     19  C   UNL     1      -8.119  54.024  48.662  0.00  0.00    +0.000 C 
BRANCH  19  20
ATOM     20  C   UNL     1      -7.709  55.445  49.040  0.00  0.00    +0.000 C 
BRANCH  20  21
ATOM     21  C   UNL     1      -8.077  55.819  50.470  0.00  0.00    +0.000 C 
ATOM     22  C   UNL     1      -7.529  54.783  51.443  0.00  0.00    +0.000 C 
ENDBRANCH  20  21
ENDBRANCH  19  20
ENDBRANCH  16  19
ENDBRANCH  10  16
ENDBRANCH   1  13
BRANCH   3  23
ATOM     23  C   UNL     1     -11.635  55.006  51.943  0.00  0.00    +0.000 C 
ATOM     24  O   UNL     1     -10.780  55.373  52.743  0.00  0.00    +0.000 OA
BRANCH  23  25
ATOM     25  O   UNL     1     -11.940  53.695  51.714  0.00  0.00    +0.000 OA
BRANCH  25  26
ATOM     26  C   UNL     1     -11.111  52.718  52.352  0.00  0.00    +0.000 C 
ATOM     27  C   UNL     1     -10.165  52.161  51.304  0.00  0.00    +0.000 C 
ENDBRANCH  25  26
ENDBRANCH  23  25
ENDBRANCH   3  23
TORSDOF 8
ENDMDL
MODEL 7
REMARK VINA RESULT:      -5.7      2.930      5.366
REMARK  Name = 
REMARK  10 active torsions:
REMARK  status: ('A' for Active; 'I' for Inactive)
REMARK    1  A    between atoms: S_1  and  N_4
REMARK    2  A    between atoms: S_1  and  C_5
REMARK    3  A    between atoms: C_5  and  C_7
REMARK    4  A    between atoms: C_7  and  C_10
REMARK    5  A    between atoms: N_9  and  C_11
REMARK    6  A    between atoms: C_10  and  C_12
REMARK    7  A    between atoms: C_14  and  C_17
REMARK    8  A    between atoms: C_17  and  O_21
REMARK    9  A    between atoms: O_21  and  C_24
REMARK   10  A    between atoms: C_24  and  C_25
REMARK                            x       y       z     vdW  Elec       q    Type
REMARK                         _______ _______ _______ _____ _____    ______ ____
ROOT
ATOM      1  C   UNL     1     -12.426  55.984  51.209  0.00  0.00    +0.000 A 
ATOM      2  S   UNL     1     -13.398  56.710  52.395  0.00  0.00    +0.000 S 
ATOM      3  C   UNL     1     -12.473  56.648  49.985  0.00  0.00    +0.000 A 
ATOM      4  C   UNL     1     -13.915  57.918  51.327  0.00  0.00    +0.000 A 
ATOM      5  C   UNL     1     -13.354  57.796  50.067  0.00  0.00    +0.000 A 
ATOM      6  C   UNL     1     -14.862  58.990  51.761  0.00  0.00    +0.000 C 
ATOM      7  C   UNL     1     -13.718  58.745  48.959  0.00  0.00    +0.000 C 
ATOM      8  C   UNL     1     -15.447  59.722  50.546  0.00  0.00    +0.000 C 
ATOM      9  C   UNL     1     -14.373  60.028  49.494  0.00  0.00    +0.000 C 
ENDROOT
BRANCH   1  13
ATOM     10  N   UNL     1     -10.841  52.659  51.507  0.00  0.00    +0.000 N 
ATOM     11  C   UNL     1     -11.752  53.601  51.002  0.00  0.00    +0.000 C 
ATOM     12  O   UNL     1     -12.495  53.208  50.114  0.00  0.00    +0.000 OA
ATOM     13  N   UNL     1     -11.670  54.864  51.521  0.00  0.00    +0.000 N 
ATOM     14  H   UNL     1     -10.933  51.739  51.167  0.00  0.00    +0.000 HD
ATOM     15  H   UNL     1     -10.981  54.995  52.211  0.00  0.00    +0.000 HD
BRANCH  10  16
ATOM     16  S   UNL     1      -9.634  52.912  52.601  0.00  0.00    +0.000 S 
ATOM     17  O   UNL     1      -9.061  51.629  52.923  0.00  0.00    +0.000 OA
ATOM     18  O   UNL     1     -10.179  53.762  53.632  0.00  0.00    +0.000 OA
BRANCH  16  19
ATOM     19  C   UNL     1      -8.414  53.854  51.685  0.00  0.00    +0.000 C 
BRANCH  19  20
ATOM     20  C   UNL     1      -8.343  55.264  52.264  0.00  0.00    +0.000 C 
BRANCH  20  21
ATOM     21  C   UNL     1      -7.003  55.583  52.913  0.00  0.00    +0.000 C 
ATOM     22  C   UNL     1      -6.978  55.074  54.348  0.00  0.00    +0.000 C 
ENDBRANCH  20  21
ENDBRANCH  19  20
ENDBRANCH  16  19
ENDBRANCH  10  16
ENDBRANCH   1  13
BRANCH   3  23
ATOM     23  C   UNL     1     -11.797  56.205  48.758  0.00  0.00    +0.000 C 
ATOM     24  O   UNL     1     -12.385  55.750  47.782  0.00  0.00    +0.000 OA
BRANCH  23  25
ATOM     25  O   UNL     1     -10.437  56.253  48.864  0.00  0.00    +0.000 OA
BRANCH  25  26
ATOM     26  C   UNL     1      -9.714  55.095  48.433  0.00  0.00    +0.000 C 
ATOM     27  C   UNL     1      -8.998  55.451  47.144  0.00  0.00    +0.000 C 
ENDBRANCH  25  26
ENDBRANCH  23  25
ENDBRANCH   3  23
TORSDOF 8
ENDMDL
MODEL 8
REMARK VINA RESULT:      -5.7      2.938      7.455
REMARK  Name = 
REMARK  10 active torsions:
REMARK  status: ('A' for Active; 'I' for Inactive)
REMARK    1  A    between atoms: S_1  and  N_4
REMARK    2  A    between atoms: S_1  and  C_5
REMARK    3  A    between atoms: C_5  and  C_7
REMARK    4  A    between atoms: C_7  and  C_10
REMARK    5  A    between atoms: N_9  and  C_11
REMARK    6  A    between atoms: C_10  and  C_12
REMARK    7  A    between atoms: C_14  and  C_17
REMARK    8  A    between atoms: C_17  and  O_21
REMARK    9  A    between atoms: O_21  and  C_24
REMARK   10  A    between atoms: C_24  and  C_25
REMARK                            x       y       z     vdW  Elec       q    Type
REMARK                         _______ _______ _______ _____ _____    ______ ____
ROOT
ATOM      1  C   UNL     1      -9.694  55.339  49.707  0.00  0.00    +0.000 A 
ATOM      2  S   UNL     1      -8.337  56.328  49.954  0.00  0.00    +0.000 S 
ATOM      3  C   UNL     1      -9.362  54.056  49.276  0.00  0.00    +0.000 A 
ATOM      4  C   UNL     1      -7.273  55.095  49.492  0.00  0.00    +0.000 A 
ATOM      5  C   UNL     1      -7.924  53.921  49.157  0.00  0.00    +0.000 A 
ATOM      6  C   UNL     1      -5.792  55.305  49.486  0.00  0.00    +0.000 C 
ATOM      7  C   UNL     1      -7.161  52.718  48.677  0.00  0.00    +0.000 C 
ATOM      8  C   UNL     1      -5.089  54.192  48.697  0.00  0.00    +0.000 C 
ATOM      9  C   UNL     1      -5.667  52.809  49.026  0.00  0.00    +0.000 C 
ENDROOT
BRANCH   1  13
ATOM     10  N   UNL     1     -12.965  56.360  51.092  0.00  0.00    +0.000 N 
ATOM     11  C   UNL     1     -11.695  55.759  51.119  0.00  0.00    +0.000 C 
ATOM     12  O   UNL     1     -11.352  55.277  52.188  0.00  0.00    +0.000 OA
ATOM     13  N   UNL     1     -10.965  55.830  49.964  0.00  0.00    +0.000 N 
ATOM     14  H   UNL     1     -13.508  56.267  51.909  0.00  0.00    +0.000 HD
ATOM     15  H   UNL     1     -11.404  56.291  49.213  0.00  0.00    +0.000 HD
BRANCH  10  16
ATOM     16  S   UNL     1     -13.653  57.204  49.854  0.00  0.00    +0.000 S 
ATOM     17  O   UNL     1     -14.026  56.256  48.835  0.00  0.00    +0.000 OA
ATOM     18  O   UNL     1     -12.768  58.303  49.558  0.00  0.00    +0.000 OA
BRANCH  16  19
ATOM     19  C   UNL     1     -15.155  57.871  50.571  0.00  0.00    +0.000 C 
BRANCH  19  20
ATOM     20  C   UNL     1     -14.832  59.205  51.240  0.00  0.00    +0.000 C 
BRANCH  20  21
ATOM     21  C   UNL     1     -15.262  59.269  52.699  0.00  0.00    +0.000 C 
ATOM     22  C   UNL     1     -15.167  57.889  53.337  0.00  0.00    +0.000 C 
ENDBRANCH  20  21
ENDBRANCH  19  20
ENDBRANCH  16  19
ENDBRANCH  10  16
ENDBRANCH   1  13
BRANCH   3  23
ATOM     23  C   UNL     1     -10.330  53.014  48.910  0.00  0.00    +0.000 C 
ATOM     24  O   UNL     1     -10.240  51.844  49.269  0.00  0.00    +0.000 OA
BRANCH  23  25
ATOM     25  O   UNL     1     -11.280  53.465  48.039  0.00  0.00    +0.000 OA
BRANCH  25  26
ATOM     26  C   UNL     1     -10.850  53.743  46.702  0.00  0.00    +0.000 C 
ATOM     27  C   UNL     1     -11.564  55.000  46.241  0.00  0.00    +0.000 C 
ENDBRANCH  25  26
ENDBRANCH  23  25
ENDBRANCH   3  23
TORSDOF 8
ENDMDL
MODEL 9
REMARK VINA RESULT:      -5.7      3.080      7.607
REMARK  Name = 
REMARK  10 active torsions:
REMARK  status: ('A' for Active; 'I' for Inactive)
REMARK    1  A    between atoms: S_1  and  N_4
REMARK    2  A    between atoms: S_1  and  C_5
REMARK    3  A    between atoms: C_5  and  C_7
REMARK    4  A    between atoms: C_7  and  C_10
REMARK    5  A    between atoms: N_9  and  C_11
REMARK    6  A    between atoms: C_10  and  C_12
REMARK    7  A    between atoms: C_14  and  C_17
REMARK    8  A    between atoms: C_17  and  O_21
REMARK    9  A    between atoms: O_21  and  C_24
REMARK   10  A    between atoms: C_24  and  C_25
REMARK                            x       y       z     vdW  Elec       q    Type
REMARK                         _______ _______ _______ _____ _____    ______ ____
ROOT
ATOM      1  C   UNL     1      -9.551  54.076  49.393  0.00  0.00    +0.000 A 
ATOM      2  S   UNL     1      -9.150  53.922  47.752  0.00  0.00    +0.000 S 
ATOM      3  C   UNL     1      -8.512  53.705  50.245  0.00  0.00    +0.000 A 
ATOM      4  C   UNL     1      -7.597  53.355  48.116  0.00  0.00    +0.000 A 
ATOM      5  C   UNL     1      -7.357  53.285  49.477  0.00  0.00    +0.000 A 
ATOM      6  C   UNL     1      -6.622  53.003  47.037  0.00  0.00    +0.000 C 
ATOM      7  C   UNL     1      -6.051  52.764  50.011  0.00  0.00    +0.000 C 
ATOM      8  C   UNL     1      -5.454  52.187  47.607  0.00  0.00    +0.000 C 
ATOM      9  C   UNL     1      -4.951  52.764  48.937  0.00  0.00    +0.000 C 
ENDROOT
BRANCH   1  13
ATOM     10  N   UNL     1     -13.123  54.685  50.122  0.00  0.00    +0.000 N 
ATOM     11  C   UNL     1     -12.019  53.953  49.654  0.00  0.00    +0.000 C 
ATOM     12  O   UNL     1     -12.257  52.826  49.244  0.00  0.00    +0.000 OA
ATOM     13  N   UNL     1     -10.798  54.559  49.761  0.00  0.00    +0.000 N 
ATOM     14  H   UNL     1     -14.006  54.266  50.001  0.00  0.00    +0.000 HD
ATOM     15  H   UNL     1     -10.806  55.463  50.150  0.00  0.00    +0.000 HD
BRANCH  10  16
ATOM     16  S   UNL     1     -13.113  56.163  50.851  0.00  0.00    +0.000 S 
ATOM     17  O   UNL     1     -12.631  57.121  49.888  0.00  0.00    +0.000 OA
ATOM     18  O   UNL     1     -12.455  55.996  52.124  0.00  0.00    +0.000 OA
BRANCH  16  19
ATOM     19  C   UNL     1     -14.847  56.504  51.157  0.00  0.00    +0.000 C 
BRANCH  19  20
ATOM     20  C   UNL     1     -14.987  57.146  52.535  0.00  0.00    +0.000 C 
BRANCH  20  21
ATOM     21  C   UNL     1     -14.760  58.652  52.525  0.00  0.00    +0.000 C 
ATOM     22  C   UNL     1     -15.165  59.237  51.178  0.00  0.00    +0.000 C 
ENDBRANCH  20  21
ENDBRANCH  19  20
ENDBRANCH  16  19
ENDBRANCH  10  16
ENDBRANCH   1  13
BRANCH   3  23
ATOM     23  C   UNL     1      -8.599  53.661  51.711  0.00  0.00    +0.000 C 
ATOM     24  O   UNL     1      -8.610  52.621  52.362  0.00  0.00    +0.000 OA
BRANCH  23  25
ATOM     25  O   UNL     1      -8.772  54.898  52.262  0.00  0.00    +0.000 OA
BRANCH  25  26
ATOM     26  C   UNL     1      -7.609  55.726  52.368  0.00  0.00    +0.000 C 
ATOM     27  C   UNL     1      -7.160  55.706  53.818  0.00  0.00    +0.000 C 
ENDBRANCH  25  26
ENDBRANCH  23  25
ENDBRANCH   3  23
TORSDOF 8
ENDMDL
