MODEL 1
REMARK VINA RESULT:      -7.8      0.000      0.000
REMARK  Name = 
REMARK  9 active torsions:
REMARK  status: ('A' for Active; 'I' for Inactive)
REMARK    1  A    between atoms: S_1  and  N_4
REMARK    2  A    between atoms: S_1  and  C_5
REMARK    3  A    between atoms: N_10  and  C_13
REMARK    4  A    between atoms: C_16  and  C_19
REMARK    5  A    between atoms: C_19  and  O_23
REMARK    6  A    between atoms: O_23  and  C_26
REMARK    7  A    between atoms: C_24  and  C_27
REMARK    8  A    between atoms: C_24  and  C_28
REMARK    9  A    between atoms: C_26  and  C_29
REMARK                            x       y       z     vdW  Elec       q    Type
REMARK                         _______ _______ _______ _____ _____    ______ ____
ROOT
ATOM      1  C   UNL     1     -10.940  54.410  51.462  0.00  0.00    +0.000 A 
ATOM      2  S   UNL     1     -10.567  53.816  53.009  0.00  0.00    +0.000 S 
ATOM      3  C   UNL     1      -9.835  54.886  50.771  0.00  0.00    +0.000 A 
ATOM      4  C   UNL     1      -8.895  53.900  52.687  0.00  0.00    +0.000 A 
ATOM      5  C   UNL     1      -8.630  54.474  51.455  0.00  0.00    +0.000 A 
ATOM      6  C   UNL     1      -7.855  53.395  53.655  0.00  0.00    +0.000 C 
ATOM      7  C   UNL     1      -7.226  54.695  50.971  0.00  0.00    +0.000 C 
ATOM      8  C   UNL     1      -6.448  53.978  53.323  0.00  0.00    +0.000 C 
ATOM      9  C   UNL     1      -6.203  53.901  51.791  0.00  0.00    +0.000 C 
ATOM     10  C   UNL     1      -5.349  53.158  54.024  0.00  0.00    +0.000 C 
ATOM     11  C   UNL     1      -6.345  55.432  53.825  0.00  0.00    +0.000 C 
ENDROOT
BRANCH   1  15
ATOM     12  N   UNL     1     -14.431  55.192  51.139  0.00  0.00    +0.000 N 
ATOM     13  C   UNL     1     -13.101  55.372  51.485  0.00  0.00    +0.000 C 
ATOM     14  O   UNL     1     -12.718  56.400  52.028  0.00  0.00    +0.000 OA
ATOM     15  N   UNL     1     -12.276  54.332  51.114  0.00  0.00    +0.000 N 
ATOM     16  H   UNL     1     -14.715  54.319  50.783  0.00  0.00    +0.000 HD
ATOM     17  H   UNL     1     -12.627  53.558  50.616  0.00  0.00    +0.000 HD
BRANCH  12  18
ATOM     18  S   UNL     1     -15.571  56.403  51.307  0.00  0.00    +0.000 S 
ATOM     19  O   UNL     1     -15.704  56.713  52.721  0.00  0.00    +0.000 OA
ATOM     20  O   UNL     1     -16.726  55.971  50.551  0.00  0.00    +0.000 OA
BRANCH  18  21
ATOM     21  C   UNL     1     -14.846  57.812  50.465  0.00  0.00    +0.000 A 
ATOM     22  N   UNL     1     -14.397  57.542  49.206  0.00  0.00    +0.000 NA
ATOM     23  C   UNL     1     -14.756  59.044  51.096  0.00  0.00    +0.000 A 
ATOM     24  C   UNL     1     -13.862  58.591  48.543  0.00  0.00    +0.000 A 
ATOM     25  C   UNL     1     -14.183  60.091  50.380  0.00  0.00    +0.000 A 
ATOM     26  C   UNL     1     -13.735  59.866  49.081  0.00  0.00    +0.000 A 
ENDBRANCH  18  21
ENDBRANCH  12  18
ENDBRANCH   1  15
BRANCH   3  27
ATOM     27  C   UNL     1      -9.889  55.723  49.561  0.00  0.00    +0.000 C 
ATOM     28  O   UNL     1      -9.555  56.902  49.539  0.00  0.00    +0.000 OA
BRANCH  27  29
ATOM     29  O   UNL     1     -10.500  55.086  48.519  0.00  0.00    +0.000 OA
BRANCH  29  30
ATOM     30  C   UNL     1     -11.527  55.784  47.810  0.00  0.00    +0.000 C 
ATOM     31  C   UNL     1     -11.679  55.243  46.404  0.00  0.00    +0.000 C 
ENDBRANCH  29  30
ENDBRANCH  27  29
ENDBRANCH   3  27
TORSDOF 6
ENDMDL
MODEL 2
REMARK VINA RESULT:      -7.6      2.734      7.650
REMARK  Name = 
REMARK  9 active torsions:
REMARK  status: ('A' for Active; 'I' for Inactive)
REMARK    1  A    between atoms: S_1  and  N_4
REMARK    2  A    between atoms: S_1  and  C_5
REMARK    3  A    between atoms: N_10  and  C_13
REMARK    4  A    between atoms: C_16  and  C_19
REMARK    5  A    between atoms: C_19  and  O_23
REMARK    6  A    between atoms: O_23  and  C_26
REMARK    7  A    between atoms: C_24  and  C_27
REMARK    8  A    between atoms: C_24  and  C_28
REMARK    9  A    between atoms: C_26  and  C_29
REMARK                            x       y       z     vdW  Elec       q    Type
REMARK                         _______ _______ _______ _____ _____    ______ ____
ROOT
ATOM      1  C   UNL     1     -11.098  54.898  50.197  0.00  0.00    +0.000 A 
ATOM      2  S   UNL     1     -11.781  54.891  51.753  0.00  0.00    +0.000 S 
ATOM      3  C   UNL     1     -11.725  55.771  49.321  0.00  0.00    +0.000 A 
ATOM      4  C   UNL     1     -12.732  56.258  51.389  0.00  0.00    +0.000 A 
ATOM      5  C   UNL     1     -12.605  56.644  50.065  0.00  0.00    +0.000 A 
ATOM      6  C   UNL     1     -13.597  56.943  52.417  0.00  0.00    +0.000 C 
ATOM      7  C   UNL     1     -13.382  57.797  49.499  0.00  0.00    +0.000 C 
ATOM      8  C   UNL     1     -14.663  57.855  51.737  0.00  0.00    +0.000 C 
ATOM      9  C   UNL     1     -13.995  58.673  50.598  0.00  0.00    +0.000 C 
ATOM     10  C   UNL     1     -15.248  58.849  52.757  0.00  0.00    +0.000 C 
ATOM     11  C   UNL     1     -15.824  56.999  51.192  0.00  0.00    +0.000 C 
ENDROOT
BRANCH   1  15
ATOM     12  N   UNL     1      -7.739  53.634  50.039  0.00  0.00    +0.000 N 
ATOM     13  C   UNL     1      -8.761  54.540  50.278  0.00  0.00    +0.000 C 
ATOM     14  O   UNL     1      -8.530  55.658  50.719  0.00  0.00    +0.000 OA
ATOM     15  N   UNL     1     -10.023  54.044  50.029  0.00  0.00    +0.000 N 
ATOM     16  H   UNL     1      -7.956  52.777  49.604  0.00  0.00    +0.000 HD
ATOM     17  H   UNL     1     -10.155  53.112  49.740  0.00  0.00    +0.000 HD
BRANCH  12  18
ATOM     18  S   UNL     1      -6.152  53.946  50.461  0.00  0.00    +0.000 S 
ATOM     19  O   UNL     1      -5.818  55.290  50.024  0.00  0.00    +0.000 OA
ATOM     20  O   UNL     1      -5.383  52.818  49.979  0.00  0.00    +0.000 OA
BRANCH  18  21
ATOM     21  C   UNL     1      -6.154  53.896  52.254  0.00  0.00    +0.000 A 
ATOM     22  N   UNL     1      -5.962  55.109  52.848  0.00  0.00    +0.000 NA
ATOM     23  C   UNL     1      -6.320  52.696  52.929  0.00  0.00    +0.000 A 
ATOM     24  C   UNL     1      -5.977  55.102  54.200  0.00  0.00    +0.000 A 
ATOM     25  C   UNL     1      -6.311  52.735  54.319  0.00  0.00    +0.000 A 
ATOM     26  C   UNL     1      -6.145  53.956  54.968  0.00  0.00    +0.000 A 
ENDBRANCH  18  21
ENDBRANCH  12  18
ENDBRANCH   1  15
BRANCH   3  27
ATOM     27  C   UNL     1     -11.558  55.768  47.858  0.00  0.00    +0.000 C 
ATOM     28  O   UNL     1     -12.485  55.614  47.072  0.00  0.00    +0.000 OA
BRANCH  27  29
ATOM     29  O   UNL     1     -10.244  55.794  47.489  0.00  0.00    +0.000 OA
BRANCH  29  30
ATOM     30  C   UNL     1      -9.793  54.834  46.529  0.00  0.00    +0.000 C 
ATOM     31  C   UNL     1      -8.284  54.854  46.411  0.00  0.00    +0.000 C 
ENDBRANCH  29  30
ENDBRANCH  27  29
ENDBRANCH   3  27
TORSDOF 6
ENDMDL
MODEL 3
REMARK VINA RESULT:      -7.1      3.245      8.132
REMARK  Name = 
REMARK  9 active torsions:
REMARK  status: ('A' for Active; 'I' for Inactive)
REMARK    1  A    between atoms: S_1  and  N_4
REMARK    2  A    between atoms: S_1  and  C_5
REMARK    3  A    between atoms: N_10  and  C_13
REMARK    4  A    between atoms: C_16  and  C_19
REMARK    5  A    between atoms: C_19  and  O_23
REMARK    6  A    between atoms: O_23  and  C_26
REMARK    7  A    between atoms: C_24  and  C_27
REMARK    8  A    between atoms: C_24  and  C_28
REMARK    9  A    between atoms: C_26  and  C_29
REMARK                            x       y       z     vdW  Elec       q    Type
REMARK                         _______ _______ _______ _____ _____    ______ ____
ROOT
ATOM      1  C   UNL     1     -10.986  54.997  50.259  0.00  0.00    +0.000 A 
ATOM      2  S   UNL     1     -11.525  55.086  51.868  0.00  0.00    +0.000 S 
ATOM      3  C   UNL     1     -11.774  55.713  49.371  0.00  0.00    +0.000 A 
ATOM      4  C   UNL     1     -12.640  56.314  51.473  0.00  0.00    +0.000 A 
ATOM      5  C   UNL     1     -12.669  56.573  50.112  0.00  0.00    +0.000 A 
ATOM      6  C   UNL     1     -13.476  57.017  52.512  0.00  0.00    +0.000 C 
ATOM      7  C   UNL     1     -13.606  57.585  49.520  0.00  0.00    +0.000 C 
ATOM      8  C   UNL     1     -14.685  57.752  51.857  0.00  0.00    +0.000 C 
ATOM      9  C   UNL     1     -14.206  58.507  50.587  0.00  0.00    +0.000 C 
ATOM     10  C   UNL     1     -15.276  58.786  52.833  0.00  0.00    +0.000 C 
ATOM     11  C   UNL     1     -15.795  56.740  51.511  0.00  0.00    +0.000 C 
ENDROOT
BRANCH   1  15
ATOM     12  N   UNL     1      -7.540  54.032  49.945  0.00  0.00    +0.000 N 
ATOM     13  C   UNL     1      -8.625  54.855  50.201  0.00  0.00    +0.000 C 
ATOM     14  O   UNL     1      -8.473  56.015  50.561  0.00  0.00    +0.000 OA
ATOM     15  N   UNL     1      -9.848  54.234  50.067  0.00  0.00    +0.000 N 
ATOM     16  H   UNL     1      -7.702  53.133  49.576  0.00  0.00    +0.000 HD
ATOM     17  H   UNL     1      -9.910  53.278  49.842  0.00  0.00    +0.000 HD
BRANCH  12  18
ATOM     18  S   UNL     1      -5.966  54.510  50.239  0.00  0.00    +0.000 S 
ATOM     19  O   UNL     1      -5.767  54.567  51.678  0.00  0.00    +0.000 OA
ATOM     20  O   UNL     1      -5.751  55.692  49.433  0.00  0.00    +0.000 OA
BRANCH  18  21
ATOM     21  C   UNL     1      -4.967  53.182  49.563  0.00  0.00    +0.000 A 
ATOM     22  N   UNL     1      -4.509  52.295  50.492  0.00  0.00    +0.000 NA
ATOM     23  C   UNL     1      -4.697  53.122  48.203  0.00  0.00    +0.000 A 
ATOM     24  C   UNL     1      -3.768  51.275  50.004  0.00  0.00    +0.000 A 
ATOM     25  C   UNL     1      -3.916  52.064  47.750  0.00  0.00    +0.000 A 
ATOM     26  C   UNL     1      -3.449  51.119  48.661  0.00  0.00    +0.000 A 
ENDBRANCH  18  21
ENDBRANCH  12  18
ENDBRANCH   1  15
BRANCH   3  27
ATOM     27  C   UNL     1     -11.736  55.577  47.905  0.00  0.00    +0.000 C 
ATOM     28  O   UNL     1     -12.374  56.293  47.143  0.00  0.00    +0.000 OA
BRANCH  27  29
ATOM     29  O   UNL     1     -11.044  54.469  47.508  0.00  0.00    +0.000 OA
BRANCH  29  30
ATOM     30  C   UNL     1     -10.252  54.559  46.321  0.00  0.00    +0.000 C 
ATOM     31  C   UNL     1      -8.945  55.272  46.593  0.00  0.00    +0.000 C 
ENDBRANCH  29  30
ENDBRANCH  27  29
ENDBRANCH   3  27
TORSDOF 6
ENDMDL
MODEL 4
REMARK VINA RESULT:      -7.1      2.517      3.911
REMARK  Name = 
REMARK  9 active torsions:
REMARK  status: ('A' for Active; 'I' for Inactive)
REMARK    1  A    between atoms: S_1  and  N_4
REMARK    2  A    between atoms: S_1  and  C_5
REMARK    3  A    between atoms: N_10  and  C_13
REMARK    4  A    between atoms: C_16  and  C_19
REMARK    5  A    between atoms: C_19  and  O_23
REMARK    6  A    between atoms: O_23  and  C_26
REMARK    7  A    between atoms: C_24  and  C_27
REMARK    8  A    between atoms: C_24  and  C_28
REMARK    9  A    between atoms: C_26  and  C_29
REMARK                            x       y       z     vdW  Elec       q    Type
REMARK                         _______ _______ _______ _____ _____    ______ ____
ROOT
ATOM      1  C   UNL     1     -11.427  53.512  49.913  0.00  0.00    +0.000 A 
ATOM      2  S   UNL     1     -10.968  54.040  48.365  0.00  0.00    +0.000 S 
ATOM      3  C   UNL     1     -10.451  52.765  50.556  0.00  0.00    +0.000 A 
ATOM      4  C   UNL     1      -9.358  53.545  48.626  0.00  0.00    +0.000 A 
ATOM      5  C   UNL     1      -9.203  52.891  49.837  0.00  0.00    +0.000 A 
ATOM      6  C   UNL     1      -8.255  53.810  47.632  0.00  0.00    +0.000 C 
ATOM      7  C   UNL     1      -7.881  52.325  50.267  0.00  0.00    +0.000 C 
ATOM      8  C   UNL     1      -7.022  52.895  47.903  0.00  0.00    +0.000 C 
ATOM      9  C   UNL     1      -6.721  52.869  49.426  0.00  0.00    +0.000 C 
ATOM     10  C   UNL     1      -5.778  53.443  47.180  0.00  0.00    +0.000 C 
ATOM     11  C   UNL     1      -7.290  51.474  47.370  0.00  0.00    +0.000 C 
ENDROOT
BRANCH   1  15
ATOM     12  N   UNL     1     -14.111  55.374  51.408  0.00  0.00    +0.000 N 
ATOM     13  C   UNL     1     -12.816  55.083  51.007  0.00  0.00    +0.000 C 
ATOM     14  O   UNL     1     -11.893  55.856  51.228  0.00  0.00    +0.000 OA
ATOM     15  N   UNL     1     -12.694  53.901  50.310  0.00  0.00    +0.000 N 
ATOM     16  H   UNL     1     -14.810  54.690  51.289  0.00  0.00    +0.000 HD
ATOM     17  H   UNL     1     -13.483  53.351  50.101  0.00  0.00    +0.000 HD
BRANCH  12  18
ATOM     18  S   UNL     1     -14.528  56.843  52.087  0.00  0.00    +0.000 S 
ATOM     19  O   UNL     1     -13.550  57.168  53.111  0.00  0.00    +0.000 OA
ATOM     20  O   UNL     1     -15.929  56.738  52.435  0.00  0.00    +0.000 OA
BRANCH  18  21
ATOM     21  C   UNL     1     -14.374  58.014  50.737  0.00  0.00    +0.000 A 
ATOM     22  N   UNL     1     -14.287  57.438  49.503  0.00  0.00    +0.000 NA
ATOM     23  C   UNL     1     -14.330  59.379  50.984  0.00  0.00    +0.000 A 
ATOM     24  C   UNL     1     -14.187  58.301  48.466  0.00  0.00    +0.000 A 
ATOM     25  C   UNL     1     -14.211  60.226  49.888  0.00  0.00    +0.000 A 
ATOM     26  C   UNL     1     -14.146  59.682  48.607  0.00  0.00    +0.000 A 
ENDBRANCH  18  21
ENDBRANCH  12  18
ENDBRANCH   1  15
BRANCH   3  27
ATOM     27  C   UNL     1     -10.671  51.933  51.751  0.00  0.00    +0.000 C 
ATOM     28  O   UNL     1     -10.797  50.715  51.713  0.00  0.00    +0.000 OA
BRANCH  27  29
ATOM     29  O   UNL     1     -10.877  52.685  52.872  0.00  0.00    +0.000 OA
BRANCH  29  30
ATOM     30  C   UNL     1      -9.732  53.151  53.591  0.00  0.00    +0.000 C 
ATOM     31  C   UNL     1      -9.643  54.662  53.549  0.00  0.00    +0.000 C 
ENDBRANCH  29  30
ENDBRANCH  27  29
ENDBRANCH   3  27
TORSDOF 6
ENDMDL
MODEL 5
REMARK VINA RESULT:      -7.1      3.087      8.167
REMARK  Name = 
REMARK  9 active torsions:
REMARK  status: ('A' for Active; 'I' for Inactive)
REMARK    1  A    between atoms: S_1  and  N_4
REMARK    2  A    between atoms: S_1  and  C_5
REMARK    3  A    between atoms: N_10  and  C_13
REMARK    4  A    between atoms: C_16  and  C_19
REMARK    5  A    between atoms: C_19  and  O_23
REMARK    6  A    between atoms: O_23  and  C_26
REMARK    7  A    between atoms: C_24  and  C_27
REMARK    8  A    between atoms: C_24  and  C_28
REMARK    9  A    between atoms: C_26  and  C_29
REMARK                            x       y       z     vdW  Elec       q    Type
REMARK                         _______ _______ _______ _____ _____    ______ ____
ROOT
ATOM      1  C   UNL     1     -10.945  54.931  50.529  0.00  0.00    +0.000 A 
ATOM      2  S   UNL     1     -11.600  55.040  52.093  0.00  0.00    +0.000 S 
ATOM      3  C   UNL     1     -11.630  55.685  49.588  0.00  0.00    +0.000 A 
ATOM      4  C   UNL     1     -12.625  56.318  51.621  0.00  0.00    +0.000 A 
ATOM      5  C   UNL     1     -12.540  56.581  50.265  0.00  0.00    +0.000 A 
ATOM      6  C   UNL     1     -13.506  57.055  52.599  0.00  0.00    +0.000 C 
ATOM      7  C   UNL     1     -13.383  57.636  49.609  0.00  0.00    +0.000 C 
ATOM      8  C   UNL     1     -14.628  57.845  51.859  0.00  0.00    +0.000 C 
ATOM      9  C   UNL     1     -14.021  58.582  50.633  0.00  0.00    +0.000 C 
ATOM     10  C   UNL     1     -15.245  58.902  52.793  0.00  0.00    +0.000 C 
ATOM     11  C   UNL     1     -15.753  56.885  51.423  0.00  0.00    +0.000 C 
ENDROOT
BRANCH   1  15
ATOM     12  N   UNL     1      -7.529  53.826  50.397  0.00  0.00    +0.000 N 
ATOM     13  C   UNL     1      -8.591  54.700  50.570  0.00  0.00    +0.000 C 
ATOM     14  O   UNL     1      -8.407  55.871  50.877  0.00  0.00    +0.000 OA
ATOM     15  N   UNL     1      -9.831  54.118  50.419  0.00  0.00    +0.000 N 
ATOM     16  H   UNL     1      -7.712  52.916  50.066  0.00  0.00    +0.000 HD
ATOM     17  H   UNL     1      -9.921  53.155  50.239  0.00  0.00    +0.000 HD
BRANCH  12  18
ATOM     18  S   UNL     1      -5.950  54.261  50.728  0.00  0.00    +0.000 S 
ATOM     19  O   UNL     1      -5.875  54.689  52.115  0.00  0.00    +0.000 OA
ATOM     20  O   UNL     1      -5.555  55.166  49.670  0.00  0.00    +0.000 OA
BRANCH  18  21
ATOM     21  C   UNL     1      -5.022  52.737  50.536  0.00  0.00    +0.000 A 
ATOM     22  N   UNL     1      -5.457  51.942  49.516  0.00  0.00    +0.000 NA
ATOM     23  C   UNL     1      -3.974  52.433  51.392  0.00  0.00    +0.000 A 
ATOM     24  C   UNL     1      -4.763  50.795  49.339  0.00  0.00    +0.000 A 
ATOM     25  C   UNL     1      -3.300  51.235  51.181  0.00  0.00    +0.000 A 
ATOM     26  C   UNL     1      -3.693  50.404  50.135  0.00  0.00    +0.000 A 
ENDBRANCH  18  21
ENDBRANCH  12  18
ENDBRANCH   1  15
BRANCH   3  27
ATOM     27  C   UNL     1     -11.488  55.550  48.129  0.00  0.00    +0.000 C 
ATOM     28  O   UNL     1     -12.395  55.181  47.392  0.00  0.00    +0.000 OA
BRANCH  27  29
ATOM     29  O   UNL     1     -10.198  55.726  47.718  0.00  0.00    +0.000 OA
BRANCH  29  30
ATOM     30  C   UNL     1      -9.604  54.710  46.905  0.00  0.00    +0.000 C 
ATOM     31  C   UNL     1      -8.095  54.837  46.895  0.00  0.00    +0.000 C 
ENDBRANCH  29  30
ENDBRANCH  27  29
ENDBRANCH   3  27
TORSDOF 6
ENDMDL
MODEL 6
REMARK VINA RESULT:      -7.1      3.946      7.449
REMARK  Name = 
REMARK  9 active torsions:
REMARK  status: ('A' for Active; 'I' for Inactive)
REMARK    1  A    between atoms: S_1  and  N_4
REMARK    2  A    between atoms: S_1  and  C_5
REMARK    3  A    between atoms: N_10  and  C_13
REMARK    4  A    between atoms: C_16  and  C_19
REMARK    5  A    between atoms: C_19  and  O_23
REMARK    6  A    between atoms: O_23  and  C_26
REMARK    7  A    between atoms: C_24  and  C_27
REMARK    8  A    between atoms: C_24  and  C_28
REMARK    9  A    between atoms: C_26  and  C_29
REMARK                            x       y       z     vdW  Elec       q    Type
REMARK                         _______ _______ _______ _____ _____    ______ ____
ROOT
ATOM      1  C   UNL     1     -11.361  54.672  49.833  0.00  0.00    +0.000 A 
ATOM      2  S   UNL     1     -12.070  54.600  51.375  0.00  0.00    +0.000 S 
ATOM      3  C   UNL     1     -11.877  55.680  49.033  0.00  0.00    +0.000 A 
ATOM      4  C   UNL     1     -12.867  56.086  51.126  0.00  0.00    +0.000 A 
ATOM      5  C   UNL     1     -12.675  56.572  49.844  0.00  0.00    +0.000 A 
ATOM      6  C   UNL     1     -13.676  56.764  52.203  0.00  0.00    +0.000 C 
ATOM      7  C   UNL     1     -13.317  57.846  49.377  0.00  0.00    +0.000 C 
ATOM      8  C   UNL     1     -14.627  57.841  51.598  0.00  0.00    +0.000 C 
ATOM      9  C   UNL     1     -13.856  58.681  50.544  0.00  0.00    +0.000 C 
ATOM     10  C   UNL     1     -15.126  58.796  52.698  0.00  0.00    +0.000 C 
ATOM     11  C   UNL     1     -15.860  57.163  50.967  0.00  0.00    +0.000 C 
ENDROOT
BRANCH   1  15
ATOM     12  N   UNL     1      -9.702  51.663  48.784  0.00  0.00    +0.000 N 
ATOM     13  C   UNL     1     -10.735  52.575  48.934  0.00  0.00    +0.000 C 
ATOM     14  O   UNL     1     -11.844  52.364  48.461  0.00  0.00    +0.000 OA
ATOM     15  N   UNL     1     -10.377  53.728  49.599  0.00  0.00    +0.000 N 
ATOM     16  H   UNL     1      -8.850  51.829  49.251  0.00  0.00    +0.000 HD
ATOM     17  H   UNL     1      -9.451  53.875  49.899  0.00  0.00    +0.000 HD
BRANCH  12  18
ATOM     18  S   UNL     1      -9.850  50.292  47.840  0.00  0.00    +0.000 S 
ATOM     19  O   UNL     1     -11.175  49.734  48.049  0.00  0.00    +0.000 OA
ATOM     20  O   UNL     1      -8.677  49.491  48.115  0.00  0.00    +0.000 OA
BRANCH  18  21
ATOM     21  C   UNL     1      -9.730  50.900  46.156  0.00  0.00    +0.000 A 
ATOM     22  N   UNL     1      -8.451  51.079  45.715  0.00  0.00    +0.000 NA
ATOM     23  C   UNL     1     -10.873  51.168  45.417  0.00  0.00    +0.000 A 
ATOM     24  C   UNL     1      -8.334  51.520  44.442  0.00  0.00    +0.000 A 
ATOM     25  C   UNL     1     -10.702  51.636  44.118  0.00  0.00    +0.000 A 
ATOM     26  C   UNL     1      -9.414  51.808  43.617  0.00  0.00    +0.000 A 
ENDBRANCH  18  21
ENDBRANCH  12  18
ENDBRANCH   1  15
BRANCH   3  27
ATOM     27  C   UNL     1     -11.683  55.790  47.578  0.00  0.00    +0.000 C 
ATOM     28  O   UNL     1     -12.604  55.783  46.770  0.00  0.00    +0.000 OA
BRANCH  27  29
ATOM     29  O   UNL     1     -10.364  55.737  47.227  0.00  0.00    +0.000 OA
BRANCH  29  30
ATOM     30  C   UNL     1      -9.972  54.808  46.213  0.00  0.00    +0.000 C 
ATOM     31  C   UNL     1      -8.467  54.784  46.053  0.00  0.00    +0.000 C 
ENDBRANCH  29  30
ENDBRANCH  27  29
ENDBRANCH   3  27
TORSDOF 6
ENDMDL
MODEL 7
REMARK VINA RESULT:      -7.0      2.300      3.042
REMARK  Name = 
REMARK  9 active torsions:
REMARK  status: ('A' for Active; 'I' for Inactive)
REMARK    1  A    between atoms: S_1  and  N_4
REMARK    2  A    between atoms: S_1  and  C_5
REMARK    3  A    between atoms: N_10  and  C_13
REMARK    4  A    between atoms: C_16  and  C_19
REMARK    5  A    between atoms: C_19  and  O_23
REMARK    6  A    between atoms: O_23  and  C_26
REMARK    7  A    between atoms: C_24  and  C_27
REMARK    8  A    between atoms: C_24  and  C_28
REMARK    9  A    between atoms: C_26  and  C_29
REMARK                            x       y       z     vdW  Elec       q    Type
REMARK                         _______ _______ _______ _____ _____    ______ ____
ROOT
ATOM      1  C   UNL     1     -10.027  54.876  50.736  0.00  0.00    +0.000 A 
ATOM      2  S   UNL     1      -9.866  54.985  52.424  0.00  0.00    +0.000 S 
ATOM      3  C   UNL     1      -9.625  53.654  50.219  0.00  0.00    +0.000 A 
ATOM      4  C   UNL     1      -9.538  53.317  52.544  0.00  0.00    +0.000 A 
ATOM      5  C   UNL     1      -9.450  52.712  51.301  0.00  0.00    +0.000 A 
ATOM      6  C   UNL     1      -9.374  52.615  53.868  0.00  0.00    +0.000 C 
ATOM      7  C   UNL     1      -9.125  51.254  51.152  0.00  0.00    +0.000 C 
ATOM      8  C   UNL     1      -8.665  51.237  53.690  0.00  0.00    +0.000 C 
ATOM      9  C   UNL     1      -9.279  50.492  52.474  0.00  0.00    +0.000 C 
ATOM     10  C   UNL     1      -8.872  50.362  54.940  0.00  0.00    +0.000 C 
ATOM     11  C   UNL     1      -7.149  51.442  53.503  0.00  0.00    +0.000 C 
ENDROOT
BRANCH   1  15
ATOM     12  N   UNL     1     -12.319  57.223  49.270  0.00  0.00    +0.000 N 
ATOM     13  C   UNL     1     -11.899  56.079  49.932  0.00  0.00    +0.000 C 
ATOM     14  O   UNL     1     -12.701  55.249  50.338  0.00  0.00    +0.000 OA
ATOM     15  N   UNL     1     -10.536  56.008  50.125  0.00  0.00    +0.000 N 
ATOM     16  H   UNL     1     -11.641  57.824  48.883  0.00  0.00    +0.000 HD
ATOM     17  H   UNL     1      -9.943  56.739  49.836  0.00  0.00    +0.000 HD
BRANCH  12  18
ATOM     18  S   UNL     1     -13.935  57.618  49.105  0.00  0.00    +0.000 S 
ATOM     19  O   UNL     1     -14.628  56.478  48.528  0.00  0.00    +0.000 OA
ATOM     20  O   UNL     1     -13.965  58.898  48.432  0.00  0.00    +0.000 OA
BRANCH  18  21
ATOM     21  C   UNL     1     -14.505  57.858  50.789  0.00  0.00    +0.000 A 
ATOM     22  N   UNL     1     -15.210  56.807  51.298  0.00  0.00    +0.000 NA
ATOM     23  C   UNL     1     -14.240  59.041  51.464  0.00  0.00    +0.000 A 
ATOM     24  C   UNL     1     -15.636  56.957  52.572  0.00  0.00    +0.000 A 
ATOM     25  C   UNL     1     -14.713  59.156  52.767  0.00  0.00    +0.000 A 
ATOM     26  C   UNL     1     -15.415  58.096  53.336  0.00  0.00    +0.000 A 
ENDBRANCH  18  21
ENDBRANCH  12  18
ENDBRANCH   1  15
BRANCH   3  27
ATOM     27  C   UNL     1      -9.365  53.381  48.795  0.00  0.00    +0.000 C 
ATOM     28  O   UNL     1      -8.240  53.282  48.320  0.00  0.00    +0.000 OA
BRANCH  27  29
ATOM     29  O   UNL     1     -10.506  53.412  48.047  0.00  0.00    +0.000 OA
BRANCH  29  30
ATOM     30  C   UNL     1     -10.409  53.839  46.686  0.00  0.00    +0.000 C 
ATOM     31  C   UNL     1     -10.840  55.283  46.539  0.00  0.00    +0.000 C 
ENDBRANCH  29  30
ENDBRANCH  27  29
ENDBRANCH   3  27
TORSDOF 6
ENDMDL
MODEL 8
REMARK VINA RESULT:      -6.6      2.840      4.499
REMARK  Name = 
REMARK  9 active torsions:
REMARK  status: ('A' for Active; 'I' for Inactive)
REMARK    1  A    between atoms: S_1  and  N_4
REMARK    2  A    between atoms: S_1  and  C_5
REMARK    3  A    between atoms: N_10  and  C_13
REMARK    4  A    between atoms: C_16  and  C_19
REMARK    5  A    between atoms: C_19  and  O_23
REMARK    6  A    between atoms: O_23  and  C_26
REMARK    7  A    between atoms: C_24  and  C_27
REMARK    8  A    between atoms: C_24  and  C_28
REMARK    9  A    between atoms: C_26  and  C_29
REMARK                            x       y       z     vdW  Elec       q    Type
REMARK                         _______ _______ _______ _____ _____    ______ ____
ROOT
ATOM      1  C   UNL     1      -8.260  54.370  50.650  0.00  0.00    +0.000 A 
ATOM      2  S   UNL     1      -7.743  53.965  49.083  0.00  0.00    +0.000 S 
ATOM      3  C   UNL     1      -7.611  53.659  51.649  0.00  0.00    +0.000 A 
ATOM      4  C   UNL     1      -6.441  53.055  49.701  0.00  0.00    +0.000 A 
ATOM      5  C   UNL     1      -6.468  52.978  51.084  0.00  0.00    +0.000 A 
ATOM      6  C   UNL     1      -5.397  52.425  48.814  0.00  0.00    +0.000 C 
ATOM      7  C   UNL     1      -5.446  52.192  51.852  0.00  0.00    +0.000 C 
ATOM      8  C   UNL     1      -4.604  51.320  49.576  0.00  0.00    +0.000 C 
ATOM      9  C   UNL     1      -4.229  51.834  50.992  0.00  0.00    +0.000 C 
ATOM     10  C   UNL     1      -3.301  50.983  48.828  0.00  0.00    +0.000 C 
ATOM     11  C   UNL     1      -5.445  50.030  49.663  0.00  0.00    +0.000 C 
ENDROOT
BRANCH   1  15
ATOM     12  N   UNL     1     -11.434  56.032  50.387  0.00  0.00    +0.000 N 
ATOM     13  C   UNL     1     -10.524  54.987  50.348  0.00  0.00    +0.000 C 
ATOM     14  O   UNL     1     -10.874  53.850  50.063  0.00  0.00    +0.000 OA
ATOM     15  N   UNL     1      -9.242  55.343  50.707  0.00  0.00    +0.000 N 
ATOM     16  H   UNL     1     -11.101  56.947  50.536  0.00  0.00    +0.000 HD
ATOM     17  H   UNL     1      -9.031  56.261  50.994  0.00  0.00    +0.000 HD
BRANCH  12  18
ATOM     18  S   UNL     1     -13.077  55.795  50.189  0.00  0.00    +0.000 S 
ATOM     19  O   UNL     1     -13.441  54.549  50.842  0.00  0.00    +0.000 OA
ATOM     20  O   UNL     1     -13.338  55.973  48.777  0.00  0.00    +0.000 OA
BRANCH  18  21
ATOM     21  C   UNL     1     -13.831  57.162  51.073  0.00  0.00    +0.000 A 
ATOM     22  N   UNL     1     -14.004  58.288  50.323  0.00  0.00    +0.000 NA
ATOM     23  C   UNL     1     -14.170  57.037  52.413  0.00  0.00    +0.000 A 
ATOM     24  C   UNL     1     -14.586  59.327  50.962  0.00  0.00    +0.000 A 
ATOM     25  C   UNL     1     -14.752  58.138  53.033  0.00  0.00    +0.000 A 
ATOM     26  C   UNL     1     -14.972  59.300  52.297  0.00  0.00    +0.000 A 
ENDBRANCH  18  21
ENDBRANCH  12  18
ENDBRANCH   1  15
BRANCH   3  27
ATOM     27  C   UNL     1      -8.052  53.573  53.051  0.00  0.00    +0.000 C 
ATOM     28  O   UNL     1      -8.418  52.531  53.582  0.00  0.00    +0.000 OA
BRANCH  27  29
ATOM     29  O   UNL     1      -8.159  54.802  53.635  0.00  0.00    +0.000 OA
BRANCH  29  30
ATOM     30  C   UNL     1      -6.955  55.495  53.974  0.00  0.00    +0.000 C 
ATOM     31  C   UNL     1      -6.030  54.610  54.783  0.00  0.00    +0.000 C 
ENDBRANCH  29  30
ENDBRANCH  27  29
ENDBRANCH   3  27
TORSDOF 6
ENDMDL
MODEL 9
REMARK VINA RESULT:      -6.5      2.918      4.355
REMARK  Name = 
REMARK  9 active torsions:
REMARK  status: ('A' for Active; 'I' for Inactive)
REMARK    1  A    between atoms: S_1  and  N_4
REMARK    2  A    between atoms: S_1  and  C_5
REMARK    3  A    between atoms: N_10  and  C_13
REMARK    4  A    between atoms: C_16  and  C_19
REMARK    5  A    between atoms: C_19  and  O_23
REMARK    6  A    between atoms: O_23  and  C_26
REMARK    7  A    between atoms: C_24  and  C_27
REMARK    8  A    between atoms: C_24  and  C_28
REMARK    9  A    between atoms: C_26  and  C_29
REMARK                            x       y       z     vdW  Elec       q    Type
REMARK                         _______ _______ _______ _____ _____    ______ ____
ROOT
ATOM      1  C   UNL     1      -9.649  55.253  49.454  0.00  0.00    +0.000 A 
ATOM      2  S   UNL     1      -8.942  54.836  47.966  0.00  0.00    +0.000 S 
ATOM      3  C   UNL     1      -9.435  54.314  50.451  0.00  0.00    +0.000 A 
ATOM      4  C   UNL     1      -8.087  53.548  48.684  0.00  0.00    +0.000 A 
ATOM      5  C   UNL     1      -8.421  53.379  50.017  0.00  0.00    +0.000 A 
ATOM      6  C   UNL     1      -7.086  52.715  47.924  0.00  0.00    +0.000 C 
ATOM      7  C   UNL     1      -7.828  52.278  50.848  0.00  0.00    +0.000 C 
ATOM      8  C   UNL     1      -6.792  51.375  48.665  0.00  0.00    +0.000 C 
ATOM      9  C   UNL     1      -6.598  51.653  50.181  0.00  0.00    +0.000 C 
ATOM     10  C   UNL     1      -5.498  50.737  48.127  0.00  0.00    +0.000 C 
ATOM     11  C   UNL     1      -7.943  50.377  48.431  0.00  0.00    +0.000 C 
ENDROOT
BRANCH   1  15
ATOM     12  N   UNL     1     -12.264  57.697  49.149  0.00  0.00    +0.000 N 
ATOM     13  C   UNL     1     -11.674  56.443  49.169  0.00  0.00    +0.000 C 
ATOM     14  O   UNL     1     -12.332  55.427  48.989  0.00  0.00    +0.000 OA
ATOM     15  N   UNL     1     -10.326  56.459  49.459  0.00  0.00    +0.000 N 
ATOM     16  H   UNL     1     -11.689  58.494  49.213  0.00  0.00    +0.000 HD
ATOM     17  H   UNL     1      -9.861  57.302  49.664  0.00  0.00    +0.000 HD
BRANCH  12  18
ATOM     18  S   UNL     1     -13.918  57.905  49.020  0.00  0.00    +0.000 S 
ATOM     19  O   UNL     1     -14.470  56.754  48.326  0.00  0.00    +0.000 OA
ATOM     20  O   UNL     1     -14.112  59.234  48.482  0.00  0.00    +0.000 OA
BRANCH  18  21
ATOM     21  C   UNL     1     -14.498  57.899  50.718  0.00  0.00    +0.000 A 
ATOM     22  N   UNL     1     -14.262  59.060  51.395  0.00  0.00    +0.000 NA
ATOM     23  C   UNL     1     -15.110  56.775  51.252  0.00  0.00    +0.000 A 
ATOM     24  C   UNL     1     -14.705  59.086  52.672  0.00  0.00    +0.000 A 
ATOM     25  C   UNL     1     -15.535  56.844  52.575  0.00  0.00    +0.000 A 
ATOM     26  C   UNL     1     -15.338  58.019  53.296  0.00  0.00    +0.000 A 
ENDBRANCH  18  21
ENDBRANCH  12  18
ENDBRANCH   1  15
BRANCH   3  27
ATOM     27  C   UNL     1     -10.166  54.253  51.728  0.00  0.00    +0.000 C 
ATOM     28  O   UNL     1     -11.100  53.487  51.936  0.00  0.00    +0.000 OA
BRANCH  27  29
ATOM     29  O   UNL     1      -9.792  55.247  52.585  0.00  0.00    +0.000 OA
BRANCH  29  30
ATOM     30  C   UNL     1      -8.827  54.939  53.595  0.00  0.00    +0.000 C 
ATOM     31  C   UNL     1      -7.496  55.593  53.289  0.00  0.00    +0.000 C 
ENDBRANCH  29  30
ENDBRANCH  27  29
ENDBRANCH   3  27
TORSDOF 6
ENDMDL
