MODEL 1
REMARK VINA RESULT:      -8.1      0.000      0.000
REMARK  Name = 
REMARK  9 active torsions:
REMARK  status: ('A' for Active; 'I' for Inactive)
REMARK    1  A    between atoms: S_1  and  N_4
REMARK    2  A    between atoms: S_1  and  N_5
REMARK    3  A    between atoms: N_13  and  C_16
REMARK    4  A    between atoms: C_19  and  C_22
REMARK    5  A    between atoms: C_22  and  O_26
REMARK    6  A    between atoms: O_26  and  C_29
REMARK    7  A    between atoms: C_27  and  C_30
REMARK    8  A    between atoms: C_27  and  C_31
REMARK    9  A    between atoms: C_29  and  C_32
REMARK                            x       y       z     vdW  Elec       q    Type
REMARK                         _______ _______ _______ _____ _____    ______ ____
ROOT
ATOM      1  N   UNL     1      -8.055  53.838  49.037  0.00  0.00    +0.000 N 
ATOM      2  C   UNL     1      -8.963  54.717  49.634  0.00  0.00    +0.000 C 
ATOM      3  O   UNL     1      -8.456  55.668  50.209  0.00  0.00    +0.000 OA
ATOM      4  N   UNL     1     -10.307  54.448  49.510  0.00  0.00    +0.000 N 
ATOM      5  H   UNL     1      -7.110  54.094  49.136  0.00  0.00    +0.000 HD
ATOM      6  H   UNL     1     -10.551  53.630  49.021  0.00  0.00    +0.000 HD
ENDROOT
BRANCH   4   7
ATOM      7  C   UNL     1     -11.360  55.219  50.007  0.00  0.00    +0.000 A 
ATOM      8  S   UNL     1     -11.598  55.393  51.691  0.00  0.00    +0.000 S 
ATOM      9  C   UNL     1     -12.335  55.899  49.278  0.00  0.00    +0.000 A 
ATOM     10  C   UNL     1     -12.874  56.489  51.491  0.00  0.00    +0.000 A 
ATOM     11  C   UNL     1     -13.145  56.724  50.159  0.00  0.00    +0.000 A 
ATOM     12  C   UNL     1     -13.572  57.142  52.659  0.00  0.00    +0.000 C 
ATOM     13  C   UNL     1     -14.196  57.716  49.742  0.00  0.00    +0.000 C 
ATOM     14  C   UNL     1     -14.894  57.835  52.204  0.00  0.00    +0.000 C 
ATOM     15  C   UNL     1     -14.632  58.619  50.896  0.00  0.00    +0.000 C 
ATOM     16  C   UNL     1     -15.375  58.841  53.264  0.00  0.00    +0.000 C 
ATOM     17  C   UNL     1     -16.006  56.783  52.006  0.00  0.00    +0.000 C 
BRANCH   9  18
ATOM     18  C   UNL     1     -12.454  55.844  47.815  0.00  0.00    +0.000 C 
ATOM     19  O   UNL     1     -12.866  56.774  47.132  0.00  0.00    +0.000 OA
BRANCH  18  20
ATOM     20  O   UNL     1     -12.077  54.634  47.320  0.00  0.00    +0.000 OA
BRANCH  20  21
ATOM     21  C   UNL     1     -11.477  54.565  46.023  0.00  0.00    +0.000 C 
ATOM     22  C   UNL     1     -11.921  53.293  45.330  0.00  0.00    +0.000 C 
ENDBRANCH  20  21
ENDBRANCH  18  20
ENDBRANCH   9  18
ENDBRANCH   4   7
BRANCH   1  23
ATOM     23  S   UNL     1      -8.304  52.448  48.195  0.00  0.00    +0.000 S 
ATOM     24  O   UNL     1      -7.335  51.501  48.684  0.00  0.00    +0.000 OA
ATOM     25  O   UNL     1      -9.723  52.183  48.264  0.00  0.00    +0.000 OA
BRANCH  23  26
ATOM     26  N   UNL     1      -7.931  52.983  46.673  0.00  0.00    +0.000 N 
ATOM     27  C   UNL     1      -8.471  52.441  45.472  0.00  0.00    +0.000 A 
ATOM     28  C   UNL     1      -7.607  54.418  46.445  0.00  0.00    +0.000 C 
ATOM     29  C   UNL     1      -8.337  53.369  44.439  0.00  0.00    +0.000 A 
ATOM     30  C   UNL     1      -8.891  51.150  45.203  0.00  0.00    +0.000 A 
ATOM     31  C   UNL     1      -7.898  54.701  44.957  0.00  0.00    +0.000 C 
ATOM     32  C   UNL     1      -8.598  53.029  43.119  0.00  0.00    +0.000 A 
ATOM     33  C   UNL     1      -9.177  50.799  43.879  0.00  0.00    +0.000 A 
ATOM     34  C   UNL     1      -9.014  51.726  42.841  0.00  0.00    +0.000 A 
ENDBRANCH  23  26
ENDBRANCH   1  23
TORSDOF 6
ENDMDL
MODEL 2
REMARK VINA RESULT:      -7.6      2.762      8.453
REMARK  Name = 
REMARK  9 active torsions:
REMARK  status: ('A' for Active; 'I' for Inactive)
REMARK    1  A    between atoms: S_1  and  N_4
REMARK    2  A    between atoms: S_1  and  N_5
REMARK    3  A    between atoms: N_13  and  C_16
REMARK    4  A    between atoms: C_19  and  C_22
REMARK    5  A    between atoms: C_22  and  O_26
REMARK    6  A    between atoms: O_26  and  C_29
REMARK    7  A    between atoms: C_27  and  C_30
REMARK    8  A    between atoms: C_27  and  C_31
REMARK    9  A    between atoms: C_29  and  C_32
REMARK                            x       y       z     vdW  Elec       q    Type
REMARK                         _______ _______ _______ _____ _____    ______ ____
ROOT
ATOM      1  N   UNL     1     -11.492  56.749  49.259  0.00  0.00    +0.000 N 
ATOM      2  C   UNL     1     -10.265  56.079  49.265  0.00  0.00    +0.000 C 
ATOM      3  O   UNL     1      -9.337  56.710  49.747  0.00  0.00    +0.000 OA
ATOM      4  N   UNL     1     -10.218  54.801  48.757  0.00  0.00    +0.000 N 
ATOM      5  H   UNL     1     -11.470  57.648  49.658  0.00  0.00    +0.000 HD
ATOM      6  H   UNL     1     -11.058  54.438  48.394  0.00  0.00    +0.000 HD
ENDROOT
BRANCH   4   7
ATOM      7  C   UNL     1      -9.101  53.966  48.704  0.00  0.00    +0.000 A 
ATOM      8  S   UNL     1      -8.503  53.215  50.119  0.00  0.00    +0.000 S 
ATOM      9  C   UNL     1      -8.326  53.649  47.589  0.00  0.00    +0.000 A 
ATOM     10  C   UNL     1      -7.328  52.339  49.270  0.00  0.00    +0.000 A 
ATOM     11  C   UNL     1      -7.362  52.612  47.918  0.00  0.00    +0.000 A 
ATOM     12  C   UNL     1      -6.406  51.353  49.944  0.00  0.00    +0.000 C 
ATOM     13  C   UNL     1      -6.451  51.898  46.957  0.00  0.00    +0.000 C 
ATOM     14  C   UNL     1      -5.233  50.946  49.000  0.00  0.00    +0.000 C 
ATOM     15  C   UNL     1      -5.794  50.669  47.585  0.00  0.00    +0.000 C 
ATOM     16  C   UNL     1      -4.555  49.657  49.495  0.00  0.00    +0.000 C 
ATOM     17  C   UNL     1      -4.167  52.062  48.964  0.00  0.00    +0.000 C 
BRANCH   9  18
ATOM     18  C   UNL     1      -8.529  54.231  46.255  0.00  0.00    +0.000 C 
ATOM     19  O   UNL     1      -7.660  54.833  45.637  0.00  0.00    +0.000 OA
BRANCH  18  20
ATOM     20  O   UNL     1      -9.799  54.039  45.807  0.00  0.00    +0.000 OA
BRANCH  20  21
ATOM     21  C   UNL     1     -10.173  52.759  45.289  0.00  0.00    +0.000 C 
ATOM     22  C   UNL     1      -9.964  52.742  43.789  0.00  0.00    +0.000 C 
ENDBRANCH  20  21
ENDBRANCH  18  20
ENDBRANCH   9  18
ENDBRANCH   4   7
BRANCH   1  23
ATOM     23  S   UNL     1     -12.965  56.282  48.698  0.00  0.00    +0.000 S 
ATOM     24  O   UNL     1     -12.886  56.341  47.261  0.00  0.00    +0.000 OA
ATOM     25  O   UNL     1     -13.291  55.056  49.389  0.00  0.00    +0.000 OA
BRANCH  23  26
ATOM     26  N   UNL     1     -13.890  57.509  49.316  0.00  0.00    +0.000 N 
ATOM     27  C   UNL     1     -14.193  57.673  50.698  0.00  0.00    +0.000 A 
ATOM     28  C   UNL     1     -13.886  58.848  48.667  0.00  0.00    +0.000 C 
ATOM     29  C   UNL     1     -14.571  58.995  50.939  0.00  0.00    +0.000 A 
ATOM     30  C   UNL     1     -14.328  56.715  51.687  0.00  0.00    +0.000 A 
ATOM     31  C   UNL     1     -14.315  59.861  49.747  0.00  0.00    +0.000 C 
ATOM     32  C   UNL     1     -15.108  59.385  52.158  0.00  0.00    +0.000 A 
ATOM     33  C   UNL     1     -14.849  57.099  52.928  0.00  0.00    +0.000 A 
ATOM     34  C   UNL     1     -15.254  58.421  53.156  0.00  0.00    +0.000 A 
ENDBRANCH  23  26
ENDBRANCH   1  23
TORSDOF 6
ENDMDL
MODEL 3
REMARK VINA RESULT:      -7.6      2.654      5.062
REMARK  Name = 
REMARK  9 active torsions:
REMARK  status: ('A' for Active; 'I' for Inactive)
REMARK    1  A    between atoms: S_1  and  N_4
REMARK    2  A    between atoms: S_1  and  N_5
REMARK    3  A    between atoms: N_13  and  C_16
REMARK    4  A    between atoms: C_19  and  C_22
REMARK    5  A    between atoms: C_22  and  O_26
REMARK    6  A    between atoms: O_26  and  C_29
REMARK    7  A    between atoms: C_27  and  C_30
REMARK    8  A    between atoms: C_27  and  C_31
REMARK    9  A    between atoms: C_29  and  C_32
REMARK                            x       y       z     vdW  Elec       q    Type
REMARK                         _______ _______ _______ _____ _____    ______ ____
ROOT
ATOM      1  N   UNL     1      -8.551  52.308  49.789  0.00  0.00    +0.000 N 
ATOM      2  C   UNL     1      -9.772  52.936  50.049  0.00  0.00    +0.000 C 
ATOM      3  O   UNL     1     -10.726  52.181  50.159  0.00  0.00    +0.000 OA
ATOM      4  N   UNL     1      -9.787  54.307  50.169  0.00  0.00    +0.000 N 
ATOM      5  H   UNL     1      -8.597  51.325  49.739  0.00  0.00    +0.000 HD
ATOM      6  H   UNL     1      -8.928  54.771  50.041  0.00  0.00    +0.000 HD
ENDROOT
BRANCH   4   7
ATOM      7  C   UNL     1     -10.895  55.106  50.456  0.00  0.00    +0.000 A 
ATOM      8  S   UNL     1     -11.443  55.296  52.064  0.00  0.00    +0.000 S 
ATOM      9  C   UNL     1     -11.697  55.804  49.555  0.00  0.00    +0.000 A 
ATOM     10  C   UNL     1     -12.630  56.421  51.625  0.00  0.00    +0.000 A 
ATOM     11  C   UNL     1     -12.638  56.654  50.265  0.00  0.00    +0.000 A 
ATOM     12  C   UNL     1     -13.521  57.098  52.638  0.00  0.00    +0.000 C 
ATOM     13  C   UNL     1     -13.567  57.668  49.655  0.00  0.00    +0.000 C 
ATOM     14  C   UNL     1     -14.715  57.820  51.940  0.00  0.00    +0.000 C 
ATOM     15  C   UNL     1     -14.191  58.589  50.704  0.00  0.00    +0.000 C 
ATOM     16  C   UNL     1     -15.363  58.844  52.888  0.00  0.00    +0.000 C 
ATOM     17  C   UNL     1     -15.795  56.793  51.537  0.00  0.00    +0.000 C 
BRANCH   9  18
ATOM     18  C   UNL     1     -11.539  55.743  48.095  0.00  0.00    +0.000 C 
ATOM     19  O   UNL     1     -12.478  55.760  47.309  0.00  0.00    +0.000 OA
BRANCH  18  20
ATOM     20  O   UNL     1     -10.232  55.642  47.731  0.00  0.00    +0.000 OA
BRANCH  20  21
ATOM     21  C   UNL     1      -9.868  54.749  46.673  0.00  0.00    +0.000 C 
ATOM     22  C   UNL     1      -8.485  55.106  46.167  0.00  0.00    +0.000 C 
ENDBRANCH  20  21
ENDBRANCH  18  20
ENDBRANCH   9  18
ENDBRANCH   4   7
BRANCH   1  23
ATOM     23  S   UNL     1      -7.050  52.937  49.554  0.00  0.00    +0.000 S 
ATOM     24  O   UNL     1      -6.403  52.087  48.587  0.00  0.00    +0.000 OA
ATOM     25  O   UNL     1      -7.238  54.350  49.315  0.00  0.00    +0.000 OA
BRANCH  23  26
ATOM     26  N   UNL     1      -6.428  52.727  51.075  0.00  0.00    +0.000 N 
ATOM     27  C   UNL     1      -6.690  53.588  52.178  0.00  0.00    +0.000 A 
ATOM     28  C   UNL     1      -6.164  51.357  51.591  0.00  0.00    +0.000 C 
ATOM     29  C   UNL     1      -6.422  52.913  53.370  0.00  0.00    +0.000 A 
ATOM     30  C   UNL     1      -6.962  54.944  52.189  0.00  0.00    +0.000 A 
ATOM     31  C   UNL     1      -6.181  51.457  53.129  0.00  0.00    +0.000 C 
ATOM     32  C   UNL     1      -6.401  53.575  54.590  0.00  0.00    +0.000 A 
ATOM     33  C   UNL     1      -6.965  55.620  53.414  0.00  0.00    +0.000 A 
ATOM     34  C   UNL     1      -6.668  54.944  54.605  0.00  0.00    +0.000 A 
ENDBRANCH  23  26
ENDBRANCH   1  23
TORSDOF 6
ENDMDL
MODEL 4
REMARK VINA RESULT:      -7.4      1.158      1.849
REMARK  Name = 
REMARK  9 active torsions:
REMARK  status: ('A' for Active; 'I' for Inactive)
REMARK    1  A    between atoms: S_1  and  N_4
REMARK    2  A    between atoms: S_1  and  N_5
REMARK    3  A    between atoms: N_13  and  C_16
REMARK    4  A    between atoms: C_19  and  C_22
REMARK    5  A    between atoms: C_22  and  O_26
REMARK    6  A    between atoms: O_26  and  C_29
REMARK    7  A    between atoms: C_27  and  C_30
REMARK    8  A    between atoms: C_27  and  C_31
REMARK    9  A    between atoms: C_29  and  C_32
REMARK                            x       y       z     vdW  Elec       q    Type
REMARK                         _______ _______ _______ _____ _____    ______ ____
ROOT
ATOM      1  N   UNL     1      -8.226  53.685  48.592  0.00  0.00    +0.000 N 
ATOM      2  C   UNL     1      -9.163  54.658  48.952  0.00  0.00    +0.000 C 
ATOM      3  O   UNL     1      -8.903  55.789  48.569  0.00  0.00    +0.000 OA
ATOM      4  N   UNL     1     -10.268  54.264  49.672  0.00  0.00    +0.000 N 
ATOM      5  H   UNL     1      -7.471  54.020  48.058  0.00  0.00    +0.000 HD
ATOM      6  H   UNL     1     -10.322  53.312  49.912  0.00  0.00    +0.000 HD
ENDROOT
BRANCH   4   7
ATOM      7  C   UNL     1     -11.320  55.078  50.094  0.00  0.00    +0.000 A 
ATOM      8  S   UNL     1     -11.600  55.354  51.758  0.00  0.00    +0.000 S 
ATOM      9  C   UNL     1     -12.264  55.730  49.301  0.00  0.00    +0.000 A 
ATOM     10  C   UNL     1     -12.851  56.455  51.461  0.00  0.00    +0.000 A 
ATOM     11  C   UNL     1     -13.083  56.617  50.111  0.00  0.00    +0.000 A 
ATOM     12  C   UNL     1     -13.570  57.185  52.569  0.00  0.00    +0.000 C 
ATOM     13  C   UNL     1     -14.107  57.598  49.609  0.00  0.00    +0.000 C 
ATOM     14  C   UNL     1     -14.867  57.871  52.040  0.00  0.00    +0.000 C 
ATOM     15  C   UNL     1     -14.558  58.573  50.696  0.00  0.00    +0.000 C 
ATOM     16  C   UNL     1     -15.359  58.944  53.026  0.00  0.00    +0.000 C 
ATOM     17  C   UNL     1     -15.990  56.826  51.872  0.00  0.00    +0.000 C 
BRANCH   9  18
ATOM     18  C   UNL     1     -12.346  55.592  47.840  0.00  0.00    +0.000 C 
ATOM     19  O   UNL     1     -12.694  56.496  47.091  0.00  0.00    +0.000 OA
BRANCH  18  20
ATOM     20  O   UNL     1     -12.012  54.338  47.430  0.00  0.00    +0.000 OA
BRANCH  20  21
ATOM     21  C   UNL     1     -11.303  54.171  46.198  0.00  0.00    +0.000 C 
ATOM     22  C   UNL     1     -12.103  53.274  45.275  0.00  0.00    +0.000 C 
ENDBRANCH  20  21
ENDBRANCH  18  20
ENDBRANCH   9  18
ENDBRANCH   4   7
BRANCH   1  23
ATOM     23  S   UNL     1      -8.178  52.073  48.913  0.00  0.00    +0.000 S 
ATOM     24  O   UNL     1      -6.848  51.634  48.576  0.00  0.00    +0.000 OA
ATOM     25  O   UNL     1      -8.716  51.910  50.244  0.00  0.00    +0.000 OA
BRANCH  23  26
ATOM     26  N   UNL     1      -9.299  51.546  47.813  0.00  0.00    +0.000 N 
ATOM     27  C   UNL     1      -9.036  51.342  46.428  0.00  0.00    +0.000 A 
ATOM     28  C   UNL     1     -10.379  50.613  48.236  0.00  0.00    +0.000 C 
ATOM     29  C   UNL     1      -9.999  50.486  45.892  0.00  0.00    +0.000 A 
ATOM     30  C   UNL     1      -8.138  51.991  45.600  0.00  0.00    +0.000 A 
ATOM     31  C   UNL     1     -10.843  49.875  46.964  0.00  0.00    +0.000 C 
ATOM     32  C   UNL     1     -10.100  50.274  44.524  0.00  0.00    +0.000 A 
ATOM     33  C   UNL     1      -8.215  51.771  44.221  0.00  0.00    +0.000 A 
ATOM     34  C   UNL     1      -9.202  50.933  43.684  0.00  0.00    +0.000 A 
ENDBRANCH  23  26
ENDBRANCH   1  23
TORSDOF 6
ENDMDL
MODEL 5
REMARK VINA RESULT:      -7.2      4.131      8.980
REMARK  Name = 
REMARK  9 active torsions:
REMARK  status: ('A' for Active; 'I' for Inactive)
REMARK    1  A    between atoms: S_1  and  N_4
REMARK    2  A    between atoms: S_1  and  N_5
REMARK    3  A    between atoms: N_13  and  C_16
REMARK    4  A    between atoms: C_19  and  C_22
REMARK    5  A    between atoms: C_22  and  O_26
REMARK    6  A    between atoms: O_26  and  C_29
REMARK    7  A    between atoms: C_27  and  C_30
REMARK    8  A    between atoms: C_27  and  C_31
REMARK    9  A    between atoms: C_29  and  C_32
REMARK                            x       y       z     vdW  Elec       q    Type
REMARK                         _______ _______ _______ _____ _____    ______ ____
ROOT
ATOM      1  N   UNL     1     -11.988  55.748  50.998  0.00  0.00    +0.000 N 
ATOM      2  C   UNL     1     -10.828  55.093  51.421  0.00  0.00    +0.000 C 
ATOM      3  O   UNL     1     -10.707  54.993  52.633  0.00  0.00    +0.000 OA
ATOM      4  N   UNL     1      -9.960  54.619  50.464  0.00  0.00    +0.000 N 
ATOM      5  H   UNL     1     -12.582  56.042  51.726  0.00  0.00    +0.000 HD
ATOM      6  H   UNL     1     -10.200  54.792  49.525  0.00  0.00    +0.000 HD
ENDROOT
BRANCH   4   7
ATOM      7  C   UNL     1      -8.775  53.918  50.688  0.00  0.00    +0.000 A 
ATOM      8  S   UNL     1      -8.680  52.239  50.380  0.00  0.00    +0.000 S 
ATOM      9  C   UNL     1      -7.572  54.415  51.188  0.00  0.00    +0.000 A 
ATOM     10  C   UNL     1      -7.027  52.171  50.738  0.00  0.00    +0.000 A 
ATOM     11  C   UNL     1      -6.530  53.404  51.107  0.00  0.00    +0.000 A 
ATOM     12  C   UNL     1      -6.220  50.902  50.610  0.00  0.00    +0.000 C 
ATOM     13  C   UNL     1      -5.069  53.598  51.405  0.00  0.00    +0.000 C 
ATOM     14  C   UNL     1      -4.830  51.049  51.304  0.00  0.00    +0.000 C 
ATOM     15  C   UNL     1      -4.219  52.420  50.929  0.00  0.00    +0.000 C 
ATOM     16  C   UNL     1      -3.861  49.957  50.821  0.00  0.00    +0.000 C 
ATOM     17  C   UNL     1      -4.982  50.910  52.833  0.00  0.00    +0.000 C 
BRANCH   9  18
ATOM     18  C   UNL     1      -7.382  55.798  51.647  0.00  0.00    +0.000 C 
ATOM     19  O   UNL     1      -7.134  56.734  50.898  0.00  0.00    +0.000 OA
BRANCH  18  20
ATOM     20  O   UNL     1      -7.492  55.903  52.999  0.00  0.00    +0.000 OA
BRANCH  20  21
ATOM     21  C   UNL     1      -6.308  55.862  53.802  0.00  0.00    +0.000 C 
ATOM     22  C   UNL     1      -6.399  54.701  54.772  0.00  0.00    +0.000 C 
ENDBRANCH  20  21
ENDBRANCH  18  20
ENDBRANCH   9  18
ENDBRANCH   4   7
BRANCH   1  23
ATOM     23  S   UNL     1     -12.524  56.108  49.486  0.00  0.00    +0.000 S 
ATOM     24  O   UNL     1     -11.363  56.497  48.728  0.00  0.00    +0.000 OA
ATOM     25  O   UNL     1     -13.358  54.999  49.079  0.00  0.00    +0.000 OA
BRANCH  23  26
ATOM     26  N   UNL     1     -13.491  57.404  49.844  0.00  0.00    +0.000 N 
ATOM     27  C   UNL     1     -14.030  57.677  51.133  0.00  0.00    +0.000 A 
ATOM     28  C   UNL     1     -13.311  58.692  49.120  0.00  0.00    +0.000 C 
ATOM     29  C   UNL     1     -14.387  59.023  51.215  0.00  0.00    +0.000 A 
ATOM     30  C   UNL     1     -14.383  56.797  52.141  0.00  0.00    +0.000 A 
ATOM     31  C   UNL     1     -13.883  59.793  50.036  0.00  0.00    +0.000 C 
ATOM     32  C   UNL     1     -15.117  59.517  52.287  0.00  0.00    +0.000 A 
ATOM     33  C   UNL     1     -15.102  57.285  53.238  0.00  0.00    +0.000 A 
ATOM     34  C   UNL     1     -15.483  58.632  53.302  0.00  0.00    +0.000 A 
ENDBRANCH  23  26
ENDBRANCH   1  23
TORSDOF 6
ENDMDL
MODEL 6
REMARK VINA RESULT:      -7.1      2.317      3.819
REMARK  Name = 
REMARK  9 active torsions:
REMARK  status: ('A' for Active; 'I' for Inactive)
REMARK    1  A    between atoms: S_1  and  N_4
REMARK    2  A    between atoms: S_1  and  N_5
REMARK    3  A    between atoms: N_13  and  C_16
REMARK    4  A    between atoms: C_19  and  C_22
REMARK    5  A    between atoms: C_22  and  O_26
REMARK    6  A    between atoms: O_26  and  C_29
REMARK    7  A    between atoms: C_27  and  C_30
REMARK    8  A    between atoms: C_27  and  C_31
REMARK    9  A    between atoms: C_29  and  C_32
REMARK                            x       y       z     vdW  Elec       q    Type
REMARK                         _______ _______ _______ _____ _____    ______ ____
ROOT
ATOM      1  N   UNL     1      -9.003  51.941  48.908  0.00  0.00    +0.000 N 
ATOM      2  C   UNL     1     -10.103  52.610  49.453  0.00  0.00    +0.000 C 
ATOM      3  O   UNL     1     -10.834  51.918  50.146  0.00  0.00    +0.000 OA
ATOM      4  N   UNL     1     -10.251  53.950  49.180  0.00  0.00    +0.000 N 
ATOM      5  H   UNL     1      -8.935  50.991  49.158  0.00  0.00    +0.000 HD
ATOM      6  H   UNL     1      -9.576  54.359  48.592  0.00  0.00    +0.000 HD
ENDROOT
BRANCH   4   7
ATOM      7  C   UNL     1     -11.259  54.790  49.654  0.00  0.00    +0.000 A 
ATOM      8  S   UNL     1     -11.555  54.942  51.331  0.00  0.00    +0.000 S 
ATOM      9  C   UNL     1     -12.145  55.564  48.906  0.00  0.00    +0.000 A 
ATOM     10  C   UNL     1     -12.731  56.141  51.110  0.00  0.00    +0.000 A 
ATOM     11  C   UNL     1     -12.925  56.429  49.775  0.00  0.00    +0.000 A 
ATOM     12  C   UNL     1     -13.425  56.819  52.266  0.00  0.00    +0.000 C 
ATOM     13  C   UNL     1     -13.876  57.512  49.343  0.00  0.00    +0.000 C 
ATOM     14  C   UNL     1     -14.668  57.626  51.777  0.00  0.00    +0.000 C 
ATOM     15  C   UNL     1     -14.288  58.419  50.503  0.00  0.00    +0.000 C 
ATOM     16  C   UNL     1     -15.113  58.642  52.843  0.00  0.00    +0.000 C 
ATOM     17  C   UNL     1     -15.849  56.672  51.505  0.00  0.00    +0.000 C 
BRANCH   9  18
ATOM     18  C   UNL     1     -12.206  55.554  47.437  0.00  0.00    +0.000 C 
ATOM     19  O   UNL     1     -12.312  56.566  46.755  0.00  0.00    +0.000 OA
BRANCH  18  20
ATOM     20  O   UNL     1     -12.155  54.290  46.936  0.00  0.00    +0.000 OA
BRANCH  20  21
ATOM     21  C   UNL     1     -11.660  54.084  45.609  0.00  0.00    +0.000 C 
ATOM     22  C   UNL     1     -11.587  52.597  45.325  0.00  0.00    +0.000 C 
ENDBRANCH  20  21
ENDBRANCH  18  20
ENDBRANCH   9  18
ENDBRANCH   4   7
BRANCH   1  23
ATOM     23  S   UNL     1      -7.803  52.478  47.921  0.00  0.00    +0.000 S 
ATOM     24  O   UNL     1      -7.008  51.324  47.588  0.00  0.00    +0.000 OA
ATOM     25  O   UNL     1      -8.445  53.276  46.902  0.00  0.00    +0.000 OA
BRANCH  23  26
ATOM     26  N   UNL     1      -7.017  53.485  48.976  0.00  0.00    +0.000 N 
ATOM     27  C   UNL     1      -6.108  53.049  49.981  0.00  0.00    +0.000 A 
ATOM     28  C   UNL     1      -6.635  54.859  48.551  0.00  0.00    +0.000 C 
ATOM     29  C   UNL     1      -5.294  54.115  50.368  0.00  0.00    +0.000 A 
ATOM     30  C   UNL     1      -6.081  51.858  50.685  0.00  0.00    +0.000 A 
ATOM     31  C   UNL     1      -5.464  55.289  49.457  0.00  0.00    +0.000 C 
ATOM     32  C   UNL     1      -4.453  54.024  51.469  0.00  0.00    +0.000 A 
ATOM     33  C   UNL     1      -5.224  51.746  51.784  0.00  0.00    +0.000 A 
ATOM     34  C   UNL     1      -4.429  52.828  52.186  0.00  0.00    +0.000 A 
ENDBRANCH  23  26
ENDBRANCH   1  23
TORSDOF 6
ENDMDL
MODEL 7
REMARK VINA RESULT:      -7.1      3.317      8.498
REMARK  Name = 
REMARK  9 active torsions:
REMARK  status: ('A' for Active; 'I' for Inactive)
REMARK    1  A    between atoms: S_1  and  N_4
REMARK    2  A    between atoms: S_1  and  N_5
REMARK    3  A    between atoms: N_13  and  C_16
REMARK    4  A    between atoms: C_19  and  C_22
REMARK    5  A    between atoms: C_22  and  O_26
REMARK    6  A    between atoms: O_26  and  C_29
REMARK    7  A    between atoms: C_27  and  C_30
REMARK    8  A    between atoms: C_27  and  C_31
REMARK    9  A    between atoms: C_29  and  C_32
REMARK                            x       y       z     vdW  Elec       q    Type
REMARK                         _______ _______ _______ _____ _____    ______ ____
ROOT
ATOM      1  N   UNL     1     -11.465  55.625  50.758  0.00  0.00    +0.000 N 
ATOM      2  C   UNL     1     -10.291  55.017  51.212  0.00  0.00    +0.000 C 
ATOM      3  O   UNL     1     -10.035  55.209  52.391  0.00  0.00    +0.000 OA
ATOM      4  N   UNL     1      -9.559  54.266  50.321  0.00  0.00    +0.000 N 
ATOM      5  H   UNL     1     -11.960  56.127  51.445  0.00  0.00    +0.000 HD
ATOM      6  H   UNL     1      -9.899  54.220  49.398  0.00  0.00    +0.000 HD
ENDROOT
BRANCH   4   7
ATOM      7  C   UNL     1      -8.385  53.563  50.592  0.00  0.00    +0.000 A 
ATOM      8  S   UNL     1      -8.405  52.182  51.599  0.00  0.00    +0.000 S 
ATOM      9  C   UNL     1      -7.096  53.855  50.150  0.00  0.00    +0.000 A 
ATOM     10  C   UNL     1      -6.765  51.853  51.339  0.00  0.00    +0.000 A 
ATOM     11  C   UNL     1      -6.180  52.784  50.507  0.00  0.00    +0.000 A 
ATOM     12  C   UNL     1      -6.075  50.648  51.931  0.00  0.00    +0.000 C 
ATOM     13  C   UNL     1      -4.742  52.655  50.082  0.00  0.00    +0.000 C 
ATOM     14  C   UNL     1      -4.525  50.770  51.803  0.00  0.00    +0.000 C 
ATOM     15  C   UNL     1      -4.171  51.269  50.382  0.00  0.00    +0.000 C 
ATOM     16  C   UNL     1      -3.851  49.401  51.999  0.00  0.00    +0.000 C 
ATOM     17  C   UNL     1      -3.977  51.730  52.880  0.00  0.00    +0.000 C 
BRANCH   9  18
ATOM     18  C   UNL     1      -6.748  55.044  49.359  0.00  0.00    +0.000 C 
ATOM     19  O   UNL     1      -5.785  55.762  49.599  0.00  0.00    +0.000 OA
BRANCH  18  20
ATOM     20  O   UNL     1      -7.636  55.260  48.351  0.00  0.00    +0.000 OA
BRANCH  20  21
ATOM     21  C   UNL     1      -7.444  54.597  47.097  0.00  0.00    +0.000 C 
ATOM     22  C   UNL     1      -8.715  53.865  46.715  0.00  0.00    +0.000 C 
ENDBRANCH  20  21
ENDBRANCH  18  20
ENDBRANCH   9  18
ENDBRANCH   4   7
BRANCH   1  23
ATOM     23  S   UNL     1     -12.158  55.639  49.267  0.00  0.00    +0.000 S 
ATOM     24  O   UNL     1     -11.112  55.987  48.340  0.00  0.00    +0.000 OA
ATOM     25  O   UNL     1     -12.892  54.399  49.151  0.00  0.00    +0.000 OA
BRANCH  23  26
ATOM     26  N   UNL     1     -13.232  56.882  49.480  0.00  0.00    +0.000 N 
ATOM     27  C   UNL     1     -13.708  57.328  50.745  0.00  0.00    +0.000 A 
ATOM     28  C   UNL     1     -13.243  58.030  48.534  0.00  0.00    +0.000 C 
ATOM     29  C   UNL     1     -14.203  58.627  50.626  0.00  0.00    +0.000 A 
ATOM     30  C   UNL     1     -13.894  56.614  51.916  0.00  0.00    +0.000 A 
ATOM     31  C   UNL     1     -13.867  59.218  49.293  0.00  0.00    +0.000 C 
ATOM     32  C   UNL     1     -14.907  59.234  51.657  0.00  0.00    +0.000 A 
ATOM     33  C   UNL     1     -14.584  57.220  52.971  0.00  0.00    +0.000 A 
ATOM     34  C   UNL     1     -15.104  58.514  52.836  0.00  0.00    +0.000 A 
ENDBRANCH  23  26
ENDBRANCH   1  23
TORSDOF 6
ENDMDL
MODEL 8
REMARK VINA RESULT:      -7.0      2.541      4.562
REMARK  Name = 
REMARK  9 active torsions:
REMARK  status: ('A' for Active; 'I' for Inactive)
REMARK    1  A    between atoms: S_1  and  N_4
REMARK    2  A    between atoms: S_1  and  N_5
REMARK    3  A    between atoms: N_13  and  C_16
REMARK    4  A    between atoms: C_19  and  C_22
REMARK    5  A    between atoms: C_22  and  O_26
REMARK    6  A    between atoms: O_26  and  C_29
REMARK    7  A    between atoms: C_27  and  C_30
REMARK    8  A    between atoms: C_27  and  C_31
REMARK    9  A    between atoms: C_29  and  C_32
REMARK                            x       y       z     vdW  Elec       q    Type
REMARK                         _______ _______ _______ _____ _____    ______ ____
ROOT
ATOM      1  N   UNL     1      -7.904  53.860  48.989  0.00  0.00    +0.000 N 
ATOM      2  C   UNL     1      -8.887  54.803  49.302  0.00  0.00    +0.000 C 
ATOM      3  O   UNL     1      -8.608  55.955  49.003  0.00  0.00    +0.000 OA
ATOM      4  N   UNL     1     -10.051  54.362  49.888  0.00  0.00    +0.000 N 
ATOM      5  H   UNL     1      -7.105  54.230  48.549  0.00  0.00    +0.000 HD
ATOM      6  H   UNL     1     -10.114  53.397  50.074  0.00  0.00    +0.000 HD
ENDROOT
BRANCH   4   7
ATOM      7  C   UNL     1     -11.152  55.142  50.244  0.00  0.00    +0.000 A 
ATOM      8  S   UNL     1     -11.480  55.496  51.884  0.00  0.00    +0.000 S 
ATOM      9  C   UNL     1     -12.112  55.696  49.399  0.00  0.00    +0.000 A 
ATOM     10  C   UNL     1     -12.780  56.511  51.502  0.00  0.00    +0.000 A 
ATOM     11  C   UNL     1     -12.992  56.583  50.141  0.00  0.00    +0.000 A 
ATOM     12  C   UNL     1     -13.558  57.264  52.554  0.00  0.00    +0.000 C 
ATOM     13  C   UNL     1     -14.055  57.480  49.566  0.00  0.00    +0.000 C 
ATOM     14  C   UNL     1     -14.878  57.849  51.963  0.00  0.00    +0.000 C 
ATOM     15  C   UNL     1     -14.578  58.490  50.587  0.00  0.00    +0.000 C 
ATOM     16  C   UNL     1     -15.445  58.948  52.877  0.00  0.00    +0.000 C 
ATOM     17  C   UNL     1     -15.942  56.738  51.837  0.00  0.00    +0.000 C 
BRANCH   9  18
ATOM     18  C   UNL     1     -12.156  55.472  47.947  0.00  0.00    +0.000 C 
ATOM     19  O   UNL     1     -12.296  56.369  47.125  0.00  0.00    +0.000 OA
BRANCH  18  20
ATOM     20  O   UNL     1     -12.049  54.152  47.635  0.00  0.00    +0.000 OA
BRANCH  20  21
ATOM     21  C   UNL     1     -11.114  53.746  46.630  0.00  0.00    +0.000 C 
ATOM     22  C   UNL     1     -11.866  53.335  45.380  0.00  0.00    +0.000 C 
ENDBRANCH  20  21
ENDBRANCH  18  20
ENDBRANCH   9  18
ENDBRANCH   4   7
BRANCH   1  23
ATOM     23  S   UNL     1      -7.863  52.234  49.232  0.00  0.00    +0.000 S 
ATOM     24  O   UNL     1      -9.226  51.779  49.142  0.00  0.00    +0.000 OA
ATOM     25  O   UNL     1      -6.832  51.722  48.357  0.00  0.00    +0.000 OA
BRANCH  23  26
ATOM     26  N   UNL     1      -7.304  52.208  50.791  0.00  0.00    +0.000 N 
ATOM     27  C   UNL     1      -8.102  51.891  51.927  0.00  0.00    +0.000 A 
ATOM     28  C   UNL     1      -5.896  51.821  51.074  0.00  0.00    +0.000 C 
ATOM     29  C   UNL     1      -7.275  51.510  52.985  0.00  0.00    +0.000 A 
ATOM     30  C   UNL     1      -9.455  52.091  52.134  0.00  0.00    +0.000 A 
ATOM     31  C   UNL     1      -5.861  51.326  52.533  0.00  0.00    +0.000 C 
ATOM     32  C   UNL     1      -7.773  51.338  54.270  0.00  0.00    +0.000 A 
ATOM     33  C   UNL     1      -9.974  51.901  53.420  0.00  0.00    +0.000 A 
ATOM     34  C   UNL     1      -9.135  51.546  54.485  0.00  0.00    +0.000 A 
ENDBRANCH  23  26
ENDBRANCH   1  23
TORSDOF 6
ENDMDL
MODEL 9
REMARK VINA RESULT:      -7.0      2.879      5.438
REMARK  Name = 
REMARK  9 active torsions:
REMARK  status: ('A' for Active; 'I' for Inactive)
REMARK    1  A    between atoms: S_1  and  N_4
REMARK    2  A    between atoms: S_1  and  N_5
REMARK    3  A    between atoms: N_13  and  C_16
REMARK    4  A    between atoms: C_19  and  C_22
REMARK    5  A    between atoms: C_22  and  O_26
REMARK    6  A    between atoms: O_26  and  C_29
REMARK    7  A    between atoms: C_27  and  C_30
REMARK    8  A    between atoms: C_27  and  C_31
REMARK    9  A    between atoms: C_29  and  C_32
REMARK                            x       y       z     vdW  Elec       q    Type
REMARK                         _______ _______ _______ _____ _____    ______ ____
ROOT
ATOM      1  N   UNL     1     -10.012  54.226  46.305  0.00  0.00    +0.000 N 
ATOM      2  C   UNL     1      -9.167  54.553  47.369  0.00  0.00    +0.000 C 
ATOM      3  O   UNL     1      -8.386  55.465  47.143  0.00  0.00    +0.000 OA
ATOM      4  N   UNL     1      -9.297  53.849  48.544  0.00  0.00    +0.000 N 
ATOM      5  H   UNL     1      -9.891  54.779  45.499  0.00  0.00    +0.000 HD
ATOM      6  H   UNL     1      -9.972  53.133  48.558  0.00  0.00    +0.000 HD
ENDROOT
BRANCH   4   7
ATOM      7  C   UNL     1      -8.570  54.049  49.719  0.00  0.00    +0.000 A 
ATOM      8  S   UNL     1      -6.947  53.527  49.843  0.00  0.00    +0.000 S 
ATOM      9  C   UNL     1      -9.013  54.633  50.905  0.00  0.00    +0.000 A 
ATOM     10  C   UNL     1      -6.750  54.201  51.384  0.00  0.00    +0.000 A 
ATOM     11  C   UNL     1      -7.904  54.812  51.828  0.00  0.00    +0.000 A 
ATOM     12  C   UNL     1      -5.437  54.157  52.127  0.00  0.00    +0.000 C 
ATOM     13  C   UNL     1      -7.943  55.538  53.146  0.00  0.00    +0.000 C 
ATOM     14  C   UNL     1      -5.627  54.552  53.624  0.00  0.00    +0.000 C 
ATOM     15  C   UNL     1      -6.545  55.796  53.707  0.00  0.00    +0.000 C 
ATOM     16  C   UNL     1      -4.279  54.923  54.266  0.00  0.00    +0.000 C 
ATOM     17  C   UNL     1      -6.223  53.370  54.416  0.00  0.00    +0.000 C 
BRANCH   9  18
ATOM     18  C   UNL     1     -10.394  55.078  51.137  0.00  0.00    +0.000 C 
ATOM     19  O   UNL     1     -11.099  54.658  52.046  0.00  0.00    +0.000 OA
BRANCH  18  20
ATOM     20  O   UNL     1     -10.795  55.989  50.209  0.00  0.00    +0.000 OA
BRANCH  20  21
ATOM     21  C   UNL     1     -12.187  56.297  50.089  0.00  0.00    +0.000 C 
ATOM     22  C   UNL     1     -12.653  55.984  48.682  0.00  0.00    +0.000 C 
ENDBRANCH  20  21
ENDBRANCH  18  20
ENDBRANCH   9  18
ENDBRANCH   4   7
BRANCH   1  23
ATOM     23  S   UNL     1     -11.177  53.072  46.176  0.00  0.00    +0.000 S 
ATOM     24  O   UNL     1     -11.653  52.829  47.514  0.00  0.00    +0.000 OA
ATOM     25  O   UNL     1     -12.064  53.510  45.123  0.00  0.00    +0.000 OA
BRANCH  23  26
ATOM     26  N   UNL     1     -10.253  51.817  45.613  0.00  0.00    +0.000 N 
ATOM     27  C   UNL     1      -9.466  51.865  44.427  0.00  0.00    +0.000 A 
ATOM     28  C   UNL     1      -9.619  50.869  46.568  0.00  0.00    +0.000 C 
ATOM     29  C   UNL     1      -8.485  50.874  44.478  0.00  0.00    +0.000 A 
ATOM     30  C   UNL     1      -9.673  52.584  43.263  0.00  0.00    +0.000 A 
ATOM     31  C   UNL     1      -8.416  50.245  45.834  0.00  0.00    +0.000 C 
ATOM     32  C   UNL     1      -7.706  50.565  43.372  0.00  0.00    +0.000 A 
ATOM     33  C   UNL     1      -8.881  52.298  42.146  0.00  0.00    +0.000 A 
ATOM     34  C   UNL     1      -7.917  51.282  42.194  0.00  0.00    +0.000 A 
ENDBRANCH  23  26
ENDBRANCH   1  23
TORSDOF 6
ENDMDL
