MODEL 1
REMARK VINA RESULT:      -8.1      0.000      0.000
REMARK  Name = 
REMARK  10 active torsions:
REMARK  status: ('A' for Active; 'I' for Inactive)
REMARK    1  A    between atoms: S_1  and  N_4
REMARK    2  A    between atoms: S_1  and  C_5
REMARK    3  A    between atoms: N_7  and  C_12
REMARK    4  A    between atoms: N_10  and  C_14
REMARK    5  A    between atoms: C_16  and  C_19
REMARK    6  A    between atoms: C_19  and  O_23
REMARK    7  A    between atoms: O_23  and  C_26
REMARK    8  A    between atoms: C_24  and  C_27
REMARK    9  A    between atoms: C_24  and  C_28
REMARK   10  A    between atoms: C_26  and  C_29
REMARK                            x       y       z     vdW  Elec       q    Type
REMARK                         _______ _______ _______ _____ _____    ______ ____
ROOT
ATOM      1  C   UNL     1     -10.941  54.377  51.621  0.00  0.00    +0.000 A 
ATOM      2  S   UNL     1     -10.523  53.644  53.097  0.00  0.00    +0.000 S 
ATOM      3  C   UNL     1      -9.862  54.893  50.936  0.00  0.00    +0.000 A 
ATOM      4  C   UNL     1      -8.859  53.771  52.743  0.00  0.00    +0.000 A 
ATOM      5  C   UNL     1      -8.631  54.448  51.560  0.00  0.00    +0.000 A 
ATOM      6  C   UNL     1      -7.781  53.197  53.636  0.00  0.00    +0.000 C 
ATOM      7  C   UNL     1      -7.239  54.707  51.057  0.00  0.00    +0.000 C 
ATOM      8  C   UNL     1      -6.392  53.838  53.318  0.00  0.00    +0.000 C 
ATOM      9  C   UNL     1      -6.185  53.875  51.783  0.00  0.00    +0.000 C 
ATOM     10  C   UNL     1      -5.248  53.001  53.918  0.00  0.00    +0.000 C 
ATOM     11  C   UNL     1      -6.312  55.255  53.922  0.00  0.00    +0.000 C 
ENDROOT
BRANCH   1  15
ATOM     12  N   UNL     1     -14.381  55.334  51.214  0.00  0.00    +0.000 N 
ATOM     13  C   UNL     1     -13.036  55.468  51.561  0.00  0.00    +0.000 C 
ATOM     14  O   UNL     1     -12.580  56.524  51.961  0.00  0.00    +0.000 OA
ATOM     15  N   UNL     1     -12.290  54.336  51.297  0.00  0.00    +0.000 N 
ATOM     16  H   UNL     1     -14.687  54.470  50.853  0.00  0.00    +0.000 HD
ATOM     17  H   UNL     1     -12.699  53.534  50.896  0.00  0.00    +0.000 HD
BRANCH  12  18
ATOM     18  S   UNL     1     -15.494  56.559  51.382  0.00  0.00    +0.000 S 
ATOM     19  O   UNL     1     -15.685  56.871  52.775  0.00  0.00    +0.000 OA
ATOM     20  O   UNL     1     -16.623  56.150  50.566  0.00  0.00    +0.000 OA
BRANCH  18  21
ATOM     21  C   UNL     1     -14.913  58.024  50.582  0.00  0.00    +0.000 A 
ATOM     22  N   UNL     1     -14.348  58.092  49.328  0.00  0.00    +0.000 N 
ATOM     23  C   UNL     1     -14.882  59.335  51.046  0.00  0.00    +0.000 A 
ATOM     24  N   UNL     1     -13.996  59.353  48.967  0.00  0.00    +0.000 NA
ATOM     25  C   UNL     1     -14.061  57.058  48.361  0.00  0.00    +0.000 C 
ATOM     26  C   UNL     1     -14.312  60.098  50.021  0.00  0.00    +0.000 A 
ENDBRANCH  18  21
ENDBRANCH  12  18
ENDBRANCH   1  15
BRANCH   3  27
ATOM     27  C   UNL     1      -9.978  55.756  49.750  0.00  0.00    +0.000 C 
ATOM     28  O   UNL     1      -9.409  56.834  49.622  0.00  0.00    +0.000 OA
BRANCH  27  29
ATOM     29  O   UNL     1     -10.759  55.191  48.789  0.00  0.00    +0.000 OA
BRANCH  29  30
ATOM     30  C   UNL     1     -10.345  55.305  47.426  0.00  0.00    +0.000 C 
ATOM     31  C   UNL     1     -11.525  55.069  46.508  0.00  0.00    +0.000 C 
ENDBRANCH  29  30
ENDBRANCH  27  29
ENDBRANCH   3  27
TORSDOF 6
ENDMDL
MODEL 2
REMARK VINA RESULT:      -7.5      2.990      7.657
REMARK  Name = 
REMARK  10 active torsions:
REMARK  status: ('A' for Active; 'I' for Inactive)
REMARK    1  A    between atoms: S_1  and  N_4
REMARK    2  A    between atoms: S_1  and  C_5
REMARK    3  A    between atoms: N_7  and  C_12
REMARK    4  A    between atoms: N_10  and  C_14
REMARK    5  A    between atoms: C_16  and  C_19
REMARK    6  A    between atoms: C_19  and  O_23
REMARK    7  A    between atoms: O_23  and  C_26
REMARK    8  A    between atoms: C_24  and  C_27
REMARK    9  A    between atoms: C_24  and  C_28
REMARK   10  A    between atoms: C_26  and  C_29
REMARK                            x       y       z     vdW  Elec       q    Type
REMARK                         _______ _______ _______ _____ _____    ______ ____
ROOT
ATOM      1  C   UNL     1     -11.146  54.923  50.318  0.00  0.00    +0.000 A 
ATOM      2  S   UNL     1     -11.777  54.984  51.895  0.00  0.00    +0.000 S 
ATOM      3  C   UNL     1     -11.783  55.768  49.435  0.00  0.00    +0.000 A 
ATOM      4  C   UNL     1     -12.753  56.328  51.503  0.00  0.00    +0.000 A 
ATOM      5  C   UNL     1     -12.665  56.660  50.165  0.00  0.00    +0.000 A 
ATOM      6  C   UNL     1     -13.603  57.054  52.522  0.00  0.00    +0.000 C 
ATOM      7  C   UNL     1     -13.458  57.794  49.580  0.00  0.00    +0.000 C 
ATOM      8  C   UNL     1     -14.701  57.917  51.822  0.00  0.00    +0.000 C 
ATOM      9  C   UNL     1     -14.064  58.701  50.648  0.00  0.00    +0.000 C 
ATOM     10  C   UNL     1     -15.297  58.949  52.796  0.00  0.00    +0.000 C 
ATOM     11  C   UNL     1     -15.848  57.013  51.326  0.00  0.00    +0.000 C 
ENDROOT
BRANCH   1  15
ATOM     12  N   UNL     1      -7.821  53.560  50.363  0.00  0.00    +0.000 N 
ATOM     13  C   UNL     1      -8.841  54.484  50.596  0.00  0.00    +0.000 C 
ATOM     14  O   UNL     1      -8.647  55.507  51.228  0.00  0.00    +0.000 OA
ATOM     15  N   UNL     1     -10.074  54.060  50.139  0.00  0.00    +0.000 N 
ATOM     16  H   UNL     1      -8.043  52.728  49.885  0.00  0.00    +0.000 HD
ATOM     17  H   UNL     1     -10.186  53.184  49.703  0.00  0.00    +0.000 HD
BRANCH  12  18
ATOM     18  S   UNL     1      -6.248  53.794  50.852  0.00  0.00    +0.000 S 
ATOM     19  O   UNL     1      -5.747  55.041  50.334  0.00  0.00    +0.000 OA
ATOM     20  O   UNL     1      -5.571  52.550  50.535  0.00  0.00    +0.000 OA
BRANCH  18  21
ATOM     21  C   UNL     1      -6.163  53.874  52.615  0.00  0.00    +0.000 A 
ATOM     22  N   UNL     1      -6.632  52.922  53.493  0.00  0.00    +0.000 N 
ATOM     23  C   UNL     1      -5.658  54.880  53.434  0.00  0.00    +0.000 A 
ATOM     24  N   UNL     1      -6.430  53.248  54.795  0.00  0.00    +0.000 NA
ATOM     25  C   UNL     1      -7.306  51.667  53.256  0.00  0.00    +0.000 C 
ATOM     26  C   UNL     1      -5.849  54.444  54.749  0.00  0.00    +0.000 A 
ENDBRANCH  18  21
ENDBRANCH  12  18
ENDBRANCH   1  15
BRANCH   3  27
ATOM     27  C   UNL     1     -11.571  55.748  47.979  0.00  0.00    +0.000 C 
ATOM     28  O   UNL     1     -12.473  55.779  47.149  0.00  0.00    +0.000 OA
BRANCH  27  29
ATOM     29  O   UNL     1     -10.247  55.736  47.662  0.00  0.00    +0.000 OA
BRANCH  29  30
ATOM     30  C   UNL     1      -9.809  54.874  46.610  0.00  0.00    +0.000 C 
ATOM     31  C   UNL     1      -8.312  54.996  46.432  0.00  0.00    +0.000 C 
ENDBRANCH  29  30
ENDBRANCH  27  29
ENDBRANCH   3  27
TORSDOF 6
ENDMDL
MODEL 3
REMARK VINA RESULT:      -7.1      4.114      8.167
REMARK  Name = 
REMARK  10 active torsions:
REMARK  status: ('A' for Active; 'I' for Inactive)
REMARK    1  A    between atoms: S_1  and  N_4
REMARK    2  A    between atoms: S_1  and  C_5
REMARK    3  A    between atoms: N_7  and  C_12
REMARK    4  A    between atoms: N_10  and  C_14
REMARK    5  A    between atoms: C_16  and  C_19
REMARK    6  A    between atoms: C_19  and  O_23
REMARK    7  A    between atoms: O_23  and  C_26
REMARK    8  A    between atoms: C_24  and  C_27
REMARK    9  A    between atoms: C_24  and  C_28
REMARK   10  A    between atoms: C_26  and  C_29
REMARK                            x       y       z     vdW  Elec       q    Type
REMARK                         _______ _______ _______ _____ _____    ______ ____
ROOT
ATOM      1  C   UNL     1      -8.640  54.942  47.240  0.00  0.00    +0.000 A 
ATOM      2  S   UNL     1      -7.432  54.108  46.384  0.00  0.00    +0.000 S 
ATOM      3  C   UNL     1      -9.915  54.689  46.783  0.00  0.00    +0.000 A 
ATOM      4  C   UNL     1      -8.597  53.189  45.542  0.00  0.00    +0.000 A 
ATOM      5  C   UNL     1      -9.886  53.583  45.845  0.00  0.00    +0.000 A 
ATOM      6  C   UNL     1      -8.233  52.075  44.584  0.00  0.00    +0.000 C 
ATOM      7  C   UNL     1     -11.080  52.935  45.202  0.00  0.00    +0.000 C 
ATOM      8  C   UNL     1      -9.433  51.731  43.645  0.00  0.00    +0.000 C 
ATOM      9  C   UNL     1     -10.730  51.633  44.487  0.00  0.00    +0.000 C 
ATOM     10  C   UNL     1      -9.224  50.369  42.960  0.00  0.00    +0.000 C 
ATOM     11  C   UNL     1      -9.569  52.802  42.544  0.00  0.00    +0.000 C 
ENDROOT
BRANCH   1  15
ATOM     12  N   UNL     1      -7.658  56.023  50.524  0.00  0.00    +0.000 N 
ATOM     13  C   UNL     1      -8.110  55.149  49.534  0.00  0.00    +0.000 C 
ATOM     14  O   UNL     1      -8.310  53.970  49.762  0.00  0.00    +0.000 OA
ATOM     15  N   UNL     1      -8.189  55.736  48.285  0.00  0.00    +0.000 N 
ATOM     16  H   UNL     1      -7.469  56.957  50.274  0.00  0.00    +0.000 HD
ATOM     17  H   UNL     1      -7.936  56.677  48.144  0.00  0.00    +0.000 HD
BRANCH  12  18
ATOM     18  S   UNL     1      -7.425  55.567  52.107  0.00  0.00    +0.000 S 
ATOM     19  O   UNL     1      -8.529  54.759  52.560  0.00  0.00    +0.000 OA
ATOM     20  O   UNL     1      -7.089  56.795  52.802  0.00  0.00    +0.000 OA
BRANCH  18  21
ATOM     21  C   UNL     1      -5.957  54.594  52.251  0.00  0.00    +0.000 A 
ATOM     22  N   UNL     1      -5.456  54.054  53.415  0.00  0.00    +0.000 N 
ATOM     23  C   UNL     1      -5.040  54.221  51.274  0.00  0.00    +0.000 A 
ATOM     24  N   UNL     1      -4.310  53.348  53.228  0.00  0.00    +0.000 NA
ATOM     25  C   UNL     1      -5.932  54.129  54.776  0.00  0.00    +0.000 C 
ATOM     26  C   UNL     1      -4.059  53.466  51.927  0.00  0.00    +0.000 A 
ENDBRANCH  18  21
ENDBRANCH  12  18
ENDBRANCH   1  15
BRANCH   3  27
ATOM     27  C   UNL     1     -11.106  55.442  47.210  0.00  0.00    +0.000 C 
ATOM     28  O   UNL     1     -11.855  56.039  46.446  0.00  0.00    +0.000 OA
BRANCH  27  29
ATOM     29  O   UNL     1     -11.302  55.357  48.554  0.00  0.00    +0.000 OA
BRANCH  29  30
ATOM     30  C   UNL     1     -12.436  54.628  49.029  0.00  0.00    +0.000 C 
ATOM     31  C   UNL     1     -12.188  53.141  48.889  0.00  0.00    +0.000 C 
ENDBRANCH  29  30
ENDBRANCH  27  29
ENDBRANCH   3  27
TORSDOF 6
ENDMDL
MODEL 4
REMARK VINA RESULT:      -7.0      3.644      7.977
REMARK  Name = 
REMARK  10 active torsions:
REMARK  status: ('A' for Active; 'I' for Inactive)
REMARK    1  A    between atoms: S_1  and  N_4
REMARK    2  A    between atoms: S_1  and  C_5
REMARK    3  A    between atoms: N_7  and  C_12
REMARK    4  A    between atoms: N_10  and  C_14
REMARK    5  A    between atoms: C_16  and  C_19
REMARK    6  A    between atoms: C_19  and  O_23
REMARK    7  A    between atoms: O_23  and  C_26
REMARK    8  A    between atoms: C_24  and  C_27
REMARK    9  A    between atoms: C_24  and  C_28
REMARK   10  A    between atoms: C_26  and  C_29
REMARK                            x       y       z     vdW  Elec       q    Type
REMARK                         _______ _______ _______ _____ _____    ______ ____
ROOT
ATOM      1  C   UNL     1     -11.367  54.956  50.153  0.00  0.00    +0.000 A 
ATOM      2  S   UNL     1     -11.651  55.188  51.813  0.00  0.00    +0.000 S 
ATOM      3  C   UNL     1     -12.255  55.628  49.342  0.00  0.00    +0.000 A 
ATOM      4  C   UNL     1     -12.813  56.396  51.493  0.00  0.00    +0.000 A 
ATOM      5  C   UNL     1     -13.043  56.548  50.139  0.00  0.00    +0.000 A 
ATOM      6  C   UNL     1     -13.492  57.194  52.584  0.00  0.00    +0.000 C 
ATOM      7  C   UNL     1     -14.048  57.535  49.617  0.00  0.00    +0.000 C 
ATOM      8  C   UNL     1     -14.792  57.877  52.049  0.00  0.00    +0.000 C 
ATOM      9  C   UNL     1     -14.498  58.536  50.679  0.00  0.00    +0.000 C 
ATOM     10  C   UNL     1     -15.264  58.988  53.004  0.00  0.00    +0.000 C 
ATOM     11  C   UNL     1     -15.926  56.838  51.931  0.00  0.00    +0.000 C 
ENDROOT
BRANCH   1  15
ATOM     12  N   UNL     1      -8.138  53.885  48.992  0.00  0.00    +0.000 N 
ATOM     13  C   UNL     1      -9.178  54.770  49.282  0.00  0.00    +0.000 C 
ATOM     14  O   UNL     1      -9.055  55.973  49.135  0.00  0.00    +0.000 OA
ATOM     15  N   UNL     1     -10.279  54.152  49.842  0.00  0.00    +0.000 N 
ATOM     16  H   UNL     1      -8.276  52.926  49.172  0.00  0.00    +0.000 HD
ATOM     17  H   UNL     1     -10.291  53.182  50.012  0.00  0.00    +0.000 HD
BRANCH  12  18
ATOM     18  S   UNL     1      -6.679  54.368  48.356  0.00  0.00    +0.000 S 
ATOM     19  O   UNL     1      -6.018  55.276  49.258  0.00  0.00    +0.000 OA
ATOM     20  O   UNL     1      -6.984  54.784  46.999  0.00  0.00    +0.000 OA
BRANCH  18  21
ATOM     21  C   UNL     1      -5.619  52.972  48.133  0.00  0.00    +0.000 A 
ATOM     22  N   UNL     1      -5.909  51.845  47.397  0.00  0.00    +0.000 N 
ATOM     23  C   UNL     1      -4.353  52.727  48.656  0.00  0.00    +0.000 A 
ATOM     24  N   UNL     1      -4.904  50.930  47.399  0.00  0.00    +0.000 NA
ATOM     25  C   UNL     1      -7.090  51.478  46.652  0.00  0.00    +0.000 C 
ATOM     26  C   UNL     1      -3.970  51.470  48.176  0.00  0.00    +0.000 A 
ENDBRANCH  18  21
ENDBRANCH  12  18
ENDBRANCH   1  15
BRANCH   3  27
ATOM     27  C   UNL     1     -12.355  55.424  47.887  0.00  0.00    +0.000 C 
ATOM     28  O   UNL     1     -12.600  56.315  47.081  0.00  0.00    +0.000 OA
BRANCH  27  29
ATOM     29  O   UNL     1     -12.097  54.134  47.539  0.00  0.00    +0.000 OA
BRANCH  29  30
ATOM     30  C   UNL     1     -11.759  53.854  46.179  0.00  0.00    +0.000 C 
ATOM     31  C   UNL     1     -10.267  54.002  45.978  0.00  0.00    +0.000 C 
ENDBRANCH  29  30
ENDBRANCH  27  29
ENDBRANCH   3  27
TORSDOF 6
ENDMDL
MODEL 5
REMARK VINA RESULT:      -6.9      3.986      7.530
REMARK  Name = 
REMARK  10 active torsions:
REMARK  status: ('A' for Active; 'I' for Inactive)
REMARK    1  A    between atoms: S_1  and  N_4
REMARK    2  A    between atoms: S_1  and  C_5
REMARK    3  A    between atoms: N_7  and  C_12
REMARK    4  A    between atoms: N_10  and  C_14
REMARK    5  A    between atoms: C_16  and  C_19
REMARK    6  A    between atoms: C_19  and  O_23
REMARK    7  A    between atoms: O_23  and  C_26
REMARK    8  A    between atoms: C_24  and  C_27
REMARK    9  A    between atoms: C_24  and  C_28
REMARK   10  A    between atoms: C_26  and  C_29
REMARK                            x       y       z     vdW  Elec       q    Type
REMARK                         _______ _______ _______ _____ _____    ______ ____
ROOT
ATOM      1  C   UNL     1      -8.739  54.910  47.283  0.00  0.00    +0.000 A 
ATOM      2  S   UNL     1      -7.518  54.147  46.380  0.00  0.00    +0.000 S 
ATOM      3  C   UNL     1     -10.011  54.653  46.821  0.00  0.00    +0.000 A 
ATOM      4  C   UNL     1      -8.668  53.247  45.498  0.00  0.00    +0.000 A 
ATOM      5  C   UNL     1      -9.964  53.597  45.828  0.00  0.00    +0.000 A 
ATOM      6  C   UNL     1      -8.287  52.191  44.484  0.00  0.00    +0.000 C 
ATOM      7  C   UNL     1     -11.147  52.957  45.159  0.00  0.00    +0.000 C 
ATOM      8  C   UNL     1      -9.485  51.868  43.535  0.00  0.00    +0.000 C 
ATOM      9  C   UNL     1     -10.774  51.700  44.378  0.00  0.00    +0.000 C 
ATOM     10  C   UNL     1      -9.251  50.548  42.780  0.00  0.00    +0.000 C 
ATOM     11  C   UNL     1      -9.651  52.991  42.490  0.00  0.00    +0.000 C 
ENDROOT
BRANCH   1  15
ATOM     12  N   UNL     1      -7.626  55.817  50.578  0.00  0.00    +0.000 N 
ATOM     13  C   UNL     1      -8.053  54.983  49.544  0.00  0.00    +0.000 C 
ATOM     14  O   UNL     1      -8.099  53.773  49.673  0.00  0.00    +0.000 OA
ATOM     15  N   UNL     1      -8.298  55.661  48.365  0.00  0.00    +0.000 N 
ATOM     16  H   UNL     1      -7.565  56.784  50.405  0.00  0.00    +0.000 HD
ATOM     17  H   UNL     1      -8.167  56.634  48.297  0.00  0.00    +0.000 HD
BRANCH  12  18
ATOM     18  S   UNL     1      -7.216  55.257  52.091  0.00  0.00    +0.000 S 
ATOM     19  O   UNL     1      -7.232  56.339  53.042  0.00  0.00    +0.000 OA
ATOM     20  O   UNL     1      -6.004  54.486  51.886  0.00  0.00    +0.000 OA
BRANCH  18  21
ATOM     21  C   UNL     1      -8.388  54.052  52.633  0.00  0.00    +0.000 A 
ATOM     22  N   UNL     1      -9.756  54.206  52.656  0.00  0.00    +0.000 N 
ATOM     23  C   UNL     1      -8.175  52.778  53.152  0.00  0.00    +0.000 A 
ATOM     24  N   UNL     1     -10.411  53.111  53.122  0.00  0.00    +0.000 NA
ATOM     25  C   UNL     1     -10.589  55.326  52.287  0.00  0.00    +0.000 C 
ATOM     26  C   UNL     1      -9.442  52.255  53.432  0.00  0.00    +0.000 A 
ENDBRANCH  18  21
ENDBRANCH  12  18
ENDBRANCH   1  15
BRANCH   3  27
ATOM     27  C   UNL     1     -11.215  55.358  47.291  0.00  0.00    +0.000 C 
ATOM     28  O   UNL     1     -11.952  56.021  46.571  0.00  0.00    +0.000 OA
BRANCH  27  29
ATOM     29  O   UNL     1     -11.438  55.146  48.617  0.00  0.00    +0.000 OA
BRANCH  29  30
ATOM     30  C   UNL     1     -12.355  54.117  48.994  0.00  0.00    +0.000 C 
ATOM     31  C   UNL     1     -11.602  52.952  49.600  0.00  0.00    +0.000 C 
ENDBRANCH  29  30
ENDBRANCH  27  29
ENDBRANCH   3  27
TORSDOF 6
ENDMDL
MODEL 6
REMARK VINA RESULT:      -6.9      3.179      5.751
REMARK  Name = 
REMARK  10 active torsions:
REMARK  status: ('A' for Active; 'I' for Inactive)
REMARK    1  A    between atoms: S_1  and  N_4
REMARK    2  A    between atoms: S_1  and  C_5
REMARK    3  A    between atoms: N_7  and  C_12
REMARK    4  A    between atoms: N_10  and  C_14
REMARK    5  A    between atoms: C_16  and  C_19
REMARK    6  A    between atoms: C_19  and  O_23
REMARK    7  A    between atoms: O_23  and  C_26
REMARK    8  A    between atoms: C_24  and  C_27
REMARK    9  A    between atoms: C_24  and  C_28
REMARK   10  A    between atoms: C_26  and  C_29
REMARK                            x       y       z     vdW  Elec       q    Type
REMARK                         _______ _______ _______ _____ _____    ______ ____
ROOT
ATOM      1  C   UNL     1     -10.586  54.930  47.117  0.00  0.00    +0.000 A 
ATOM      2  S   UNL     1     -11.706  54.280  46.016  0.00  0.00    +0.000 S 
ATOM      3  C   UNL     1      -9.317  54.408  46.988  0.00  0.00    +0.000 A 
ATOM      4  C   UNL     1     -10.470  53.467  45.167  0.00  0.00    +0.000 A 
ATOM      5  C   UNL     1      -9.238  53.617  45.775  0.00  0.00    +0.000 A 
ATOM      6  C   UNL     1     -10.720  52.684  43.897  0.00  0.00    +0.000 C 
ATOM      7  C   UNL     1      -8.002  52.966  45.222  0.00  0.00    +0.000 C 
ATOM      8  C   UNL     1      -9.541  51.702  43.604  0.00  0.00    +0.000 C 
ATOM      9  C   UNL     1      -8.196  52.445  43.800  0.00  0.00    +0.000 C 
ATOM     10  C   UNL     1      -9.586  51.206  42.147  0.00  0.00    +0.000 C 
ATOM     11  C   UNL     1      -9.634  50.471  44.529  0.00  0.00    +0.000 C 
ENDROOT
BRANCH   1  15
ATOM     12  N   UNL     1     -12.258  56.514  49.877  0.00  0.00    +0.000 N 
ATOM     13  C   UNL     1     -11.782  55.469  49.083  0.00  0.00    +0.000 C 
ATOM     14  O   UNL     1     -11.901  54.304  49.418  0.00  0.00    +0.000 OA
ATOM     15  N   UNL     1     -11.087  55.904  47.971  0.00  0.00    +0.000 N 
ATOM     16  H   UNL     1     -12.096  57.439  49.580  0.00  0.00    +0.000 HD
ATOM     17  H   UNL     1     -10.954  56.863  47.792  0.00  0.00    +0.000 HD
BRANCH  12  18
ATOM     18  S   UNL     1     -13.088  56.275  51.299  0.00  0.00    +0.000 S 
ATOM     19  O   UNL     1     -12.165  56.064  52.385  0.00  0.00    +0.000 OA
ATOM     20  O   UNL     1     -14.083  55.266  50.984  0.00  0.00    +0.000 OA
BRANCH  18  21
ATOM     21  C   UNL     1     -14.054  57.702  51.689  0.00  0.00    +0.000 A 
ATOM     22  N   UNL     1     -14.377  58.722  50.822  0.00  0.00    +0.000 N 
ATOM     23  C   UNL     1     -14.627  58.082  52.898  0.00  0.00    +0.000 A 
ATOM     24  N   UNL     1     -15.135  59.693  51.395  0.00  0.00    +0.000 NA
ATOM     25  C   UNL     1     -14.035  58.930  49.434  0.00  0.00    +0.000 C 
ATOM     26  C   UNL     1     -15.270  59.302  52.659  0.00  0.00    +0.000 A 
ENDBRANCH  18  21
ENDBRANCH  12  18
ENDBRANCH   1  15
BRANCH   3  27
ATOM     27  C   UNL     1      -8.229  54.645  47.950  0.00  0.00    +0.000 C 
ATOM     28  O   UNL     1      -7.092  54.980  47.637  0.00  0.00    +0.000 OA
BRANCH  27  29
ATOM     29  O   UNL     1      -8.649  54.493  49.235  0.00  0.00    +0.000 OA
BRANCH  29  30
ATOM     30  C   UNL     1      -7.752  54.851  50.289  0.00  0.00    +0.000 C 
ATOM     31  C   UNL     1      -8.527  55.444  51.446  0.00  0.00    +0.000 C 
ENDBRANCH  29  30
ENDBRANCH  27  29
ENDBRANCH   3  27
TORSDOF 6
ENDMDL
MODEL 7
REMARK VINA RESULT:      -6.8      2.242      2.821
REMARK  Name = 
REMARK  10 active torsions:
REMARK  status: ('A' for Active; 'I' for Inactive)
REMARK    1  A    between atoms: S_1  and  N_4
REMARK    2  A    between atoms: S_1  and  C_5
REMARK    3  A    between atoms: N_7  and  C_12
REMARK    4  A    between atoms: N_10  and  C_14
REMARK    5  A    between atoms: C_16  and  C_19
REMARK    6  A    between atoms: C_19  and  O_23
REMARK    7  A    between atoms: O_23  and  C_26
REMARK    8  A    between atoms: C_24  and  C_27
REMARK    9  A    between atoms: C_24  and  C_28
REMARK   10  A    between atoms: C_26  and  C_29
REMARK                            x       y       z     vdW  Elec       q    Type
REMARK                         _______ _______ _______ _____ _____    ______ ____
ROOT
ATOM      1  C   UNL     1      -8.597  55.754  49.957  0.00  0.00    +0.000 A 
ATOM      2  S   UNL     1      -8.015  55.991  51.537  0.00  0.00    +0.000 S 
ATOM      3  C   UNL     1      -7.941  54.756  49.270  0.00  0.00    +0.000 A 
ATOM      4  C   UNL     1      -7.039  54.595  51.436  0.00  0.00    +0.000 A 
ATOM      5  C   UNL     1      -7.089  54.017  50.182  0.00  0.00    +0.000 A 
ATOM      6  C   UNL     1      -6.227  54.072  52.600  0.00  0.00    +0.000 C 
ATOM      7  C   UNL     1      -6.287  52.791  49.847  0.00  0.00    +0.000 C 
ATOM      8  C   UNL     1      -5.115  53.090  52.110  0.00  0.00    +0.000 C 
ATOM      9  C   UNL     1      -5.722  52.100  51.085  0.00  0.00    +0.000 C 
ATOM     10  C   UNL     1      -4.557  52.260  53.279  0.00  0.00    +0.000 C 
ATOM     11  C   UNL     1      -3.946  53.881  51.488  0.00  0.00    +0.000 C 
ENDROOT
BRANCH   1  15
ATOM     12  N   UNL     1     -11.933  56.966  49.387  0.00  0.00    +0.000 N 
ATOM     13  C   UNL     1     -10.932  56.085  49.802  0.00  0.00    +0.000 C 
ATOM     14  O   UNL     1     -11.193  55.047  50.381  0.00  0.00    +0.000 OA
ATOM     15  N   UNL     1      -9.657  56.570  49.585  0.00  0.00    +0.000 N 
ATOM     16  H   UNL     1     -11.664  57.813  48.963  0.00  0.00    +0.000 HD
ATOM     17  H   UNL     1      -9.507  57.457  49.182  0.00  0.00    +0.000 HD
BRANCH  12  18
ATOM     18  S   UNL     1     -13.556  56.655  49.573  0.00  0.00    +0.000 S 
ATOM     19  O   UNL     1     -13.773  55.246  49.784  0.00  0.00    +0.000 OA
ATOM     20  O   UNL     1     -14.194  57.329  48.456  0.00  0.00    +0.000 OA
BRANCH  18  21
ATOM     21  C   UNL     1     -14.184  57.510  50.986  0.00  0.00    +0.000 A 
ATOM     22  N   UNL     1     -14.254  58.876  51.140  0.00  0.00    +0.000 N 
ATOM     23  C   UNL     1     -14.679  57.001  52.182  0.00  0.00    +0.000 A 
ATOM     24  N   UNL     1     -14.785  59.255  52.331  0.00  0.00    +0.000 NA
ATOM     25  C   UNL     1     -13.849  59.950  50.263  0.00  0.00    +0.000 C 
ATOM     26  C   UNL     1     -15.028  58.110  52.962  0.00  0.00    +0.000 A 
ENDBRANCH  18  21
ENDBRANCH  12  18
ENDBRANCH   1  15
BRANCH   3  27
ATOM     27  C   UNL     1      -8.109  54.502  47.830  0.00  0.00    +0.000 C 
ATOM     28  O   UNL     1      -7.246  54.715  46.986  0.00  0.00    +0.000 OA
BRANCH  27  29
ATOM     29  O   UNL     1      -9.324  53.956  47.552  0.00  0.00    +0.000 OA
BRANCH  29  30
ATOM     30  C   UNL     1      -9.887  54.179  46.257  0.00  0.00    +0.000 C 
ATOM     31  C   UNL     1     -11.133  55.030  46.376  0.00  0.00    +0.000 C 
ENDBRANCH  29  30
ENDBRANCH  27  29
ENDBRANCH   3  27
TORSDOF 6
ENDMDL
MODEL 8
REMARK VINA RESULT:      -6.8      1.499      2.180
REMARK  Name = 
REMARK  10 active torsions:
REMARK  status: ('A' for Active; 'I' for Inactive)
REMARK    1  A    between atoms: S_1  and  N_4
REMARK    2  A    between atoms: S_1  and  C_5
REMARK    3  A    between atoms: N_7  and  C_12
REMARK    4  A    between atoms: N_10  and  C_14
REMARK    5  A    between atoms: C_16  and  C_19
REMARK    6  A    between atoms: C_19  and  O_23
REMARK    7  A    between atoms: O_23  and  C_26
REMARK    8  A    between atoms: C_24  and  C_27
REMARK    9  A    between atoms: C_24  and  C_28
REMARK   10  A    between atoms: C_26  and  C_29
REMARK                            x       y       z     vdW  Elec       q    Type
REMARK                         _______ _______ _______ _____ _____    ______ ____
ROOT
ATOM      1  C   UNL     1     -10.790  53.356  51.804  0.00  0.00    +0.000 A 
ATOM      2  S   UNL     1     -10.082  53.386  53.349  0.00  0.00    +0.000 S 
ATOM      3  C   UNL     1      -9.908  53.026  50.798  0.00  0.00    +0.000 A 
ATOM      4  C   UNL     1      -8.634  52.711  52.750  0.00  0.00    +0.000 A 
ATOM      5  C   UNL     1      -8.664  52.556  51.377  0.00  0.00    +0.000 A 
ATOM      6  C   UNL     1      -7.471  52.333  53.640  0.00  0.00    +0.000 C 
ATOM      7  C   UNL     1      -7.488  52.006  50.621  0.00  0.00    +0.000 C 
ATOM      8  C   UNL     1      -6.158  52.177  52.809  0.00  0.00    +0.000 C 
ATOM      9  C   UNL     1      -6.455  51.349  51.533  0.00  0.00    +0.000 C 
ATOM     10  C   UNL     1      -5.084  51.420  53.610  0.00  0.00    +0.000 C 
ATOM     11  C   UNL     1      -5.591  53.565  52.447  0.00  0.00    +0.000 C 
ENDROOT
BRANCH   1  15
ATOM     12  N   UNL     1     -13.894  55.160  51.623  0.00  0.00    +0.000 N 
ATOM     13  C   UNL     1     -12.511  54.967  51.641  0.00  0.00    +0.000 C 
ATOM     14  O   UNL     1     -11.734  55.888  51.464  0.00  0.00    +0.000 OA
ATOM     15  N   UNL     1     -12.149  53.640  51.766  0.00  0.00    +0.000 N 
ATOM     16  H   UNL     1     -14.478  54.373  51.727  0.00  0.00    +0.000 HD
ATOM     17  H   UNL     1     -12.825  52.927  51.826  0.00  0.00    +0.000 HD
BRANCH  12  18
ATOM     18  S   UNL     1     -14.605  56.652  51.437  0.00  0.00    +0.000 S 
ATOM     19  O   UNL     1     -14.047  57.590  52.377  0.00  0.00    +0.000 OA
ATOM     20  O   UNL     1     -16.032  56.386  51.434  0.00  0.00    +0.000 OA
BRANCH  18  21
ATOM     21  C   UNL     1     -14.297  57.276  49.813  0.00  0.00    +0.000 A 
ATOM     22  N   UNL     1     -14.275  58.604  49.447  0.00  0.00    +0.000 N 
ATOM     23  C   UNL     1     -14.057  56.588  48.628  0.00  0.00    +0.000 A 
ATOM     24  N   UNL     1     -14.010  58.792  48.128  0.00  0.00    +0.000 NA
ATOM     25  C   UNL     1     -14.500  59.803  50.220  0.00  0.00    +0.000 C 
ATOM     26  C   UNL     1     -13.892  57.562  47.637  0.00  0.00    +0.000 A 
ENDBRANCH  18  21
ENDBRANCH  12  18
ENDBRANCH   1  15
BRANCH   3  27
ATOM     27  C   UNL     1     -10.218  53.138  49.363  0.00  0.00    +0.000 C 
ATOM     28  O   UNL     1     -10.543  52.194  48.652  0.00  0.00    +0.000 OA
BRANCH  27  29
ATOM     29  O   UNL     1     -10.144  54.425  48.930  0.00  0.00    +0.000 OA
BRANCH  29  30
ATOM     30  C   UNL     1      -8.866  55.065  48.920  0.00  0.00    +0.000 C 
ATOM     31  C   UNL     1      -8.997  56.485  49.429  0.00  0.00    +0.000 C 
ENDBRANCH  29  30
ENDBRANCH  27  29
ENDBRANCH   3  27
TORSDOF 6
ENDMDL
MODEL 9
REMARK VINA RESULT:      -6.6      1.904      2.321
REMARK  Name = 
REMARK  10 active torsions:
REMARK  status: ('A' for Active; 'I' for Inactive)
REMARK    1  A    between atoms: S_1  and  N_4
REMARK    2  A    between atoms: S_1  and  C_5
REMARK    3  A    between atoms: N_7  and  C_12
REMARK    4  A    between atoms: N_10  and  C_14
REMARK    5  A    between atoms: C_16  and  C_19
REMARK    6  A    between atoms: C_19  and  O_23
REMARK    7  A    between atoms: O_23  and  C_26
REMARK    8  A    between atoms: C_24  and  C_27
REMARK    9  A    between atoms: C_24  and  C_28
REMARK   10  A    between atoms: C_26  and  C_29
REMARK                            x       y       z     vdW  Elec       q    Type
REMARK                         _______ _______ _______ _____ _____    ______ ____
ROOT
ATOM      1  C   UNL     1     -11.433  53.389  50.957  0.00  0.00    +0.000 A 
ATOM      2  S   UNL     1     -10.348  53.378  52.266  0.00  0.00    +0.000 S 
ATOM      3  C   UNL     1     -10.881  52.937  49.778  0.00  0.00    +0.000 A 
ATOM      4  C   UNL     1      -9.182  52.530  51.353  0.00  0.00    +0.000 A 
ATOM      5  C   UNL     1      -9.584  52.345  50.044  0.00  0.00    +0.000 A 
ATOM      6  C   UNL     1      -7.873  52.045  51.935  0.00  0.00    +0.000 C 
ATOM      7  C   UNL     1      -8.707  51.647  49.042  0.00  0.00    +0.000 C 
ATOM      8  C   UNL     1      -6.844  51.721  50.805  0.00  0.00    +0.000 C 
ATOM      9  C   UNL     1      -7.546  50.901  49.694  0.00  0.00    +0.000 C 
ATOM     10  C   UNL     1      -5.682  50.868  51.345  0.00  0.00    +0.000 C 
ATOM     11  C   UNL     1      -6.252  53.027  50.238  0.00  0.00    +0.000 C 
ENDROOT
BRANCH   1  15
ATOM     12  N   UNL     1     -14.197  55.506  51.848  0.00  0.00    +0.000 N 
ATOM     13  C   UNL     1     -12.877  55.162  51.553  0.00  0.00    +0.000 C 
ATOM     14  O   UNL     1     -11.997  56.001  51.481  0.00  0.00    +0.000 OA
ATOM     15  N   UNL     1     -12.718  53.823  51.253  0.00  0.00    +0.000 N 
ATOM     16  H   UNL     1     -14.877  54.794  51.849  0.00  0.00    +0.000 HD
ATOM     17  H   UNL     1     -13.484  53.204  51.250  0.00  0.00    +0.000 HD
BRANCH  12  18
ATOM     18  S   UNL     1     -14.678  57.060  52.199  0.00  0.00    +0.000 S 
ATOM     19  O   UNL     1     -13.982  57.547  53.362  0.00  0.00    +0.000 OA
ATOM     20  O   UNL     1     -16.129  57.011  52.188  0.00  0.00    +0.000 OA
BRANCH  18  21
ATOM     21  C   UNL     1     -14.290  58.138  50.854  0.00  0.00    +0.000 A 
ATOM     22  N   UNL     1     -14.297  57.801  49.518  0.00  0.00    +0.000 N 
ATOM     23  C   UNL     1     -13.887  59.469  50.872  0.00  0.00    +0.000 A 
ATOM     24  N   UNL     1     -13.958  58.833  48.703  0.00  0.00    +0.000 NA
ATOM     25  C   UNL     1     -14.586  56.549  48.859  0.00  0.00    +0.000 C 
ATOM     26  C   UNL     1     -13.698  59.838  49.535  0.00  0.00    +0.000 A 
ENDBRANCH  18  21
ENDBRANCH  12  18
ENDBRANCH   1  15
BRANCH   3  27
ATOM     27  C   UNL     1     -11.540  53.047  48.466  0.00  0.00    +0.000 C 
ATOM     28  O   UNL     1     -11.669  52.117  47.679  0.00  0.00    +0.000 OA
BRANCH  27  29
ATOM     29  O   UNL     1     -12.031  54.298  48.252  0.00  0.00    +0.000 OA
BRANCH  29  30
ATOM     30  C   UNL     1     -11.241  55.215  47.492  0.00  0.00    +0.000 C 
ATOM     31  C   UNL     1     -11.751  55.277  46.068  0.00  0.00    +0.000 C 
ENDBRANCH  29  30
ENDBRANCH  27  29
ENDBRANCH   3  27
TORSDOF 6
ENDMDL
