MODEL 1
REMARK VINA RESULT:      -8.2      0.000      0.000
REMARK  Name = 
REMARK  11 active torsions:
REMARK  status: ('A' for Active; 'I' for Inactive)
REMARK    1  A    between atoms: S_1  and  N_4
REMARK    2  A    between atoms: S_1  and  C_5
REMARK    3  A    between atoms: C_7  and  O_11
REMARK    4  A    between atoms: N_10  and  C_14
REMARK    5  A    between atoms: O_11  and  C_15
REMARK    6  A    between atoms: C_18  and  C_24
REMARK    7  A    between atoms: C_24  and  O_28
REMARK    8  A    between atoms: O_28  and  C_31
REMARK    9  A    between atoms: C_29  and  C_32
REMARK   10  A    between atoms: C_29  and  C_33
REMARK   11  A    between atoms: C_31  and  C_34
REMARK                            x       y       z     vdW  Elec       q    Type
REMARK                         _______ _______ _______ _____ _____    ______ ____
ROOT
ATOM      1  N   UNL     1     -14.172  55.248  51.092  0.00  0.00    +0.000 N 
ATOM      2  C   UNL     1     -12.907  55.299  51.684  0.00  0.00    +0.000 C 
ATOM      3  O   UNL     1     -12.587  56.240  52.383  0.00  0.00    +0.000 OA
ATOM      4  N   UNL     1     -12.106  54.257  51.270  0.00  0.00    +0.000 N 
ATOM      5  H   UNL     1     -14.377  54.466  50.530  0.00  0.00    +0.000 HD
ATOM      6  H   UNL     1     -12.461  53.659  50.574  0.00  0.00    +0.000 HD
ENDROOT
BRANCH   4   7
ATOM      7  C   UNL     1     -10.825  53.986  51.759  0.00  0.00    +0.000 A 
ATOM      8  S   UNL     1     -10.636  52.949  53.098  0.00  0.00    +0.000 S 
ATOM      9  C   UNL     1      -9.604  54.409  51.239  0.00  0.00    +0.000 A 
ATOM     10  C   UNL     1      -8.950  53.027  53.025  0.00  0.00    +0.000 A 
ATOM     11  C   UNL     1      -8.504  53.785  51.960  0.00  0.00    +0.000 A 
ATOM     12  C   UNL     1      -8.085  52.290  54.011  0.00  0.00    +0.000 C 
ATOM     13  C   UNL     1      -7.034  53.930  51.675  0.00  0.00    +0.000 C 
ATOM     14  C   UNL     1      -6.608  52.769  53.929  0.00  0.00    +0.000 C 
ATOM     15  C   UNL     1      -6.193  52.905  52.442  0.00  0.00    +0.000 C 
ATOM     16  C   UNL     1      -5.684  51.733  54.591  0.00  0.00    +0.000 C 
ATOM     17  C   UNL     1      -6.439  54.110  54.672  0.00  0.00    +0.000 C 
BRANCH   9  18
ATOM     18  C   UNL     1      -9.479  55.342  50.113  0.00  0.00    +0.000 C 
ATOM     19  O   UNL     1      -9.200  56.529  50.255  0.00  0.00    +0.000 OA
BRANCH  18  20
ATOM     20  O   UNL     1      -9.733  54.742  48.917  0.00  0.00    +0.000 OA
BRANCH  20  21
ATOM     21  C   UNL     1      -8.766  54.835  47.864  0.00  0.00    +0.000 C 
ATOM     22  C   UNL     1      -9.462  55.159  46.557  0.00  0.00    +0.000 C 
ENDBRANCH  20  21
ENDBRANCH  18  20
ENDBRANCH   9  18
ENDBRANCH   4   7
BRANCH   1  23
ATOM     23  S   UNL     1     -15.362  56.406  51.260  0.00  0.00    +0.000 S 
ATOM     24  O   UNL     1     -15.550  56.723  52.655  0.00  0.00    +0.000 OA
ATOM     25  O   UNL     1     -16.433  55.822  50.478  0.00  0.00    +0.000 OA
BRANCH  23  26
ATOM     26  C   UNL     1     -14.804  57.861  50.394  0.00  0.00    +0.000 A 
ATOM     27  C   UNL     1     -14.232  57.794  49.111  0.00  0.00    +0.000 A 
ATOM     28  C   UNL     1     -15.049  59.119  50.971  0.00  0.00    +0.000 A 
ATOM     29  C   UNL     1     -13.965  58.992  48.421  0.00  0.00    +0.000 A 
ATOM     30  C   UNL     1     -14.799  60.297  50.268  0.00  0.00    +0.000 A 
ATOM     31  C   UNL     1     -14.256  60.236  48.991  0.00  0.00    +0.000 A 
BRANCH  27  32
ATOM     32  O   UNL     1     -14.145  56.659  48.353  0.00  0.00    +0.000 OA
BRANCH  32  33
ATOM     33  C   UNL     1     -12.843  56.211  47.990  0.00  0.00    +0.000 C 
ATOM     34  F   UNL     1     -12.523  56.506  46.720  0.00  0.00    +0.000 F 
ATOM     35  F   UNL     1     -11.950  56.805  48.812  0.00  0.00    +0.000 F 
ATOM     36  F   UNL     1     -12.736  54.874  48.150  0.00  0.00    +0.000 F 
ENDBRANCH  32  33
ENDBRANCH  27  32
ENDBRANCH  23  26
ENDBRANCH   1  23
TORSDOF 8
ENDMDL
MODEL 2
REMARK VINA RESULT:      -7.3      3.266      8.147
REMARK  Name = 
REMARK  11 active torsions:
REMARK  status: ('A' for Active; 'I' for Inactive)
REMARK    1  A    between atoms: S_1  and  N_4
REMARK    2  A    between atoms: S_1  and  C_5
REMARK    3  A    between atoms: C_7  and  O_11
REMARK    4  A    between atoms: N_10  and  C_14
REMARK    5  A    between atoms: O_11  and  C_15
REMARK    6  A    between atoms: C_18  and  C_24
REMARK    7  A    between atoms: C_24  and  O_28
REMARK    8  A    between atoms: O_28  and  C_31
REMARK    9  A    between atoms: C_29  and  C_32
REMARK   10  A    between atoms: C_29  and  C_33
REMARK   11  A    between atoms: C_31  and  C_34
REMARK                            x       y       z     vdW  Elec       q    Type
REMARK                         _______ _______ _______ _____ _____    ______ ____
ROOT
ATOM      1  N   UNL     1      -7.879  52.913  49.987  0.00  0.00    +0.000 N 
ATOM      2  C   UNL     1      -8.649  54.046  50.264  0.00  0.00    +0.000 C 
ATOM      3  O   UNL     1      -8.122  55.124  50.453  0.00  0.00    +0.000 OA
ATOM      4  N   UNL     1      -9.984  53.735  50.408  0.00  0.00    +0.000 N 
ATOM      5  H   UNL     1      -8.357  52.064  49.850  0.00  0.00    +0.000 HD
ATOM      6  H   UNL     1     -10.235  52.784  50.380  0.00  0.00    +0.000 HD
ENDROOT
BRANCH   4   7
ATOM      7  C   UNL     1     -11.010  54.666  50.593  0.00  0.00    +0.000 A 
ATOM      8  S   UNL     1     -11.483  55.097  52.172  0.00  0.00    +0.000 S 
ATOM      9  C   UNL     1     -11.696  55.387  49.618  0.00  0.00    +0.000 A 
ATOM     10  C   UNL     1     -12.594  56.242  51.615  0.00  0.00    +0.000 A 
ATOM     11  C   UNL     1     -12.584  56.357  50.239  0.00  0.00    +0.000 A 
ATOM     12  C   UNL     1     -13.437  57.048  52.566  0.00  0.00    +0.000 C 
ATOM     13  C   UNL     1     -13.455  57.368  49.542  0.00  0.00    +0.000 C 
ATOM     14  C   UNL     1     -14.581  57.784  51.814  0.00  0.00    +0.000 C 
ATOM     15  C   UNL     1     -14.022  58.409  50.511  0.00  0.00    +0.000 C 
ATOM     16  C   UNL     1     -15.136  58.921  52.690  0.00  0.00    +0.000 C 
ATOM     17  C   UNL     1     -15.734  56.807  51.506  0.00  0.00    +0.000 C 
BRANCH   9  18
ATOM     18  C   UNL     1     -11.514  55.182  48.176  0.00  0.00    +0.000 C 
ATOM     19  O   UNL     1     -12.346  54.621  47.470  0.00  0.00    +0.000 OA
BRANCH  18  20
ATOM     20  O   UNL     1     -10.316  55.659  47.735  0.00  0.00    +0.000 OA
BRANCH  20  21
ATOM     21  C   UNL     1      -9.734  55.106  46.549  0.00  0.00    +0.000 C 
ATOM     22  C   UNL     1      -8.230  55.008  46.716  0.00  0.00    +0.000 C 
ENDBRANCH  20  21
ENDBRANCH  18  20
ENDBRANCH   9  18
ENDBRANCH   4   7
BRANCH   1  23
ATOM     23  S   UNL     1      -6.215  52.885  49.872  0.00  0.00    +0.000 S 
ATOM     24  O   UNL     1      -5.771  53.839  48.885  0.00  0.00    +0.000 OA
ATOM     25  O   UNL     1      -5.970  51.467  49.699  0.00  0.00    +0.000 OA
BRANCH  23  26
ATOM     26  C   UNL     1      -5.570  53.343  51.469  0.00  0.00    +0.000 A 
ATOM     27  C   UNL     1      -6.140  52.878  52.668  0.00  0.00    +0.000 A 
ATOM     28  C   UNL     1      -4.389  54.105  51.522  0.00  0.00    +0.000 A 
ATOM     29  C   UNL     1      -5.483  53.148  53.884  0.00  0.00    +0.000 A 
ATOM     30  C   UNL     1      -3.738  54.345  52.731  0.00  0.00    +0.000 A 
ATOM     31  C   UNL     1      -4.285  53.867  53.915  0.00  0.00    +0.000 A 
BRANCH  27  32
ATOM     32  O   UNL     1      -7.148  51.957  52.747  0.00  0.00    +0.000 OA
BRANCH  32  33
ATOM     33  C   UNL     1      -8.309  52.318  53.489  0.00  0.00    +0.000 C 
ATOM     34  F   UNL     1      -8.496  53.645  53.555  0.00  0.00    +0.000 F 
ATOM     35  F   UNL     1      -9.382  51.758  52.888  0.00  0.00    +0.000 F 
ATOM     36  F   UNL     1      -8.238  51.840  54.749  0.00  0.00    +0.000 F 
ENDBRANCH  32  33
ENDBRANCH  27  32
ENDBRANCH  23  26
ENDBRANCH   1  23
TORSDOF 8
ENDMDL
MODEL 3
REMARK VINA RESULT:      -7.0      3.046      4.507
REMARK  Name = 
REMARK  11 active torsions:
REMARK  status: ('A' for Active; 'I' for Inactive)
REMARK    1  A    between atoms: S_1  and  N_4
REMARK    2  A    between atoms: S_1  and  C_5
REMARK    3  A    between atoms: C_7  and  O_11
REMARK    4  A    between atoms: N_10  and  C_14
REMARK    5  A    between atoms: O_11  and  C_15
REMARK    6  A    between atoms: C_18  and  C_24
REMARK    7  A    between atoms: C_24  and  O_28
REMARK    8  A    between atoms: O_28  and  C_31
REMARK    9  A    between atoms: C_29  and  C_32
REMARK   10  A    between atoms: C_29  and  C_33
REMARK   11  A    between atoms: C_31  and  C_34
REMARK                            x       y       z     vdW  Elec       q    Type
REMARK                         _______ _______ _______ _____ _____    ______ ____
ROOT
ATOM      1  N   UNL     1     -12.317  56.614  49.184  0.00  0.00    +0.000 N 
ATOM      2  C   UNL     1     -11.240  55.728  49.269  0.00  0.00    +0.000 C 
ATOM      3  O   UNL     1     -11.396  54.600  49.692  0.00  0.00    +0.000 OA
ATOM      4  N   UNL     1     -10.048  56.339  48.946  0.00  0.00    +0.000 N 
ATOM      5  H   UNL     1     -12.133  57.518  48.840  0.00  0.00    +0.000 HD
ATOM      6  H   UNL     1     -10.066  57.308  48.773  0.00  0.00    +0.000 HD
ENDROOT
BRANCH   4   7
ATOM      7  C   UNL     1      -8.814  55.691  48.847  0.00  0.00    +0.000 A 
ATOM      8  S   UNL     1      -8.425  54.831  47.429  0.00  0.00    +0.000 S 
ATOM      9  C   UNL     1      -7.765  55.703  49.764  0.00  0.00    +0.000 A 
ATOM     10  C   UNL     1      -6.872  54.458  47.982  0.00  0.00    +0.000 A 
ATOM     11  C   UNL     1      -6.604  55.022  49.214  0.00  0.00    +0.000 A 
ATOM     12  C   UNL     1      -5.918  53.638  47.156  0.00  0.00    +0.000 C 
ATOM     13  C   UNL     1      -5.253  54.866  49.857  0.00  0.00    +0.000 C 
ATOM     14  C   UNL     1      -4.699  53.174  48.003  0.00  0.00    +0.000 C 
ATOM     15  C   UNL     1      -4.198  54.356  48.871  0.00  0.00    +0.000 C 
ATOM     16  C   UNL     1      -3.552  52.742  47.074  0.00  0.00    +0.000 C 
ATOM     17  C   UNL     1      -5.088  51.969  48.883  0.00  0.00    +0.000 C 
BRANCH   9  18
ATOM     18  C   UNL     1      -7.849  56.335  51.087  0.00  0.00    +0.000 C 
ATOM     19  O   UNL     1      -7.457  57.476  51.310  0.00  0.00    +0.000 OA
BRANCH  18  20
ATOM     20  O   UNL     1      -8.382  55.500  52.022  0.00  0.00    +0.000 OA
BRANCH  20  21
ATOM     21  C   UNL     1      -7.508  54.762  52.884  0.00  0.00    +0.000 C 
ATOM     22  C   UNL     1      -7.487  55.400  54.259  0.00  0.00    +0.000 C 
ENDBRANCH  20  21
ENDBRANCH  18  20
ENDBRANCH   9  18
ENDBRANCH   4   7
BRANCH   1  23
ATOM     23  S   UNL     1     -13.889  56.263  49.618  0.00  0.00    +0.000 S 
ATOM     24  O   UNL     1     -14.008  54.867  49.961  0.00  0.00    +0.000 OA
ATOM     25  O   UNL     1     -14.620  56.819  48.496  0.00  0.00    +0.000 OA
BRANCH  23  26
ATOM     26  C   UNL     1     -14.274  57.258  51.047  0.00  0.00    +0.000 A 
ATOM     27  C   UNL     1     -13.938  58.621  51.122  0.00  0.00    +0.000 A 
ATOM     28  C   UNL     1     -15.033  56.681  52.080  0.00  0.00    +0.000 A 
ATOM     29  C   UNL     1     -14.414  59.381  52.207  0.00  0.00    +0.000 A 
ATOM     30  C   UNL     1     -15.517  57.450  53.137  0.00  0.00    +0.000 A 
ATOM     31  C   UNL     1     -15.208  58.803  53.203  0.00  0.00    +0.000 A 
BRANCH  27  32
ATOM     32  O   UNL     1     -13.400  59.350  50.097  0.00  0.00    +0.000 OA
BRANCH  32  33
ATOM     33  C   UNL     1     -14.277  60.209  49.374  0.00  0.00    +0.000 C 
ATOM     34  F   UNL     1     -15.455  60.392  49.989  0.00  0.00    +0.000 F 
ATOM     35  F   UNL     1     -13.669  61.407  49.234  0.00  0.00    +0.000 F 
ATOM     36  F   UNL     1     -14.518  59.715  48.140  0.00  0.00    +0.000 F 
ENDBRANCH  32  33
ENDBRANCH  27  32
ENDBRANCH  23  26
ENDBRANCH   1  23
TORSDOF 8
ENDMDL
MODEL 4
REMARK VINA RESULT:      -7.0      2.845      3.851
REMARK  Name = 
REMARK  11 active torsions:
REMARK  status: ('A' for Active; 'I' for Inactive)
REMARK    1  A    between atoms: S_1  and  N_4
REMARK    2  A    between atoms: S_1  and  C_5
REMARK    3  A    between atoms: C_7  and  O_11
REMARK    4  A    between atoms: N_10  and  C_14
REMARK    5  A    between atoms: O_11  and  C_15
REMARK    6  A    between atoms: C_18  and  C_24
REMARK    7  A    between atoms: C_24  and  O_28
REMARK    8  A    between atoms: O_28  and  C_31
REMARK    9  A    between atoms: C_29  and  C_32
REMARK   10  A    between atoms: C_29  and  C_33
REMARK   11  A    between atoms: C_31  and  C_34
REMARK                            x       y       z     vdW  Elec       q    Type
REMARK                         _______ _______ _______ _____ _____    ______ ____
ROOT
ATOM      1  N   UNL     1     -11.468  56.087  50.163  0.00  0.00    +0.000 N 
ATOM      2  C   UNL     1     -10.484  55.095  50.135  0.00  0.00    +0.000 C 
ATOM      3  O   UNL     1     -10.523  54.160  50.910  0.00  0.00    +0.000 OA
ATOM      4  N   UNL     1      -9.475  55.399  49.246  0.00  0.00    +0.000 N 
ATOM      5  H   UNL     1     -11.384  56.825  49.517  0.00  0.00    +0.000 HD
ATOM      6  H   UNL     1      -9.510  56.277  48.802  0.00  0.00    +0.000 HD
ENDROOT
BRANCH   4   7
ATOM      7  C   UNL     1      -8.406  54.559  48.928  0.00  0.00    +0.000 A 
ATOM      8  S   UNL     1      -7.099  54.409  50.011  0.00  0.00    +0.000 S 
ATOM      9  C   UNL     1      -8.275  53.722  47.821  0.00  0.00    +0.000 A 
ATOM     10  C   UNL     1      -6.335  53.242  49.057  0.00  0.00    +0.000 A 
ATOM     11  C   UNL     1      -7.076  52.907  47.942  0.00  0.00    +0.000 A 
ATOM     12  C   UNL     1      -5.016  52.639  49.458  0.00  0.00    +0.000 C 
ATOM     13  C   UNL     1      -6.605  51.839  46.993  0.00  0.00    +0.000 C 
ATOM     14  C   UNL     1      -4.381  51.845  48.282  0.00  0.00    +0.000 C 
ATOM     15  C   UNL     1      -5.475  50.994  47.587  0.00  0.00    +0.000 C 
ATOM     16  C   UNL     1      -3.300  50.891  48.817  0.00  0.00    +0.000 C 
ATOM     17  C   UNL     1      -3.718  52.813  47.280  0.00  0.00    +0.000 C 
BRANCH   9  18
ATOM     18  C   UNL     1      -9.237  53.685  46.712  0.00  0.00    +0.000 C 
ATOM     19  O   UNL     1      -9.164  54.427  45.738  0.00  0.00    +0.000 OA
BRANCH  18  20
ATOM     20  O   UNL     1     -10.216  52.760  46.912  0.00  0.00    +0.000 OA
BRANCH  20  21
ATOM     21  C   UNL     1     -11.571  53.195  47.074  0.00  0.00    +0.000 C 
ATOM     22  C   UNL     1     -12.198  52.488  48.259  0.00  0.00    +0.000 C 
ENDBRANCH  20  21
ENDBRANCH  18  20
ENDBRANCH   9  18
ENDBRANCH   4   7
BRANCH   1  23
ATOM     23  S   UNL     1     -12.772  56.121  51.203  0.00  0.00    +0.000 S 
ATOM     24  O   UNL     1     -12.318  56.020  52.568  0.00  0.00    +0.000 OA
ATOM     25  O   UNL     1     -13.620  55.099  50.622  0.00  0.00    +0.000 OA
BRANCH  23  26
ATOM     26  C   UNL     1     -13.591  57.687  50.967  0.00  0.00    +0.000 A 
ATOM     27  C   UNL     1     -13.532  58.386  49.748  0.00  0.00    +0.000 A 
ATOM     28  C   UNL     1     -14.409  58.177  52.000  0.00  0.00    +0.000 A 
ATOM     29  C   UNL     1     -14.333  59.532  49.581  0.00  0.00    +0.000 A 
ATOM     30  C   UNL     1     -15.214  59.301  51.813  0.00  0.00    +0.000 A 
ATOM     31  C   UNL     1     -15.177  59.981  50.602  0.00  0.00    +0.000 A 
BRANCH  27  32
ATOM     32  O   UNL     1     -12.958  57.910  48.602  0.00  0.00    +0.000 OA
BRANCH  32  33
ATOM     33  C   UNL     1     -13.809  57.255  47.666  0.00  0.00    +0.000 C 
ATOM     34  F   UNL     1     -14.881  56.688  48.241  0.00  0.00    +0.000 F 
ATOM     35  F   UNL     1     -14.231  58.173  46.769  0.00  0.00    +0.000 F 
ATOM     36  F   UNL     1     -13.134  56.295  46.998  0.00  0.00    +0.000 F 
ENDBRANCH  32  33
ENDBRANCH  27  32
ENDBRANCH  23  26
ENDBRANCH   1  23
TORSDOF 8
ENDMDL
MODEL 5
REMARK VINA RESULT:      -7.0      3.433      8.520
REMARK  Name = 
REMARK  11 active torsions:
REMARK  status: ('A' for Active; 'I' for Inactive)
REMARK    1  A    between atoms: S_1  and  N_4
REMARK    2  A    between atoms: S_1  and  C_5
REMARK    3  A    between atoms: C_7  and  O_11
REMARK    4  A    between atoms: N_10  and  C_14
REMARK    5  A    between atoms: O_11  and  C_15
REMARK    6  A    between atoms: C_18  and  C_24
REMARK    7  A    between atoms: C_24  and  O_28
REMARK    8  A    between atoms: O_28  and  C_31
REMARK    9  A    between atoms: C_29  and  C_32
REMARK   10  A    between atoms: C_29  and  C_33
REMARK   11  A    between atoms: C_31  and  C_34
REMARK                            x       y       z     vdW  Elec       q    Type
REMARK                         _______ _______ _______ _____ _____    ______ ____
ROOT
ATOM      1  N   UNL     1      -7.571  53.534  50.029  0.00  0.00    +0.000 N 
ATOM      2  C   UNL     1      -8.446  54.578  50.344  0.00  0.00    +0.000 C 
ATOM      3  O   UNL     1      -8.022  55.681  50.623  0.00  0.00    +0.000 OA
ATOM      4  N   UNL     1      -9.754  54.147  50.408  0.00  0.00    +0.000 N 
ATOM      5  H   UNL     1      -7.968  52.659  49.817  0.00  0.00    +0.000 HD
ATOM      6  H   UNL     1      -9.920  53.182  50.308  0.00  0.00    +0.000 HD
ENDROOT
BRANCH   4   7
ATOM      7  C   UNL     1     -10.863  54.973  50.606  0.00  0.00    +0.000 A 
ATOM      8  S   UNL     1     -11.370  55.339  52.191  0.00  0.00    +0.000 S 
ATOM      9  C   UNL     1     -11.617  55.638  49.642  0.00  0.00    +0.000 A 
ATOM     10  C   UNL     1     -12.587  56.379  51.651  0.00  0.00    +0.000 A 
ATOM     11  C   UNL     1     -12.592  56.512  50.276  0.00  0.00    +0.000 A 
ATOM     12  C   UNL     1     -13.499  57.090  52.613  0.00  0.00    +0.000 C 
ATOM     13  C   UNL     1     -13.557  57.443  49.593  0.00  0.00    +0.000 C 
ATOM     14  C   UNL     1     -14.711  57.724  51.873  0.00  0.00    +0.000 C 
ATOM     15  C   UNL     1     -14.217  58.415  50.576  0.00  0.00    +0.000 C 
ATOM     16  C   UNL     1     -15.368  58.792  52.763  0.00  0.00    +0.000 C 
ATOM     17  C   UNL     1     -15.767  56.645  51.554  0.00  0.00    +0.000 C 
BRANCH   9  18
ATOM     18  C   UNL     1     -11.421  55.468  48.196  0.00  0.00    +0.000 C 
ATOM     19  O   UNL     1     -12.324  55.141  47.433  0.00  0.00    +0.000 OA
BRANCH  18  20
ATOM     20  O   UNL     1     -10.130  55.689  47.823  0.00  0.00    +0.000 OA
BRANCH  20  21
ATOM     21  C   UNL     1      -9.573  54.937  46.739  0.00  0.00    +0.000 C 
ATOM     22  C   UNL     1      -8.060  55.022  46.781  0.00  0.00    +0.000 C 
ENDBRANCH  20  21
ENDBRANCH  18  20
ENDBRANCH   9  18
ENDBRANCH   4   7
BRANCH   1  23
ATOM     23  S   UNL     1      -5.908  53.653  49.986  0.00  0.00    +0.000 S 
ATOM     24  O   UNL     1      -5.507  55.034  50.103  0.00  0.00    +0.000 OA
ATOM     25  O   UNL     1      -5.603  52.888  48.794  0.00  0.00    +0.000 OA
BRANCH  23  26
ATOM     26  C   UNL     1      -5.280  52.737  51.380  0.00  0.00    +0.000 A 
ATOM     27  C   UNL     1      -5.678  53.016  52.700  0.00  0.00    +0.000 A 
ATOM     28  C   UNL     1      -4.446  51.632  51.135  0.00  0.00    +0.000 A 
ATOM     29  C   UNL     1      -5.268  52.150  53.732  0.00  0.00    +0.000 A 
ATOM     30  C   UNL     1      -4.066  50.770  52.164  0.00  0.00    +0.000 A 
ATOM     31  C   UNL     1      -4.477  51.028  53.465  0.00  0.00    +0.000 A 
BRANCH  27  32
ATOM     32  O   UNL     1      -6.649  53.914  53.049  0.00  0.00    +0.000 OA
BRANCH  32  33
ATOM     33  C   UNL     1      -6.255  55.032  53.839  0.00  0.00    +0.000 C 
ATOM     34  F   UNL     1      -6.434  54.832  55.154  0.00  0.00    +0.000 F 
ATOM     35  F   UNL     1      -4.944  55.266  53.609  0.00  0.00    +0.000 F 
ATOM     36  F   UNL     1      -6.947  56.135  53.483  0.00  0.00    +0.000 F 
ENDBRANCH  32  33
ENDBRANCH  27  32
ENDBRANCH  23  26
ENDBRANCH   1  23
TORSDOF 8
ENDMDL
MODEL 6
REMARK VINA RESULT:      -6.9      2.822      3.934
REMARK  Name = 
REMARK  11 active torsions:
REMARK  status: ('A' for Active; 'I' for Inactive)
REMARK    1  A    between atoms: S_1  and  N_4
REMARK    2  A    between atoms: S_1  and  C_5
REMARK    3  A    between atoms: C_7  and  O_11
REMARK    4  A    between atoms: N_10  and  C_14
REMARK    5  A    between atoms: O_11  and  C_15
REMARK    6  A    between atoms: C_18  and  C_24
REMARK    7  A    between atoms: C_24  and  O_28
REMARK    8  A    between atoms: O_28  and  C_31
REMARK    9  A    between atoms: C_29  and  C_32
REMARK   10  A    between atoms: C_29  and  C_33
REMARK   11  A    between atoms: C_31  and  C_34
REMARK                            x       y       z     vdW  Elec       q    Type
REMARK                         _______ _______ _______ _____ _____    ______ ____
ROOT
ATOM      1  N   UNL     1     -11.587  55.957  50.138  0.00  0.00    +0.000 N 
ATOM      2  C   UNL     1     -10.554  55.022  50.247  0.00  0.00    +0.000 C 
ATOM      3  O   UNL     1     -10.525  54.233  51.170  0.00  0.00    +0.000 OA
ATOM      4  N   UNL     1      -9.585  55.216  49.286  0.00  0.00    +0.000 N 
ATOM      5  H   UNL     1     -11.557  56.577  49.374  0.00  0.00    +0.000 HD
ATOM      6  H   UNL     1      -9.676  56.002  48.701  0.00  0.00    +0.000 HD
ENDROOT
BRANCH   4   7
ATOM      7  C   UNL     1      -8.481  54.385  49.080  0.00  0.00    +0.000 A 
ATOM      8  S   UNL     1      -8.562  53.152  47.906  0.00  0.00    +0.000 S 
ATOM      9  C   UNL     1      -7.226  54.465  49.679  0.00  0.00    +0.000 A 
ATOM     10  C   UNL     1      -6.953  52.697  48.154  0.00  0.00    +0.000 A 
ATOM     11  C   UNL     1      -6.316  53.501  49.079  0.00  0.00    +0.000 A 
ATOM     12  C   UNL     1      -6.328  51.564  47.386  0.00  0.00    +0.000 C 
ATOM     13  C   UNL     1      -4.859  53.307  49.398  0.00  0.00    +0.000 C 
ATOM     14  C   UNL     1      -4.968  51.146  48.011  0.00  0.00    +0.000 C 
ATOM     15  C   UNL     1      -4.155  52.415  48.371  0.00  0.00    +0.000 C 
ATOM     16  C   UNL     1      -4.153  50.329  46.994  0.00  0.00    +0.000 C 
ATOM     17  C   UNL     1      -5.200  50.268  49.258  0.00  0.00    +0.000 C 
BRANCH   9  18
ATOM     18  C   UNL     1      -6.897  55.409  50.755  0.00  0.00    +0.000 C 
ATOM     19  O   UNL     1      -7.057  56.621  50.652  0.00  0.00    +0.000 OA
BRANCH  18  20
ATOM     20  O   UNL     1      -6.377  54.783  51.847  0.00  0.00    +0.000 OA
BRANCH  20  21
ATOM     21  C   UNL     1      -7.253  54.078  52.735  0.00  0.00    +0.000 C 
ATOM     22  C   UNL     1      -8.056  55.068  53.554  0.00  0.00    +0.000 C 
ENDBRANCH  20  21
ENDBRANCH  18  20
ENDBRANCH   9  18
ENDBRANCH   4   7
BRANCH   1  23
ATOM     23  S   UNL     1     -12.865  56.108  51.200  0.00  0.00    +0.000 S 
ATOM     24  O   UNL     1     -12.387  56.052  52.560  0.00  0.00    +0.000 OA
ATOM     25  O   UNL     1     -13.774  55.102  50.688  0.00  0.00    +0.000 OA
BRANCH  23  26
ATOM     26  C   UNL     1     -13.611  57.699  50.901  0.00  0.00    +0.000 A 
ATOM     27  C   UNL     1     -13.504  58.354  49.661  0.00  0.00    +0.000 A 
ATOM     28  C   UNL     1     -14.422  58.258  51.905  0.00  0.00    +0.000 A 
ATOM     29  C   UNL     1     -14.252  59.527  49.445  0.00  0.00    +0.000 A 
ATOM     30  C   UNL     1     -15.174  59.408  51.668  0.00  0.00    +0.000 A 
ATOM     31  C   UNL     1     -15.090  60.046  50.437  0.00  0.00    +0.000 A 
BRANCH  27  32
ATOM     32  O   UNL     1     -12.935  57.816  48.540  0.00  0.00    +0.000 OA
BRANCH  32  33
ATOM     33  C   UNL     1     -13.810  57.255  47.566  0.00  0.00    +0.000 C 
ATOM     34  F   UNL     1     -14.301  58.169  46.715  0.00  0.00    +0.000 F 
ATOM     35  F   UNL     1     -13.117  56.333  46.862  0.00  0.00    +0.000 F 
ATOM     36  F   UNL     1     -14.850  56.633  48.161  0.00  0.00    +0.000 F 
ENDBRANCH  32  33
ENDBRANCH  27  32
ENDBRANCH  23  26
ENDBRANCH   1  23
TORSDOF 8
ENDMDL
MODEL 7
REMARK VINA RESULT:      -6.7      2.461      3.234
REMARK  Name = 
REMARK  11 active torsions:
REMARK  status: ('A' for Active; 'I' for Inactive)
REMARK    1  A    between atoms: S_1  and  N_4
REMARK    2  A    between atoms: S_1  and  C_5
REMARK    3  A    between atoms: C_7  and  O_11
REMARK    4  A    between atoms: N_10  and  C_14
REMARK    5  A    between atoms: O_11  and  C_15
REMARK    6  A    between atoms: C_18  and  C_24
REMARK    7  A    between atoms: C_24  and  O_28
REMARK    8  A    between atoms: O_28  and  C_31
REMARK    9  A    between atoms: C_29  and  C_32
REMARK   10  A    between atoms: C_29  and  C_33
REMARK   11  A    between atoms: C_31  and  C_34
REMARK                            x       y       z     vdW  Elec       q    Type
REMARK                         _______ _______ _______ _____ _____    ______ ____
ROOT
ATOM      1  N   UNL     1     -11.545  56.026  50.659  0.00  0.00    +0.000 N 
ATOM      2  C   UNL     1     -10.629  55.005  50.930  0.00  0.00    +0.000 C 
ATOM      3  O   UNL     1     -10.949  53.838  50.818  0.00  0.00    +0.000 OA
ATOM      4  N   UNL     1      -9.445  55.500  51.432  0.00  0.00    +0.000 N 
ATOM      5  H   UNL     1     -11.235  56.953  50.773  0.00  0.00    +0.000 HD
ATOM      6  H   UNL     1      -9.396  56.466  51.612  0.00  0.00    +0.000 HD
ENDROOT
BRANCH   4   7
ATOM      7  C   UNL     1      -8.308  54.735  51.706  0.00  0.00    +0.000 A 
ATOM      8  S   UNL     1      -8.132  54.003  53.234  0.00  0.00    +0.000 S 
ATOM      9  C   UNL     1      -7.268  54.407  50.838  0.00  0.00    +0.000 A 
ATOM     10  C   UNL     1      -6.692  53.236  52.793  0.00  0.00    +0.000 A 
ATOM     11  C   UNL     1      -6.353  53.472  51.475  0.00  0.00    +0.000 A 
ATOM     12  C   UNL     1      -5.936  52.366  53.760  0.00  0.00    +0.000 C 
ATOM     13  C   UNL     1      -5.139  52.829  50.862  0.00  0.00    +0.000 C 
ATOM     14  C   UNL     1      -4.511  52.043  53.227  0.00  0.00    +0.000 C 
ATOM     15  C   UNL     1      -4.594  51.685  51.721  0.00  0.00    +0.000 C 
ATOM     16  C   UNL     1      -3.935  50.830  53.976  0.00  0.00    +0.000 C 
ATOM     17  C   UNL     1      -3.570  53.244  53.457  0.00  0.00    +0.000 C 
BRANCH   9  18
ATOM     18  C   UNL     1      -7.149  54.938  49.474  0.00  0.00    +0.000 C 
ATOM     19  O   UNL     1      -6.240  55.684  49.123  0.00  0.00    +0.000 OA
BRANCH  18  20
ATOM     20  O   UNL     1      -8.171  54.529  48.672  0.00  0.00    +0.000 OA
BRANCH  20  21
ATOM     21  C   UNL     1      -8.801  55.474  47.799  0.00  0.00    +0.000 C 
ATOM     22  C   UNL     1      -8.585  55.061  46.357  0.00  0.00    +0.000 C 
ENDBRANCH  20  21
ENDBRANCH  18  20
ENDBRANCH   9  18
ENDBRANCH   4   7
BRANCH   1  23
ATOM     23  S   UNL     1     -13.120  55.799  50.160  0.00  0.00    +0.000 S 
ATOM     24  O   UNL     1     -13.899  55.220  51.228  0.00  0.00    +0.000 OA
ATOM     25  O   UNL     1     -12.919  55.086  48.915  0.00  0.00    +0.000 OA
BRANCH  23  26
ATOM     26  C   UNL     1     -13.779  57.405  49.753  0.00  0.00    +0.000 A 
ATOM     27  C   UNL     1     -14.090  58.358  50.739  0.00  0.00    +0.000 A 
ATOM     28  C   UNL     1     -13.883  57.761  48.397  0.00  0.00    +0.000 A 
ATOM     29  C   UNL     1     -14.451  59.659  50.338  0.00  0.00    +0.000 A 
ATOM     30  C   UNL     1     -14.221  59.060  48.015  0.00  0.00    +0.000 A 
ATOM     31  C   UNL     1     -14.506  60.011  48.986  0.00  0.00    +0.000 A 
BRANCH  27  32
ATOM     32  O   UNL     1     -13.825  58.216  52.073  0.00  0.00    +0.000 OA
BRANCH  32  33
ATOM     33  C   UNL     1     -14.938  58.099  52.954  0.00  0.00    +0.000 C 
ATOM     34  F   UNL     1     -15.892  57.281  52.485  0.00  0.00    +0.000 F 
ATOM     35  F   UNL     1     -14.490  57.613  54.132  0.00  0.00    +0.000 F 
ATOM     36  F   UNL     1     -15.495  59.307  53.183  0.00  0.00    +0.000 F 
ENDBRANCH  32  33
ENDBRANCH  27  32
ENDBRANCH  23  26
ENDBRANCH   1  23
TORSDOF 8
ENDMDL
MODEL 8
REMARK VINA RESULT:      -6.5      3.810      8.345
REMARK  Name = 
REMARK  11 active torsions:
REMARK  status: ('A' for Active; 'I' for Inactive)
REMARK    1  A    between atoms: S_1  and  N_4
REMARK    2  A    between atoms: S_1  and  C_5
REMARK    3  A    between atoms: C_7  and  O_11
REMARK    4  A    between atoms: N_10  and  C_14
REMARK    5  A    between atoms: O_11  and  C_15
REMARK    6  A    between atoms: C_18  and  C_24
REMARK    7  A    between atoms: C_24  and  O_28
REMARK    8  A    between atoms: O_28  and  C_31
REMARK    9  A    between atoms: C_29  and  C_32
REMARK   10  A    between atoms: C_29  and  C_33
REMARK   11  A    between atoms: C_31  and  C_34
REMARK                            x       y       z     vdW  Elec       q    Type
REMARK                         _______ _______ _______ _____ _____    ______ ____
ROOT
ATOM      1  N   UNL     1      -8.656  54.553  52.315  0.00  0.00    +0.000 N 
ATOM      2  C   UNL     1      -8.548  54.503  50.922  0.00  0.00    +0.000 C 
ATOM      3  O   UNL     1      -7.598  55.004  50.355  0.00  0.00    +0.000 OA
ATOM      4  N   UNL     1      -9.671  53.955  50.341  0.00  0.00    +0.000 N 
ATOM      5  H   UNL     1      -9.450  54.137  52.722  0.00  0.00    +0.000 HD
ATOM      6  H   UNL     1     -10.428  53.738  50.931  0.00  0.00    +0.000 HD
ENDROOT
BRANCH   4   7
ATOM      7  C   UNL     1      -9.820  53.685  48.978  0.00  0.00    +0.000 A 
ATOM      8  S   UNL     1      -9.100  52.293  48.311  0.00  0.00    +0.000 S 
ATOM      9  C   UNL     1     -10.572  54.393  48.043  0.00  0.00    +0.000 A 
ATOM     10  C   UNL     1      -9.761  52.583  46.783  0.00  0.00    +0.000 A 
ATOM     11  C   UNL     1     -10.578  53.696  46.766  0.00  0.00    +0.000 A 
ATOM     12  C   UNL     1      -9.491  51.665  45.621  0.00  0.00    +0.000 C 
ATOM     13  C   UNL     1     -11.317  54.094  45.518  0.00  0.00    +0.000 C 
ATOM     14  C   UNL     1      -9.942  52.310  44.280  0.00  0.00    +0.000 C 
ATOM     15  C   UNL     1     -11.328  52.977  44.471  0.00  0.00    +0.000 C 
ATOM     16  C   UNL     1     -10.077  51.226  43.197  0.00  0.00    +0.000 C 
ATOM     17  C   UNL     1      -8.896  53.339  43.804  0.00  0.00    +0.000 C 
BRANCH   9  18
ATOM     18  C   UNL     1     -11.262  55.655  48.342  0.00  0.00    +0.000 C 
ATOM     19  O   UNL     1     -10.711  56.604  48.891  0.00  0.00    +0.000 OA
BRANCH  18  20
ATOM     20  O   UNL     1     -12.570  55.628  47.963  0.00  0.00    +0.000 OA
BRANCH  20  21
ATOM     21  C   UNL     1     -13.468  56.622  48.470  0.00  0.00    +0.000 C 
ATOM     22  C   UNL     1     -14.027  57.440  47.323  0.00  0.00    +0.000 C 
ENDBRANCH  20  21
ENDBRANCH  18  20
ENDBRANCH   9  18
ENDBRANCH   4   7
BRANCH   1  23
ATOM     23  S   UNL     1      -7.548  55.261  53.341  0.00  0.00    +0.000 S 
ATOM     24  O   UNL     1      -8.130  55.445  54.648  0.00  0.00    +0.000 OA
ATOM     25  O   UNL     1      -7.120  56.397  52.550  0.00  0.00    +0.000 OA
BRANCH  23  26
ATOM     26  C   UNL     1      -6.161  54.147  53.464  0.00  0.00    +0.000 A 
ATOM     27  C   UNL     1      -6.313  52.751  53.388  0.00  0.00    +0.000 A 
ATOM     28  C   UNL     1      -4.867  54.694  53.529  0.00  0.00    +0.000 A 
ATOM     29  C   UNL     1      -5.161  51.943  53.330  0.00  0.00    +0.000 A 
ATOM     30  C   UNL     1      -3.735  53.883  53.449  0.00  0.00    +0.000 A 
ATOM     31  C   UNL     1      -3.881  52.505  53.349  0.00  0.00    +0.000 A 
BRANCH  27  32
ATOM     32  O   UNL     1      -7.486  52.109  53.102  0.00  0.00    +0.000 OA
BRANCH  32  33
ATOM     33  C   UNL     1      -8.226  51.578  54.197  0.00  0.00    +0.000 C 
ATOM     34  F   UNL     1      -9.395  52.208  54.392  0.00  0.00    +0.000 F 
ATOM     35  F   UNL     1      -8.472  50.274  53.945  0.00  0.00    +0.000 F 
ATOM     36  F   UNL     1      -7.511  51.656  55.340  0.00  0.00    +0.000 F 
ENDBRANCH  32  33
ENDBRANCH  27  32
ENDBRANCH  23  26
ENDBRANCH   1  23
TORSDOF 8
ENDMDL
MODEL 9
REMARK VINA RESULT:      -6.3      3.937      8.180
REMARK  Name = 
REMARK  11 active torsions:
REMARK  status: ('A' for Active; 'I' for Inactive)
REMARK    1  A    between atoms: S_1  and  N_4
REMARK    2  A    between atoms: S_1  and  C_5
REMARK    3  A    between atoms: C_7  and  O_11
REMARK    4  A    between atoms: N_10  and  C_14
REMARK    5  A    between atoms: O_11  and  C_15
REMARK    6  A    between atoms: C_18  and  C_24
REMARK    7  A    between atoms: C_24  and  O_28
REMARK    8  A    between atoms: O_28  and  C_31
REMARK    9  A    between atoms: C_29  and  C_32
REMARK   10  A    between atoms: C_29  and  C_33
REMARK   11  A    between atoms: C_31  and  C_34
REMARK                            x       y       z     vdW  Elec       q    Type
REMARK                         _______ _______ _______ _____ _____    ______ ____
ROOT
ATOM      1  N   UNL     1      -8.653  55.050  51.535  0.00  0.00    +0.000 N 
ATOM      2  C   UNL     1      -8.894  54.164  50.481  0.00  0.00    +0.000 C 
ATOM      3  O   UNL     1      -9.116  52.989  50.696  0.00  0.00    +0.000 OA
ATOM      4  N   UNL     1      -8.721  54.768  49.254  0.00  0.00    +0.000 N 
ATOM      5  H   UNL     1      -8.472  55.989  51.303  0.00  0.00    +0.000 HD
ATOM      6  H   UNL     1      -8.386  55.693  49.247  0.00  0.00    +0.000 HD
ENDROOT
BRANCH   4   7
ATOM      7  C   UNL     1      -8.982  54.168  48.020  0.00  0.00    +0.000 A 
ATOM      8  S   UNL     1      -7.908  52.995  47.408  0.00  0.00    +0.000 S 
ATOM      9  C   UNL     1     -10.094  54.348  47.200  0.00  0.00    +0.000 A 
ATOM     10  C   UNL     1      -8.877  52.693  46.057  0.00  0.00    +0.000 A 
ATOM     11  C   UNL     1     -10.047  53.426  46.075  0.00  0.00    +0.000 A 
ATOM     12  C   UNL     1      -8.477  51.690  45.010  0.00  0.00    +0.000 C 
ATOM     13  C   UNL     1     -11.081  53.258  44.995  0.00  0.00    +0.000 C 
ATOM     14  C   UNL     1      -9.358  51.826  43.736  0.00  0.00    +0.000 C 
ATOM     15  C   UNL     1     -10.840  52.002  44.154  0.00  0.00    +0.000 C 
ATOM     16  C   UNL     1      -9.249  50.550  42.885  0.00  0.00    +0.000 C 
ATOM     17  C   UNL     1      -8.881  53.018  42.881  0.00  0.00    +0.000 C 
BRANCH   9  18
ATOM     18  C   UNL     1     -11.152  55.330  47.469  0.00  0.00    +0.000 C 
ATOM     19  O   UNL     1     -11.683  55.999  46.588  0.00  0.00    +0.000 OA
BRANCH  18  20
ATOM     20  O   UNL     1     -11.444  55.420  48.796  0.00  0.00    +0.000 OA
BRANCH  20  21
ATOM     21  C   UNL     1     -12.613  54.766  49.304  0.00  0.00    +0.000 C 
ATOM     22  C   UNL     1     -12.531  54.676  50.815  0.00  0.00    +0.000 C 
ENDBRANCH  20  21
ENDBRANCH  18  20
ENDBRANCH   9  18
ENDBRANCH   4   7
BRANCH   1  23
ATOM     23  S   UNL     1      -8.646  54.643  53.152  0.00  0.00    +0.000 S 
ATOM     24  O   UNL     1      -9.919  54.076  53.526  0.00  0.00    +0.000 OA
ATOM     25  O   UNL     1      -8.177  55.877  53.750  0.00  0.00    +0.000 OA
BRANCH  23  26
ATOM     26  C   UNL     1      -7.367  53.422  53.381  0.00  0.00    +0.000 A 
ATOM     27  C   UNL     1      -6.116  53.522  52.746  0.00  0.00    +0.000 A 
ATOM     28  C   UNL     1      -7.584  52.391  54.312  0.00  0.00    +0.000 A 
ATOM     29  C   UNL     1      -5.100  52.613  53.099  0.00  0.00    +0.000 A 
ATOM     30  C   UNL     1      -6.561  51.511  54.667  0.00  0.00    +0.000 A 
ATOM     31  C   UNL     1      -5.317  51.621  54.060  0.00  0.00    +0.000 A 
BRANCH  27  32
ATOM     32  O   UNL     1      -5.704  54.589  51.998  0.00  0.00    +0.000 OA
BRANCH  32  33
ATOM     33  C   UNL     1      -5.240  54.324  50.677  0.00  0.00    +0.000 C 
ATOM     34  F   UNL     1      -5.824  53.250  50.124  0.00  0.00    +0.000 F 
ATOM     35  F   UNL     1      -5.506  55.406  49.914  0.00  0.00    +0.000 F 
ATOM     36  F   UNL     1      -3.904  54.125  50.672  0.00  0.00    +0.000 F 
ENDBRANCH  32  33
ENDBRANCH  27  32
ENDBRANCH  23  26
ENDBRANCH   1  23
TORSDOF 8
ENDMDL
