MODEL 1
REMARK VINA RESULT:      -7.4      0.000      0.000
REMARK  Name = 
REMARK  10 active torsions:
REMARK  status: ('A' for Active; 'I' for Inactive)
REMARK    1  A    between atoms: S_1  and  N_4
REMARK    2  A    between atoms: S_1  and  C_5
REMARK    3  A    between atoms: N_10  and  C_13
REMARK    4  A    between atoms: C_14  and  C_17
REMARK    5  A    between atoms: C_16  and  C_20
REMARK    6  A    between atoms: C_20  and  O_24
REMARK    7  A    between atoms: O_24  and  C_27
REMARK    8  A    between atoms: C_25  and  C_28
REMARK    9  A    between atoms: C_25  and  C_29
REMARK   10  A    between atoms: C_27  and  C_30
REMARK                            x       y       z     vdW  Elec       q    Type
REMARK                         _______ _______ _______ _____ _____    ______ ____
ROOT
ATOM      1  N   UNL     1      -9.752  51.714  48.703  0.00  0.00    +0.000 N 
ATOM      2  C   UNL     1     -10.811  52.578  48.935  0.00  0.00    +0.000 C 
ATOM      3  O   UNL     1     -11.910  52.412  48.430  0.00  0.00    +0.000 OA
ATOM      4  N   UNL     1     -10.464  53.688  49.689  0.00  0.00    +0.000 N 
ATOM      5  H   UNL     1      -8.889  51.916  49.132  0.00  0.00    +0.000 HD
ATOM      6  H   UNL     1      -9.554  53.794  50.048  0.00  0.00    +0.000 HD
ENDROOT
BRANCH   4   7
ATOM      7  C   UNL     1     -11.440  54.646  49.920  0.00  0.00    +0.000 A 
ATOM      8  S   UNL     1     -12.141  54.610  51.468  0.00  0.00    +0.000 S 
ATOM      9  C   UNL     1     -11.917  55.672  49.122  0.00  0.00    +0.000 A 
ATOM     10  C   UNL     1     -12.896  56.121  51.205  0.00  0.00    +0.000 A 
ATOM     11  C   UNL     1     -12.701  56.588  49.919  0.00  0.00    +0.000 A 
ATOM     12  C   UNL     1     -13.674  56.834  52.285  0.00  0.00    +0.000 C 
ATOM     13  C   UNL     1     -13.318  57.873  49.445  0.00  0.00    +0.000 C 
ATOM     14  C   UNL     1     -14.617  57.913  51.668  0.00  0.00    +0.000 C 
ATOM     15  C   UNL     1     -13.845  58.728  50.599  0.00  0.00    +0.000 C 
ATOM     16  C   UNL     1     -15.095  58.897  52.752  0.00  0.00    +0.000 C 
ATOM     17  C   UNL     1     -15.862  57.241  51.055  0.00  0.00    +0.000 C 
BRANCH   9  18
ATOM     18  C   UNL     1     -11.621  55.763  47.690  0.00  0.00    +0.000 C 
ATOM     19  O   UNL     1     -12.489  55.885  46.833  0.00  0.00    +0.000 OA
BRANCH  18  20
ATOM     20  O   UNL     1     -10.286  55.709  47.434  0.00  0.00    +0.000 OA
BRANCH  20  21
ATOM     21  C   UNL     1      -9.865  54.897  46.334  0.00  0.00    +0.000 C 
ATOM     22  C   UNL     1      -8.352  54.925  46.234  0.00  0.00    +0.000 C 
ENDBRANCH  20  21
ENDBRANCH  18  20
ENDBRANCH   9  18
ENDBRANCH   4   7
BRANCH   1  23
ATOM     23  S   UNL     1      -9.850  50.353  47.741  0.00  0.00    +0.000 S 
ATOM     24  O   UNL     1     -11.156  49.741  47.845  0.00  0.00    +0.000 OA
ATOM     25  O   UNL     1      -8.656  49.589  48.045  0.00  0.00    +0.000 OA
BRANCH  23  26
ATOM     26  C   UNL     1      -9.651  51.006  46.095  0.00  0.00    +0.000 A 
ATOM     27  C   UNL     1     -10.772  51.372  45.347  0.00  0.00    +0.000 A 
ATOM     28  C   UNL     1      -8.366  51.212  45.586  0.00  0.00    +0.000 A 
ATOM     29  C   UNL     1     -10.607  51.911  44.066  0.00  0.00    +0.000 A 
ATOM     30  C   UNL     1      -8.206  51.747  44.304  0.00  0.00    +0.000 A 
ATOM     31  C   UNL     1      -9.324  52.093  43.531  0.00  0.00    +0.000 A 
ATOM     32  C   UNL     1      -9.130  52.650  42.151  0.00  0.00    +0.000 C 
ENDBRANCH  23  26
ENDBRANCH   1  23
TORSDOF 6
ENDMDL
MODEL 2
REMARK VINA RESULT:      -6.9      3.279      4.937
REMARK  Name = 
REMARK  10 active torsions:
REMARK  status: ('A' for Active; 'I' for Inactive)
REMARK    1  A    between atoms: S_1  and  N_4
REMARK    2  A    between atoms: S_1  and  C_5
REMARK    3  A    between atoms: N_10  and  C_13
REMARK    4  A    between atoms: C_14  and  C_17
REMARK    5  A    between atoms: C_16  and  C_20
REMARK    6  A    between atoms: C_20  and  O_24
REMARK    7  A    between atoms: O_24  and  C_27
REMARK    8  A    between atoms: C_25  and  C_28
REMARK    9  A    between atoms: C_25  and  C_29
REMARK   10  A    between atoms: C_27  and  C_30
REMARK                            x       y       z     vdW  Elec       q    Type
REMARK                         _______ _______ _______ _____ _____    ______ ____
ROOT
ATOM      1  N   UNL     1      -8.425  52.667  48.971  0.00  0.00    +0.000 N 
ATOM      2  C   UNL     1      -9.313  53.700  49.227  0.00  0.00    +0.000 C 
ATOM      3  O   UNL     1      -8.940  54.808  49.580  0.00  0.00    +0.000 OA
ATOM      4  N   UNL     1     -10.643  53.316  49.153  0.00  0.00    +0.000 N 
ATOM      5  H   UNL     1      -8.795  51.795  48.702  0.00  0.00    +0.000 HD
ATOM      6  H   UNL     1     -10.894  52.401  48.895  0.00  0.00    +0.000 HD
ENDROOT
BRANCH   4   7
ATOM      7  C   UNL     1     -11.609  54.264  49.458  0.00  0.00    +0.000 A 
ATOM      8  S   UNL     1     -12.112  54.292  51.081  0.00  0.00    +0.000 S 
ATOM      9  C   UNL     1     -12.208  55.238  48.677  0.00  0.00    +0.000 A 
ATOM     10  C   UNL     1     -12.934  55.772  50.842  0.00  0.00    +0.000 A 
ATOM     11  C   UNL     1     -12.913  56.177  49.521  0.00  0.00    +0.000 A 
ATOM     12  C   UNL     1     -13.592  56.523  51.975  0.00  0.00    +0.000 C 
ATOM     13  C   UNL     1     -13.619  57.422  49.067  0.00  0.00    +0.000 C 
ATOM     14  C   UNL     1     -14.633  57.548  51.430  0.00  0.00    +0.000 C 
ATOM     15  C   UNL     1     -14.023  58.323  50.235  0.00  0.00    +0.000 C 
ATOM     16  C   UNL     1     -15.001  58.576  52.517  0.00  0.00    +0.000 C 
ATOM     17  C   UNL     1     -15.926  56.819  51.010  0.00  0.00    +0.000 C 
BRANCH   9  18
ATOM     18  C   UNL     1     -12.095  55.262  47.217  0.00  0.00    +0.000 C 
ATOM     19  O   UNL     1     -12.066  56.299  46.564  0.00  0.00    +0.000 OA
BRANCH  18  20
ATOM     20  O   UNL     1     -12.015  54.012  46.685  0.00  0.00    +0.000 OA
BRANCH  20  21
ATOM     21  C   UNL     1     -11.435  53.893  45.382  0.00  0.00    +0.000 C 
ATOM     22  C   UNL     1      -9.935  53.720  45.509  0.00  0.00    +0.000 C 
ENDBRANCH  20  21
ENDBRANCH  18  20
ENDBRANCH   9  18
ENDBRANCH   4   7
BRANCH   1  23
ATOM     23  S   UNL     1      -6.765  52.810  49.090  0.00  0.00    +0.000 S 
ATOM     24  O   UNL     1      -6.287  53.926  48.303  0.00  0.00    +0.000 OA
ATOM     25  O   UNL     1      -6.253  51.475  48.856  0.00  0.00    +0.000 OA
BRANCH  23  26
ATOM     26  C   UNL     1      -6.514  53.176  50.816  0.00  0.00    +0.000 A 
ATOM     27  C   UNL     1      -5.787  54.307  51.194  0.00  0.00    +0.000 A 
ATOM     28  C   UNL     1      -7.105  52.362  51.785  0.00  0.00    +0.000 A 
ATOM     29  C   UNL     1      -5.618  54.602  52.551  0.00  0.00    +0.000 A 
ATOM     30  C   UNL     1      -6.931  52.659  53.140  0.00  0.00    +0.000 A 
ATOM     31  C   UNL     1      -6.180  53.776  53.534  0.00  0.00    +0.000 A 
ATOM     32  C   UNL     1      -5.991  54.067  54.994  0.00  0.00    +0.000 C 
ENDBRANCH  23  26
ENDBRANCH   1  23
TORSDOF 6
ENDMDL
MODEL 3
REMARK VINA RESULT:      -6.9      1.835      2.722
REMARK  Name = 
REMARK  10 active torsions:
REMARK  status: ('A' for Active; 'I' for Inactive)
REMARK    1  A    between atoms: S_1  and  N_4
REMARK    2  A    between atoms: S_1  and  C_5
REMARK    3  A    between atoms: N_10  and  C_13
REMARK    4  A    between atoms: C_14  and  C_17
REMARK    5  A    between atoms: C_16  and  C_20
REMARK    6  A    between atoms: C_20  and  O_24
REMARK    7  A    between atoms: O_24  and  C_27
REMARK    8  A    between atoms: C_25  and  C_28
REMARK    9  A    between atoms: C_25  and  C_29
REMARK   10  A    between atoms: C_27  and  C_30
REMARK                            x       y       z     vdW  Elec       q    Type
REMARK                         _______ _______ _______ _____ _____    ______ ____
ROOT
ATOM      1  N   UNL     1      -8.194  53.361  49.330  0.00  0.00    +0.000 N 
ATOM      2  C   UNL     1      -9.291  54.203  49.417  0.00  0.00    +0.000 C 
ATOM      3  O   UNL     1      -9.354  55.257  48.802  0.00  0.00    +0.000 OA
ATOM      4  N   UNL     1     -10.235  53.789  50.343  0.00  0.00    +0.000 N 
ATOM      5  H   UNL     1      -8.204  52.533  49.864  0.00  0.00    +0.000 HD
ATOM      6  H   UNL     1     -10.124  52.946  50.839  0.00  0.00    +0.000 HD
ENDROOT
BRANCH   4   7
ATOM      7  C   UNL     1     -11.340  54.601  50.550  0.00  0.00    +0.000 A 
ATOM      8  S   UNL     1     -11.552  55.145  52.147  0.00  0.00    +0.000 S 
ATOM      9  C   UNL     1     -12.286  55.096  49.668  0.00  0.00    +0.000 A 
ATOM     10  C   UNL     1     -12.744  56.265  51.650  0.00  0.00    +0.000 A 
ATOM     11  C   UNL     1     -13.048  56.146  50.307  0.00  0.00    +0.000 A 
ATOM     12  C   UNL     1     -13.366  57.258  52.601  0.00  0.00    +0.000 C 
ATOM     13  C   UNL     1     -14.107  56.992  49.660  0.00  0.00    +0.000 C 
ATOM     14  C   UNL     1     -14.706  57.813  52.026  0.00  0.00    +0.000 C 
ATOM     15  C   UNL     1     -14.518  58.180  50.533  0.00  0.00    +0.000 C 
ATOM     16  C   UNL     1     -15.128  59.091  52.774  0.00  0.00    +0.000 C 
ATOM     17  C   UNL     1     -15.830  56.770  52.199  0.00  0.00    +0.000 C 
BRANCH   9  18
ATOM     18  C   UNL     1     -12.430  54.595  48.300  0.00  0.00    +0.000 C 
ATOM     19  O   UNL     1     -12.479  55.328  47.319  0.00  0.00    +0.000 OA
BRANCH  18  20
ATOM     20  O   UNL     1     -12.491  53.236  48.252  0.00  0.00    +0.000 OA
BRANCH  20  21
ATOM     21  C   UNL     1     -11.783  52.589  47.190  0.00  0.00    +0.000 C 
ATOM     22  C   UNL     1     -11.152  51.311  47.707  0.00  0.00    +0.000 C 
ENDBRANCH  20  21
ENDBRANCH  18  20
ENDBRANCH   9  18
ENDBRANCH   4   7
BRANCH   1  23
ATOM     23  S   UNL     1      -6.856  53.662  48.377  0.00  0.00    +0.000 S 
ATOM     24  O   UNL     1      -5.821  52.681  48.616  0.00  0.00    +0.000 OA
ATOM     25  O   UNL     1      -6.581  55.075  48.549  0.00  0.00    +0.000 OA
BRANCH  23  26
ATOM     26  C   UNL     1      -7.483  53.445  46.723  0.00  0.00    +0.000 A 
ATOM     27  C   UNL     1      -7.598  54.544  45.868  0.00  0.00    +0.000 A 
ATOM     28  C   UNL     1      -7.793  52.162  46.267  0.00  0.00    +0.000 A 
ATOM     29  C   UNL     1      -8.064  54.362  44.561  0.00  0.00    +0.000 A 
ATOM     30  C   UNL     1      -8.262  51.985  44.962  0.00  0.00    +0.000 A 
ATOM     31  C   UNL     1      -8.409  53.083  44.102  0.00  0.00    +0.000 A 
ATOM     32  C   UNL     1      -8.929  52.873  42.710  0.00  0.00    +0.000 C 
ENDBRANCH  23  26
ENDBRANCH   1  23
TORSDOF 6
ENDMDL
MODEL 4
REMARK VINA RESULT:      -6.8      3.745      5.574
REMARK  Name = 
REMARK  10 active torsions:
REMARK  status: ('A' for Active; 'I' for Inactive)
REMARK    1  A    between atoms: S_1  and  N_4
REMARK    2  A    between atoms: S_1  and  C_5
REMARK    3  A    between atoms: N_10  and  C_13
REMARK    4  A    between atoms: C_14  and  C_17
REMARK    5  A    between atoms: C_16  and  C_20
REMARK    6  A    between atoms: C_20  and  O_24
REMARK    7  A    between atoms: O_24  and  C_27
REMARK    8  A    between atoms: C_25  and  C_28
REMARK    9  A    between atoms: C_25  and  C_29
REMARK   10  A    between atoms: C_27  and  C_30
REMARK                            x       y       z     vdW  Elec       q    Type
REMARK                         _______ _______ _______ _____ _____    ______ ____
ROOT
ATOM      1  N   UNL     1      -8.177  53.077  50.463  0.00  0.00    +0.000 N 
ATOM      2  C   UNL     1      -9.122  54.072  50.660  0.00  0.00    +0.000 C 
ATOM      3  O   UNL     1      -8.973  54.958  51.488  0.00  0.00    +0.000 OA
ATOM      4  N   UNL     1     -10.279  53.891  49.918  0.00  0.00    +0.000 N 
ATOM      5  H   UNL     1      -8.368  52.386  49.788  0.00  0.00    +0.000 HD
ATOM      6  H   UNL     1     -10.365  53.141  49.286  0.00  0.00    +0.000 HD
ENDROOT
BRANCH   4   7
ATOM      7  C   UNL     1     -11.312  54.799  50.096  0.00  0.00    +0.000 A 
ATOM      8  S   UNL     1     -12.028  54.792  51.637  0.00  0.00    +0.000 S 
ATOM      9  C   UNL     1     -11.839  55.758  49.247  0.00  0.00    +0.000 A 
ATOM     10  C   UNL     1     -12.867  56.242  51.299  0.00  0.00    +0.000 A 
ATOM     11  C   UNL     1     -12.685  56.661  49.995  0.00  0.00    +0.000 A 
ATOM     12  C   UNL     1     -13.698  56.956  52.338  0.00  0.00    +0.000 C 
ATOM     13  C   UNL     1     -13.371  57.884  49.457  0.00  0.00    +0.000 C 
ATOM     14  C   UNL     1     -14.696  57.948  51.664  0.00  0.00    +0.000 C 
ATOM     15  C   UNL     1     -13.961  58.757  50.566  0.00  0.00    +0.000 C 
ATOM     16  C   UNL     1     -15.244  58.950  52.697  0.00  0.00    +0.000 C 
ATOM     17  C   UNL     1     -15.892  57.176  51.071  0.00  0.00    +0.000 C 
BRANCH   9  18
ATOM     18  C   UNL     1     -11.533  55.801  47.816  0.00  0.00    +0.000 C 
ATOM     19  O   UNL     1     -12.385  55.976  46.953  0.00  0.00    +0.000 OA
BRANCH  18  20
ATOM     20  O   UNL     1     -10.205  55.638  47.567  0.00  0.00    +0.000 OA
BRANCH  20  21
ATOM     21  C   UNL     1      -9.843  55.037  46.320  0.00  0.00    +0.000 C 
ATOM     22  C   UNL     1      -9.433  53.597  46.552  0.00  0.00    +0.000 C 
ENDBRANCH  20  21
ENDBRANCH  18  20
ENDBRANCH   9  18
ENDBRANCH   4   7
BRANCH   1  23
ATOM     23  S   UNL     1      -6.735  52.979  51.299  0.00  0.00    +0.000 S 
ATOM     24  O   UNL     1      -6.248  54.297  51.642  0.00  0.00    +0.000 OA
ATOM     25  O   UNL     1      -5.912  52.071  50.525  0.00  0.00    +0.000 OA
BRANCH  23  26
ATOM     26  C   UNL     1      -7.194  52.127  52.796  0.00  0.00    +0.000 A 
ATOM     27  C   UNL     1      -6.411  52.262  53.945  0.00  0.00    +0.000 A 
ATOM     28  C   UNL     1      -8.373  51.381  52.830  0.00  0.00    +0.000 A 
ATOM     29  C   UNL     1      -6.792  51.613  55.125  0.00  0.00    +0.000 A 
ATOM     30  C   UNL     1      -8.749  50.732  54.010  0.00  0.00    +0.000 A 
ATOM     31  C   UNL     1      -7.958  50.835  55.163  0.00  0.00    +0.000 A 
ATOM     32  C   UNL     1      -8.370  50.116  56.414  0.00  0.00    +0.000 C 
ENDBRANCH  23  26
ENDBRANCH   1  23
TORSDOF 6
ENDMDL
MODEL 5
REMARK VINA RESULT:      -6.8      3.744      8.185
REMARK  Name = 
REMARK  10 active torsions:
REMARK  status: ('A' for Active; 'I' for Inactive)
REMARK    1  A    between atoms: S_1  and  N_4
REMARK    2  A    between atoms: S_1  and  C_5
REMARK    3  A    between atoms: N_10  and  C_13
REMARK    4  A    between atoms: C_14  and  C_17
REMARK    5  A    between atoms: C_16  and  C_20
REMARK    6  A    between atoms: C_20  and  O_24
REMARK    7  A    between atoms: O_24  and  C_27
REMARK    8  A    between atoms: C_25  and  C_28
REMARK    9  A    between atoms: C_25  and  C_29
REMARK   10  A    between atoms: C_27  and  C_30
REMARK                            x       y       z     vdW  Elec       q    Type
REMARK                         _______ _______ _______ _____ _____    ______ ____
ROOT
ATOM      1  N   UNL     1     -11.656  56.773  48.994  0.00  0.00    +0.000 N 
ATOM      2  C   UNL     1     -10.663  55.907  49.424  0.00  0.00    +0.000 C 
ATOM      3  O   UNL     1     -10.912  54.791  49.852  0.00  0.00    +0.000 OA
ATOM      4  N   UNL     1      -9.398  56.472  49.424  0.00  0.00    +0.000 N 
ATOM      5  H   UNL     1     -11.385  57.663  48.672  0.00  0.00    +0.000 HD
ATOM      6  H   UNL     1      -9.251  57.389  49.098  0.00  0.00    +0.000 HD
ENDROOT
BRANCH   4   7
ATOM      7  C   UNL     1      -8.345  55.706  49.901  0.00  0.00    +0.000 A 
ATOM      8  S   UNL     1      -7.946  55.955  51.534  0.00  0.00    +0.000 S 
ATOM      9  C   UNL     1      -7.582  54.724  49.290  0.00  0.00    +0.000 A 
ATOM     10  C   UNL     1      -6.935  54.576  51.539  0.00  0.00    +0.000 A 
ATOM     11  C   UNL     1      -6.823  54.003  50.287  0.00  0.00    +0.000 A 
ATOM     12  C   UNL     1      -6.264  54.071  52.794  0.00  0.00    +0.000 C 
ATOM     13  C   UNL     1      -5.943  52.811  50.041  0.00  0.00    +0.000 C 
ATOM     14  C   UNL     1      -5.073  53.127  52.444  0.00  0.00    +0.000 C 
ATOM     15  C   UNL     1      -5.508  52.130  51.340  0.00  0.00    +0.000 C 
ATOM     16  C   UNL     1      -4.653  52.306  53.677  0.00  0.00    +0.000 C 
ATOM     17  C   UNL     1      -3.855  53.956  51.988  0.00  0.00    +0.000 C 
BRANCH   9  18
ATOM     18  C   UNL     1      -7.599  54.495  47.843  0.00  0.00    +0.000 C 
ATOM     19  O   UNL     1      -6.608  54.618  47.133  0.00  0.00    +0.000 OA
BRANCH  18  20
ATOM     20  O   UNL     1      -8.829  54.124  47.394  0.00  0.00    +0.000 OA
BRANCH  20  21
ATOM     21  C   UNL     1      -9.316  54.772  46.215  0.00  0.00    +0.000 C 
ATOM     22  C   UNL     1     -10.686  54.225  45.866  0.00  0.00    +0.000 C 
ENDBRANCH  20  21
ENDBRANCH  18  20
ENDBRANCH   9  18
ENDBRANCH   4   7
BRANCH   1  23
ATOM     23  S   UNL     1     -13.284  56.399  48.987  0.00  0.00    +0.000 S 
ATOM     24  O   UNL     1     -13.490  54.989  49.234  0.00  0.00    +0.000 OA
ATOM     25  O   UNL     1     -13.808  57.018  47.786  0.00  0.00    +0.000 OA
BRANCH  23  26
ATOM     26  C   UNL     1     -13.915  57.324  50.374  0.00  0.00    +0.000 A 
ATOM     27  C   UNL     1     -14.532  58.560  50.168  0.00  0.00    +0.000 A 
ATOM     28  C   UNL     1     -13.850  56.774  51.656  0.00  0.00    +0.000 A 
ATOM     29  C   UNL     1     -15.050  59.267  51.259  0.00  0.00    +0.000 A 
ATOM     30  C   UNL     1     -14.366  57.485  52.743  0.00  0.00    +0.000 A 
ATOM     31  C   UNL     1     -14.963  58.740  52.555  0.00  0.00    +0.000 A 
ATOM     32  C   UNL     1     -15.496  59.495  53.737  0.00  0.00    +0.000 C 
ENDBRANCH  23  26
ENDBRANCH   1  23
TORSDOF 6
ENDMDL
MODEL 6
REMARK VINA RESULT:      -6.7      3.783      7.687
REMARK  Name = 
REMARK  10 active torsions:
REMARK  status: ('A' for Active; 'I' for Inactive)
REMARK    1  A    between atoms: S_1  and  N_4
REMARK    2  A    between atoms: S_1  and  C_5
REMARK    3  A    between atoms: N_10  and  C_13
REMARK    4  A    between atoms: C_14  and  C_17
REMARK    5  A    between atoms: C_16  and  C_20
REMARK    6  A    between atoms: C_20  and  O_24
REMARK    7  A    between atoms: O_24  and  C_27
REMARK    8  A    between atoms: C_25  and  C_28
REMARK    9  A    between atoms: C_25  and  C_29
REMARK   10  A    between atoms: C_27  and  C_30
REMARK                            x       y       z     vdW  Elec       q    Type
REMARK                         _______ _______ _______ _____ _____    ______ ____
ROOT
ATOM      1  N   UNL     1     -14.490  55.080  51.168  0.00  0.00    +0.000 N 
ATOM      2  C   UNL     1     -13.184  55.223  51.607  0.00  0.00    +0.000 C 
ATOM      3  O   UNL     1     -12.788  56.240  52.155  0.00  0.00    +0.000 OA
ATOM      4  N   UNL     1     -12.364  54.160  51.262  0.00  0.00    +0.000 N 
ATOM      5  H   UNL     1     -14.738  54.238  50.722  0.00  0.00    +0.000 HD
ATOM      6  H   UNL     1     -12.723  53.374  50.790  0.00  0.00    +0.000 HD
ENDROOT
BRANCH   4   7
ATOM      7  C   UNL     1     -11.021  54.240  51.599  0.00  0.00    +0.000 A 
ATOM      8  S   UNL     1     -10.606  53.549  53.095  0.00  0.00    +0.000 S 
ATOM      9  C   UNL     1      -9.935  54.743  50.903  0.00  0.00    +0.000 A 
ATOM     10  C   UNL     1      -8.940  53.661  52.731  0.00  0.00    +0.000 A 
ATOM     11  C   UNL     1      -8.707  54.313  51.535  0.00  0.00    +0.000 A 
ATOM     12  C   UNL     1      -7.874  53.094  53.637  0.00  0.00    +0.000 C 
ATOM     13  C   UNL     1      -7.315  54.576  51.037  0.00  0.00    +0.000 C 
ATOM     14  C   UNL     1      -6.483  53.725  53.321  0.00  0.00    +0.000 C 
ATOM     15  C   UNL     1      -6.263  53.756  51.787  0.00  0.00    +0.000 C 
ATOM     16  C   UNL     1      -5.353  52.882  53.940  0.00  0.00    +0.000 C 
ATOM     17  C   UNL     1      -6.397  55.145  53.917  0.00  0.00    +0.000 C 
BRANCH   9  18
ATOM     18  C   UNL     1     -10.079  55.572  49.704  0.00  0.00    +0.000 C 
ATOM     19  O   UNL     1      -9.651  56.718  49.625  0.00  0.00    +0.000 OA
BRANCH  18  20
ATOM     20  O   UNL     1     -10.725  54.919  48.700  0.00  0.00    +0.000 OA
BRANCH  20  21
ATOM     21  C   UNL     1     -10.590  55.454  47.380  0.00  0.00    +0.000 C 
ATOM     22  C   UNL     1     -11.963  55.752  46.812  0.00  0.00    +0.000 C 
ENDBRANCH  20  21
ENDBRANCH  18  20
ENDBRANCH   9  18
ENDBRANCH   4   7
BRANCH   1  23
ATOM     23  S   UNL     1     -15.670  56.247  51.348  0.00  0.00    +0.000 S 
ATOM     24  O   UNL     1     -15.993  56.442  52.745  0.00  0.00    +0.000 OA
ATOM     25  O   UNL     1     -16.705  55.887  50.400  0.00  0.00    +0.000 OA
BRANCH  23  26
ATOM     26  C   UNL     1     -14.879  57.720  50.731  0.00  0.00    +0.000 A 
ATOM     27  C   UNL     1     -14.759  58.845  51.549  0.00  0.00    +0.000 A 
ATOM     28  C   UNL     1     -14.323  57.717  49.450  0.00  0.00    +0.000 A 
ATOM     29  C   UNL     1     -14.111  59.988  51.067  0.00  0.00    +0.000 A 
ATOM     30  C   UNL     1     -13.680  58.863  48.971  0.00  0.00    +0.000 A 
ATOM     31  C   UNL     1     -13.576  60.009  49.771  0.00  0.00    +0.000 A 
ATOM     32  C   UNL     1     -12.897  61.234  49.232  0.00  0.00    +0.000 C 
ENDBRANCH  23  26
ENDBRANCH   1  23
TORSDOF 6
ENDMDL
MODEL 7
REMARK VINA RESULT:      -6.4      1.337      1.768
REMARK  Name = 
REMARK  10 active torsions:
REMARK  status: ('A' for Active; 'I' for Inactive)
REMARK    1  A    between atoms: S_1  and  N_4
REMARK    2  A    between atoms: S_1  and  C_5
REMARK    3  A    between atoms: N_10  and  C_13
REMARK    4  A    between atoms: C_14  and  C_17
REMARK    5  A    between atoms: C_16  and  C_20
REMARK    6  A    between atoms: C_20  and  O_24
REMARK    7  A    between atoms: O_24  and  C_27
REMARK    8  A    between atoms: C_25  and  C_28
REMARK    9  A    between atoms: C_25  and  C_29
REMARK   10  A    between atoms: C_27  and  C_30
REMARK                            x       y       z     vdW  Elec       q    Type
REMARK                         _______ _______ _______ _____ _____    ______ ____
ROOT
ATOM      1  N   UNL     1      -8.476  51.827  49.501  0.00  0.00    +0.000 N 
ATOM      2  C   UNL     1      -9.676  52.511  49.619  0.00  0.00    +0.000 C 
ATOM      3  O   UNL     1     -10.740  52.024  49.269  0.00  0.00    +0.000 OA
ATOM      4  N   UNL     1      -9.528  53.816  50.058  0.00  0.00    +0.000 N 
ATOM      5  H   UNL     1      -7.654  52.284  49.791  0.00  0.00    +0.000 HD
ATOM      6  H   UNL     1      -8.643  54.174  50.299  0.00  0.00    +0.000 HD
ENDROOT
BRANCH   4   7
ATOM      7  C   UNL     1     -10.666  54.605  50.146  0.00  0.00    +0.000 A 
ATOM      8  S   UNL     1     -11.398  54.655  51.679  0.00  0.00    +0.000 S 
ATOM      9  C   UNL     1     -11.292  55.409  49.208  0.00  0.00    +0.000 A 
ATOM     10  C   UNL     1     -12.402  55.954  51.201  0.00  0.00    +0.000 A 
ATOM     11  C   UNL     1     -12.252  56.268  49.864  0.00  0.00    +0.000 A 
ATOM     12  C   UNL     1     -13.328  56.656  52.165  0.00  0.00    +0.000 C 
ATOM     13  C   UNL     1     -13.073  57.343  49.210  0.00  0.00    +0.000 C 
ATOM     14  C   UNL     1     -14.428  57.452  51.397  0.00  0.00    +0.000 C 
ATOM     15  C   UNL     1     -13.780  58.238  50.229  0.00  0.00    +0.000 C 
ATOM     16  C   UNL     1     -15.108  58.472  52.329  0.00  0.00    +0.000 C 
ATOM     17  C   UNL     1     -15.514  56.488  50.876  0.00  0.00    +0.000 C 
BRANCH   9  18
ATOM     18  C   UNL     1     -10.972  55.355  47.780  0.00  0.00    +0.000 C 
ATOM     19  O   UNL     1      -9.909  55.750  47.316  0.00  0.00    +0.000 OA
BRANCH  18  20
ATOM     20  O   UNL     1     -11.980  54.810  47.046  0.00  0.00    +0.000 OA
BRANCH  20  21
ATOM     21  C   UNL     1     -11.743  53.522  46.468  0.00  0.00    +0.000 C 
ATOM     22  C   UNL     1     -11.435  53.679  44.992  0.00  0.00    +0.000 C 
ENDBRANCH  20  21
ENDBRANCH  18  20
ENDBRANCH   9  18
ENDBRANCH   4   7
BRANCH   1  23
ATOM     23  S   UNL     1      -8.339  50.276  48.897  0.00  0.00    +0.000 S 
ATOM     24  O   UNL     1      -9.319  49.400  49.501  0.00  0.00    +0.000 OA
ATOM     25  O   UNL     1      -6.926  49.963  48.978  0.00  0.00    +0.000 OA
BRANCH  23  26
ATOM     26  C   UNL     1      -8.735  50.479  47.171  0.00  0.00    +0.000 A 
ATOM     27  C   UNL     1      -7.881  51.204  46.338  0.00  0.00    +0.000 A 
ATOM     28  C   UNL     1      -9.868  49.853  46.647  0.00  0.00    +0.000 A 
ATOM     29  C   UNL     1      -8.184  51.334  44.978  0.00  0.00    +0.000 A 
ATOM     30  C   UNL     1     -10.169  49.989  45.289  0.00  0.00    +0.000 A 
ATOM     31  C   UNL     1      -9.335  50.737  44.445  0.00  0.00    +0.000 A 
ATOM     32  C   UNL     1      -9.686  50.885  42.994  0.00  0.00    +0.000 C 
ENDBRANCH  23  26
ENDBRANCH   1  23
TORSDOF 6
ENDMDL
MODEL 8
REMARK VINA RESULT:      -6.4      3.620      8.124
REMARK  Name = 
REMARK  10 active torsions:
REMARK  status: ('A' for Active; 'I' for Inactive)
REMARK    1  A    between atoms: S_1  and  N_4
REMARK    2  A    between atoms: S_1  and  C_5
REMARK    3  A    between atoms: N_10  and  C_13
REMARK    4  A    between atoms: C_14  and  C_17
REMARK    5  A    between atoms: C_16  and  C_20
REMARK    6  A    between atoms: C_20  and  O_24
REMARK    7  A    between atoms: O_24  and  C_27
REMARK    8  A    between atoms: C_25  and  C_28
REMARK    9  A    between atoms: C_25  and  C_29
REMARK   10  A    between atoms: C_27  and  C_30
REMARK                            x       y       z     vdW  Elec       q    Type
REMARK                         _______ _______ _______ _____ _____    ______ ____
ROOT
ATOM      1  N   UNL     1     -12.960  55.364  49.459  0.00  0.00    +0.000 N 
ATOM      2  C   UNL     1     -11.858  55.183  50.279  0.00  0.00    +0.000 C 
ATOM      3  O   UNL     1     -11.247  56.122  50.767  0.00  0.00    +0.000 OA
ATOM      4  N   UNL     1     -11.461  53.860  50.389  0.00  0.00    +0.000 N 
ATOM      5  H   UNL     1     -13.397  54.563  49.089  0.00  0.00    +0.000 HD
ATOM      6  H   UNL     1     -11.968  53.140  49.950  0.00  0.00    +0.000 HD
ENDROOT
BRANCH   4   7
ATOM      7  C   UNL     1     -10.326  53.583  51.135  0.00  0.00    +0.000 A 
ATOM      8  S   UNL     1     -10.602  53.232  52.775  0.00  0.00    +0.000 S 
ATOM      9  C   UNL     1      -8.993  53.490  50.768  0.00  0.00    +0.000 A 
ATOM     10  C   UNL     1      -8.994  52.686  52.971  0.00  0.00    +0.000 A 
ATOM     11  C   UNL     1      -8.235  52.871  51.832  0.00  0.00    +0.000 A 
ATOM     12  C   UNL     1      -8.501  52.071  54.259  0.00  0.00    +0.000 C 
ATOM     13  C   UNL     1      -6.776  52.514  51.790  0.00  0.00    +0.000 C 
ATOM     14  C   UNL     1      -6.943  52.097  54.325  0.00  0.00    +0.000 C 
ATOM     15  C   UNL     1      -6.357  51.633  52.968  0.00  0.00    +0.000 C 
ATOM     16  C   UNL     1      -6.431  51.133  55.411  0.00  0.00    +0.000 C 
ATOM     17  C   UNL     1      -6.451  53.516  54.680  0.00  0.00    +0.000 C 
BRANCH   9  18
ATOM     18  C   UNL     1      -8.496  53.958  49.473  0.00  0.00    +0.000 C 
ATOM     19  O   UNL     1      -7.526  54.699  49.355  0.00  0.00    +0.000 OA
BRANCH  18  20
ATOM     20  O   UNL     1      -9.223  53.468  48.433  0.00  0.00    +0.000 OA
BRANCH  20  21
ATOM     21  C   UNL     1      -9.058  54.105  47.162  0.00  0.00    +0.000 C 
ATOM     22  C   UNL     1     -10.141  55.147  46.974  0.00  0.00    +0.000 C 
ENDBRANCH  20  21
ENDBRANCH  18  20
ENDBRANCH   9  18
ENDBRANCH   4   7
BRANCH   1  23
ATOM     23  S   UNL     1     -13.594  56.857  49.060  0.00  0.00    +0.000 S 
ATOM     24  O   UNL     1     -14.692  56.718  48.129  0.00  0.00    +0.000 OA
ATOM     25  O   UNL     1     -12.447  57.676  48.725  0.00  0.00    +0.000 OA
BRANCH  23  26
ATOM     26  C   UNL     1     -14.231  57.453  50.615  0.00  0.00    +0.000 A 
ATOM     27  C   UNL     1     -14.187  58.817  50.912  0.00  0.00    +0.000 A 
ATOM     28  C   UNL     1     -14.832  56.557  51.502  0.00  0.00    +0.000 A 
ATOM     29  C   UNL     1     -14.714  59.281  52.122  0.00  0.00    +0.000 A 
ATOM     30  C   UNL     1     -15.354  57.025  52.712  0.00  0.00    +0.000 A 
ATOM     31  C   UNL     1     -15.292  58.388  53.035  0.00  0.00    +0.000 A 
ATOM     32  C   UNL     1     -15.844  58.866  54.346  0.00  0.00    +0.000 C 
ENDBRANCH  23  26
ENDBRANCH   1  23
TORSDOF 6
ENDMDL
MODEL 9
REMARK VINA RESULT:      -6.3      3.507      8.883
REMARK  Name = 
REMARK  10 active torsions:
REMARK  status: ('A' for Active; 'I' for Inactive)
REMARK    1  A    between atoms: S_1  and  N_4
REMARK    2  A    between atoms: S_1  and  C_5
REMARK    3  A    between atoms: N_10  and  C_13
REMARK    4  A    between atoms: C_14  and  C_17
REMARK    5  A    between atoms: C_16  and  C_20
REMARK    6  A    between atoms: C_20  and  O_24
REMARK    7  A    between atoms: O_24  and  C_27
REMARK    8  A    between atoms: C_25  and  C_28
REMARK    9  A    between atoms: C_25  and  C_29
REMARK   10  A    between atoms: C_27  and  C_30
REMARK                            x       y       z     vdW  Elec       q    Type
REMARK                         _______ _______ _______ _____ _____    ______ ____
ROOT
ATOM      1  N   UNL     1     -11.852  56.914  49.271  0.00  0.00    +0.000 N 
ATOM      2  C   UNL     1     -11.001  55.832  49.106  0.00  0.00    +0.000 C 
ATOM      3  O   UNL     1     -11.408  54.725  48.792  0.00  0.00    +0.000 OA
ATOM      4  N   UNL     1      -9.685  56.108  49.442  0.00  0.00    +0.000 N 
ATOM      5  H   UNL     1     -11.457  57.776  49.537  0.00  0.00    +0.000 HD
ATOM      6  H   UNL     1      -9.410  57.011  49.721  0.00  0.00    +0.000 HD
ENDROOT
BRANCH   4   7
ATOM      7  C   UNL     1      -8.767  55.070  49.374  0.00  0.00    +0.000 A 
ATOM      8  S   UNL     1      -8.128  54.766  47.829  0.00  0.00    +0.000 S 
ATOM      9  C   UNL     1      -8.234  54.259  50.362  0.00  0.00    +0.000 A 
ATOM     10  C   UNL     1      -6.931  53.734  48.483  0.00  0.00    +0.000 A 
ATOM     11  C   UNL     1      -7.090  53.544  49.843  0.00  0.00    +0.000 A 
ATOM     12  C   UNL     1      -5.839  53.125  47.637  0.00  0.00    +0.000 C 
ATOM     13  C   UNL     1      -6.186  52.632  50.622  0.00  0.00    +0.000 C 
ATOM     14  C   UNL     1      -5.196  51.901  48.359  0.00  0.00    +0.000 C 
ATOM     15  C   UNL     1      -4.923  52.257  49.842  0.00  0.00    +0.000 C 
ATOM     16  C   UNL     1      -3.849  51.535  47.709  0.00  0.00    +0.000 C 
ATOM     17  C   UNL     1      -6.124  50.673  48.251  0.00  0.00    +0.000 C 
BRANCH   9  18
ATOM     18  C   UNL     1      -8.789  54.192  51.716  0.00  0.00    +0.000 C 
ATOM     19  O   UNL     1      -9.298  53.180  52.183  0.00  0.00    +0.000 OA
BRANCH  18  20
ATOM     20  O   UNL     1      -8.662  55.371  52.384  0.00  0.00    +0.000 OA
BRANCH  20  21
ATOM     21  C   UNL     1      -7.347  55.740  52.811  0.00  0.00    +0.000 C 
ATOM     22  C   UNL     1      -7.189  55.430  54.286  0.00  0.00    +0.000 C 
ENDBRANCH  20  21
ENDBRANCH  18  20
ENDBRANCH   9  18
ENDBRANCH   4   7
BRANCH   1  23
ATOM     23  S   UNL     1     -13.505  56.847  49.043  0.00  0.00    +0.000 S 
ATOM     24  O   UNL     1     -13.963  55.475  49.001  0.00  0.00    +0.000 OA
ATOM     25  O   UNL     1     -13.770  57.743  47.936  0.00  0.00    +0.000 OA
BRANCH  23  26
ATOM     26  C   UNL     1     -14.146  57.622  50.514  0.00  0.00    +0.000 A 
ATOM     27  C   UNL     1     -14.007  56.994  51.754  0.00  0.00    +0.000 A 
ATOM     28  C   UNL     1     -14.727  58.889  50.427  0.00  0.00    +0.000 A 
ATOM     29  C   UNL     1     -14.489  57.622  52.908  0.00  0.00    +0.000 A 
ATOM     30  C   UNL     1     -15.210  59.511  51.582  0.00  0.00    +0.000 A 
ATOM     31  C   UNL     1     -15.103  58.880  52.830  0.00  0.00    +0.000 A 
ATOM     32  C   UNL     1     -15.642  59.558  54.055  0.00  0.00    +0.000 C 
ENDBRANCH  23  26
ENDBRANCH   1  23
TORSDOF 6
ENDMDL
