MODEL 1
REMARK VINA RESULT:      -8.0      0.000      0.000
REMARK  Name = 
REMARK  9 active torsions:
REMARK  status: ('A' for Active; 'I' for Inactive)
REMARK    1  A    between atoms: S_1  and  N_4
REMARK    2  A    between atoms: S_1  and  C_5
REMARK    3  A    between atoms: N_10  and  C_13
REMARK    4  A    between atoms: C_16  and  C_20
REMARK    5  A    between atoms: C_20  and  O_24
REMARK    6  A    between atoms: O_24  and  C_27
REMARK    7  A    between atoms: C_25  and  C_28
REMARK    8  A    between atoms: C_25  and  C_29
REMARK    9  A    between atoms: C_27  and  C_30
REMARK                            x       y       z     vdW  Elec       q    Type
REMARK                         _______ _______ _______ _____ _____    ______ ____
ROOT
ATOM      1  N   UNL     1     -14.403  55.191  51.176  0.00  0.00    +0.000 N 
ATOM      2  C   UNL     1     -13.103  55.338  51.634  0.00  0.00    +0.000 C 
ATOM      3  O   UNL     1     -12.729  56.351  52.206  0.00  0.00    +0.000 OA
ATOM      4  N   UNL     1     -12.272  54.292  51.269  0.00  0.00    +0.000 N 
ATOM      5  H   UNL     1     -14.647  54.350  50.728  0.00  0.00    +0.000 HD
ATOM      6  H   UNL     1     -12.627  53.511  50.787  0.00  0.00    +0.000 HD
ENDROOT
BRANCH   4   7
ATOM      7  C   UNL     1     -10.928  54.372  51.599  0.00  0.00    +0.000 A 
ATOM      8  S   UNL     1     -10.511  53.690  53.098  0.00  0.00    +0.000 S 
ATOM      9  C   UNL     1      -9.846  54.869  50.896  0.00  0.00    +0.000 A 
ATOM     10  C   UNL     1      -8.848  53.795  52.730  0.00  0.00    +0.000 A 
ATOM     11  C   UNL     1      -8.617  54.442  51.527  0.00  0.00    +0.000 A 
ATOM     12  C   UNL     1      -7.778  53.232  53.633  0.00  0.00    +0.000 C 
ATOM     13  C   UNL     1      -7.227  54.702  51.024  0.00  0.00    +0.000 C 
ATOM     14  C   UNL     1      -6.388  53.862  53.311  0.00  0.00    +0.000 C 
ATOM     15  C   UNL     1      -6.173  53.885  51.776  0.00  0.00    +0.000 C 
ATOM     16  C   UNL     1      -5.257  53.022  53.930  0.00  0.00    +0.000 C 
ATOM     17  C   UNL     1      -6.302  55.285  53.900  0.00  0.00    +0.000 C 
BRANCH   9  18
ATOM     18  C   UNL     1      -9.994  55.691  49.690  0.00  0.00    +0.000 C 
ATOM     19  O   UNL     1      -9.556  56.831  49.603  0.00  0.00    +0.000 OA
BRANCH  18  20
ATOM     20  O   UNL     1     -10.658  55.038  48.700  0.00  0.00    +0.000 OA
BRANCH  20  21
ATOM     21  C   UNL     1     -11.701  55.756  48.035  0.00  0.00    +0.000 C 
ATOM     22  C   UNL     1     -11.609  55.513  46.542  0.00  0.00    +0.000 C 
ENDBRANCH  20  21
ENDBRANCH  18  20
ENDBRANCH   9  18
ENDBRANCH   4   7
BRANCH   1  23
ATOM     23  S   UNL     1     -15.572  56.361  51.340  0.00  0.00    +0.000 S 
ATOM     24  O   UNL     1     -15.872  56.545  52.742  0.00  0.00    +0.000 OA
ATOM     25  O   UNL     1     -16.614  55.994  50.403  0.00  0.00    +0.000 OA
BRANCH  23  26
ATOM     26  C   UNL     1     -14.820  57.845  50.704  0.00  0.00    +0.000 A 
ATOM     27  C   UNL     1     -14.665  58.960  51.542  0.00  0.00    +0.000 A 
ATOM     28  C   UNL     1     -14.345  57.875  49.386  0.00  0.00    +0.000 A 
ATOM     29  C   UNL     1     -14.057  60.111  51.043  0.00  0.00    +0.000 A 
ATOM     30  C   UNL     1     -13.732  59.031  48.899  0.00  0.00    +0.000 A 
ATOM     31  C   UNL     1     -13.595  60.139  49.727  0.00  0.00    +0.000 A 
ATOM     32  F   UNL     1     -13.011  61.246  49.258  0.00  0.00    +0.000 F 
ENDBRANCH  23  26
ENDBRANCH   1  23
TORSDOF 6
ENDMDL
MODEL 2
REMARK VINA RESULT:      -7.6      4.334      7.705
REMARK  Name = 
REMARK  9 active torsions:
REMARK  status: ('A' for Active; 'I' for Inactive)
REMARK    1  A    between atoms: S_1  and  N_4
REMARK    2  A    between atoms: S_1  and  C_5
REMARK    3  A    between atoms: N_10  and  C_13
REMARK    4  A    between atoms: C_16  and  C_20
REMARK    5  A    between atoms: C_20  and  O_24
REMARK    6  A    between atoms: O_24  and  C_27
REMARK    7  A    between atoms: C_25  and  C_28
REMARK    8  A    between atoms: C_25  and  C_29
REMARK    9  A    between atoms: C_27  and  C_30
REMARK                            x       y       z     vdW  Elec       q    Type
REMARK                         _______ _______ _______ _____ _____    ______ ____
ROOT
ATOM      1  N   UNL     1      -9.684  51.769  48.631  0.00  0.00    +0.000 N 
ATOM      2  C   UNL     1     -10.765  52.596  48.890  0.00  0.00    +0.000 C 
ATOM      3  O   UNL     1     -11.870  52.383  48.415  0.00  0.00    +0.000 OA
ATOM      4  N   UNL     1     -10.430  53.724  49.621  0.00  0.00    +0.000 N 
ATOM      5  H   UNL     1      -8.819  51.988  49.047  0.00  0.00    +0.000 HD
ATOM      6  H   UNL     1      -9.514  53.852  49.957  0.00  0.00    +0.000 HD
ENDROOT
BRANCH   4   7
ATOM      7  C   UNL     1     -11.415  54.667  49.866  0.00  0.00    +0.000 A 
ATOM      8  S   UNL     1     -12.101  54.609  51.419  0.00  0.00    +0.000 S 
ATOM      9  C   UNL     1     -11.912  55.690  49.079  0.00  0.00    +0.000 A 
ATOM     10  C   UNL     1     -12.878  56.109  51.178  0.00  0.00    +0.000 A 
ATOM     11  C   UNL     1     -12.703  56.589  49.891  0.00  0.00    +0.000 A 
ATOM     12  C   UNL     1     -13.654  56.807  52.267  0.00  0.00    +0.000 C 
ATOM     13  C   UNL     1     -13.343  57.866  49.430  0.00  0.00    +0.000 C 
ATOM     14  C   UNL     1     -14.621  57.874  51.667  0.00  0.00    +0.000 C 
ATOM     15  C   UNL     1     -13.872  58.706  50.595  0.00  0.00    +0.000 C 
ATOM     16  C   UNL     1     -15.102  58.844  52.762  0.00  0.00    +0.000 C 
ATOM     17  C   UNL     1     -15.861  57.185  51.062  0.00  0.00    +0.000 C 
BRANCH   9  18
ATOM     18  C   UNL     1     -11.630  55.796  47.644  0.00  0.00    +0.000 C 
ATOM     19  O   UNL     1     -12.506  55.948  46.801  0.00  0.00    +0.000 OA
BRANCH  18  20
ATOM     20  O   UNL     1     -10.301  55.712  47.373  0.00  0.00    +0.000 OA
BRANCH  20  21
ATOM     21  C   UNL     1      -9.914  54.887  46.270  0.00  0.00    +0.000 C 
ATOM     22  C   UNL     1      -8.412  54.968  46.080  0.00  0.00    +0.000 C 
ENDBRANCH  20  21
ENDBRANCH  18  20
ENDBRANCH   9  18
ENDBRANCH   4   7
BRANCH   1  23
ATOM     23  S   UNL     1      -9.767  50.427  47.655  0.00  0.00    +0.000 S 
ATOM     24  O   UNL     1     -11.026  49.752  47.874  0.00  0.00    +0.000 OA
ATOM     25  O   UNL     1      -8.512  49.731  47.854  0.00  0.00    +0.000 OA
BRANCH  23  26
ATOM     26  C   UNL     1      -9.729  51.072  45.995  0.00  0.00    +0.000 A 
ATOM     27  C   UNL     1     -10.932  51.376  45.340  0.00  0.00    +0.000 A 
ATOM     28  C   UNL     1      -8.499  51.316  45.370  0.00  0.00    +0.000 A 
ATOM     29  C   UNL     1     -10.895  51.900  44.049  0.00  0.00    +0.000 A 
ATOM     30  C   UNL     1      -8.473  51.846  44.080  0.00  0.00    +0.000 A 
ATOM     31  C   UNL     1      -9.668  52.131  43.428  0.00  0.00    +0.000 A 
ATOM     32  F   UNL     1      -9.641  52.637  42.191  0.00  0.00    +0.000 F 
ENDBRANCH  23  26
ENDBRANCH   1  23
TORSDOF 6
ENDMDL
MODEL 3
REMARK VINA RESULT:      -7.4      2.586      3.212
REMARK  Name = 
REMARK  9 active torsions:
REMARK  status: ('A' for Active; 'I' for Inactive)
REMARK    1  A    between atoms: S_1  and  N_4
REMARK    2  A    between atoms: S_1  and  C_5
REMARK    3  A    between atoms: N_10  and  C_13
REMARK    4  A    between atoms: C_16  and  C_20
REMARK    5  A    between atoms: C_20  and  O_24
REMARK    6  A    between atoms: O_24  and  C_27
REMARK    7  A    between atoms: C_25  and  C_28
REMARK    8  A    between atoms: C_25  and  C_29
REMARK    9  A    between atoms: C_27  and  C_30
REMARK                            x       y       z     vdW  Elec       q    Type
REMARK                         _______ _______ _______ _____ _____    ______ ____
ROOT
ATOM      1  N   UNL     1     -12.313  57.204  49.178  0.00  0.00    +0.000 N 
ATOM      2  C   UNL     1     -11.881  56.021  49.755  0.00  0.00    +0.000 C 
ATOM      3  O   UNL     1     -12.663  55.195  50.201  0.00  0.00    +0.000 OA
ATOM      4  N   UNL     1     -10.504  55.943  49.881  0.00  0.00    +0.000 N 
ATOM      5  H   UNL     1     -11.636  57.828  48.831  0.00  0.00    +0.000 HD
ATOM      6  H   UNL     1      -9.924  56.653  49.523  0.00  0.00    +0.000 HD
ENDROOT
BRANCH   4   7
ATOM      7  C   UNL     1      -9.962  54.842  50.524  0.00  0.00    +0.000 A 
ATOM      8  S   UNL     1      -9.883  54.960  52.217  0.00  0.00    +0.000 S 
ATOM      9  C   UNL     1      -9.512  53.630  50.033  0.00  0.00    +0.000 A 
ATOM     10  C   UNL     1      -9.504  53.302  52.358  0.00  0.00    +0.000 A 
ATOM     11  C   UNL     1      -9.333  52.697  51.123  0.00  0.00    +0.000 A 
ATOM     12  C   UNL     1      -9.382  52.605  53.690  0.00  0.00    +0.000 C 
ATOM     13  C   UNL     1      -8.938  51.255  50.998  0.00  0.00    +0.000 C 
ATOM     14  C   UNL     1      -8.590  51.270  53.551  0.00  0.00    +0.000 C 
ATOM     15  C   UNL     1      -9.103  50.490  52.314  0.00  0.00    +0.000 C 
ATOM     16  C   UNL     1      -8.806  50.381  54.789  0.00  0.00    +0.000 C 
ATOM     17  C   UNL     1      -7.079  51.559  53.431  0.00  0.00    +0.000 C 
BRANCH   9  18
ATOM     18  C   UNL     1      -9.283  53.390  48.604  0.00  0.00    +0.000 C 
ATOM     19  O   UNL     1      -8.198  53.050  48.150  0.00  0.00    +0.000 OA
BRANCH  18  20
ATOM     20  O   UNL     1     -10.407  53.580  47.863  0.00  0.00    +0.000 OA
BRANCH  20  21
ATOM     21  C   UNL     1     -10.263  54.314  46.643  0.00  0.00    +0.000 C 
ATOM     22  C   UNL     1     -11.601  54.910  46.252  0.00  0.00    +0.000 C 
ENDBRANCH  20  21
ENDBRANCH  18  20
ENDBRANCH   9  18
ENDBRANCH   4   7
BRANCH   1  23
ATOM     23  S   UNL     1     -13.914  57.627  49.039  0.00  0.00    +0.000 S 
ATOM     24  O   UNL     1     -14.643  56.547  48.413  0.00  0.00    +0.000 OA
ATOM     25  O   UNL     1     -13.909  58.952  48.454  0.00  0.00    +0.000 OA
BRANCH  23  26
ATOM     26  C   UNL     1     -14.479  57.818  50.718  0.00  0.00    +0.000 A 
ATOM     27  C   UNL     1     -14.220  59.013  51.406  0.00  0.00    +0.000 A 
ATOM     28  C   UNL     1     -15.217  56.794  51.325  0.00  0.00    +0.000 A 
ATOM     29  C   UNL     1     -14.683  59.164  52.712  0.00  0.00    +0.000 A 
ATOM     30  C   UNL     1     -15.681  56.958  52.631  0.00  0.00    +0.000 A 
ATOM     31  C   UNL     1     -15.409  58.137  53.316  0.00  0.00    +0.000 A 
ATOM     32  F   UNL     1     -15.852  58.291  54.567  0.00  0.00    +0.000 F 
ENDBRANCH  23  26
ENDBRANCH   1  23
TORSDOF 6
ENDMDL
MODEL 4
REMARK VINA RESULT:      -7.4      3.352      7.769
REMARK  Name = 
REMARK  9 active torsions:
REMARK  status: ('A' for Active; 'I' for Inactive)
REMARK    1  A    between atoms: S_1  and  N_4
REMARK    2  A    between atoms: S_1  and  C_5
REMARK    3  A    between atoms: N_10  and  C_13
REMARK    4  A    between atoms: C_16  and  C_20
REMARK    5  A    between atoms: C_20  and  O_24
REMARK    6  A    between atoms: O_24  and  C_27
REMARK    7  A    between atoms: C_25  and  C_28
REMARK    8  A    between atoms: C_25  and  C_29
REMARK    9  A    between atoms: C_27  and  C_30
REMARK                            x       y       z     vdW  Elec       q    Type
REMARK                         _______ _______ _______ _____ _____    ______ ____
ROOT
ATOM      1  N   UNL     1      -8.139  52.991  49.541  0.00  0.00    +0.000 N 
ATOM      2  C   UNL     1      -9.034  54.034  49.718  0.00  0.00    +0.000 C 
ATOM      3  O   UNL     1      -8.672  55.140  50.089  0.00  0.00    +0.000 OA
ATOM      4  N   UNL     1     -10.356  53.657  49.555  0.00  0.00    +0.000 N 
ATOM      5  H   UNL     1      -8.489  52.124  49.235  0.00  0.00    +0.000 HD
ATOM      6  H   UNL     1     -10.588  52.741  49.277  0.00  0.00    +0.000 HD
ENDROOT
BRANCH   4   7
ATOM      7  C   UNL     1     -11.345  54.598  49.793  0.00  0.00    +0.000 A 
ATOM      8  S   UNL     1     -11.983  54.593  51.367  0.00  0.00    +0.000 S 
ATOM      9  C   UNL     1     -11.877  55.584  48.983  0.00  0.00    +0.000 A 
ATOM     10  C   UNL     1     -12.785  56.073  51.093  0.00  0.00    +0.000 A 
ATOM     11  C   UNL     1     -12.655  56.505  49.783  0.00  0.00    +0.000 A 
ATOM     12  C   UNL     1     -13.538  56.805  52.177  0.00  0.00    +0.000 C 
ATOM     13  C   UNL     1     -13.324  57.756  49.293  0.00  0.00    +0.000 C 
ATOM     14  C   UNL     1     -14.535  57.836  51.566  0.00  0.00    +0.000 C 
ATOM     15  C   UNL     1     -13.829  58.634  50.440  0.00  0.00    +0.000 C 
ATOM     16  C   UNL     1     -14.996  58.842  52.636  0.00  0.00    +0.000 C 
ATOM     17  C   UNL     1     -15.784  57.110  51.025  0.00  0.00    +0.000 C 
BRANCH   9  18
ATOM     18  C   UNL     1     -11.640  55.637  47.537  0.00  0.00    +0.000 C 
ATOM     19  O   UNL     1     -12.545  55.637  46.711  0.00  0.00    +0.000 OA
BRANCH  18  20
ATOM     20  O   UNL     1     -10.316  55.691  47.234  0.00  0.00    +0.000 OA
BRANCH  20  21
ATOM     21  C   UNL     1      -9.844  54.799  46.220  0.00  0.00    +0.000 C 
ATOM     22  C   UNL     1      -8.333  54.878  46.140  0.00  0.00    +0.000 C 
ENDBRANCH  20  21
ENDBRANCH  18  20
ENDBRANCH   9  18
ENDBRANCH   4   7
BRANCH   1  23
ATOM     23  S   UNL     1      -6.507  53.124  49.819  0.00  0.00    +0.000 S 
ATOM     24  O   UNL     1      -5.995  54.285  49.128  0.00  0.00    +0.000 OA
ATOM     25  O   UNL     1      -5.965  51.807  49.551  0.00  0.00    +0.000 OA
BRANCH  23  26
ATOM     26  C   UNL     1      -6.366  53.380  51.577  0.00  0.00    +0.000 A 
ATOM     27  C   UNL     1      -5.620  54.463  52.063  0.00  0.00    +0.000 A 
ATOM     28  C   UNL     1      -7.040  52.526  52.461  0.00  0.00    +0.000 A 
ATOM     29  C   UNL     1      -5.531  54.670  53.439  0.00  0.00    +0.000 A 
ATOM     30  C   UNL     1      -6.949  52.745  53.836  0.00  0.00    +0.000 A 
ATOM     31  C   UNL     1      -6.195  53.811  54.315  0.00  0.00    +0.000 A 
ATOM     32  F   UNL     1      -6.108  54.018  55.633  0.00  0.00    +0.000 F 
ENDBRANCH  23  26
ENDBRANCH   1  23
TORSDOF 6
ENDMDL
MODEL 5
REMARK VINA RESULT:      -7.4      2.426      3.033
REMARK  Name = 
REMARK  9 active torsions:
REMARK  status: ('A' for Active; 'I' for Inactive)
REMARK    1  A    between atoms: S_1  and  N_4
REMARK    2  A    between atoms: S_1  and  C_5
REMARK    3  A    between atoms: N_10  and  C_13
REMARK    4  A    between atoms: C_16  and  C_20
REMARK    5  A    between atoms: C_20  and  O_24
REMARK    6  A    between atoms: O_24  and  C_27
REMARK    7  A    between atoms: C_25  and  C_28
REMARK    8  A    between atoms: C_25  and  C_29
REMARK    9  A    between atoms: C_27  and  C_30
REMARK                            x       y       z     vdW  Elec       q    Type
REMARK                         _______ _______ _______ _____ _____    ______ ____
ROOT
ATOM      1  N   UNL     1     -11.751  56.795  49.170  0.00  0.00    +0.000 N 
ATOM      2  C   UNL     1     -10.747  55.924  49.563  0.00  0.00    +0.000 C 
ATOM      3  O   UNL     1     -10.992  54.810  50.000  0.00  0.00    +0.000 OA
ATOM      4  N   UNL     1      -9.484  56.491  49.526  0.00  0.00    +0.000 N 
ATOM      5  H   UNL     1     -11.492  57.677  48.820  0.00  0.00    +0.000 HD
ATOM      6  H   UNL     1      -9.352  57.405  49.185  0.00  0.00    +0.000 HD
ENDROOT
BRANCH   4   7
ATOM      7  C   UNL     1      -8.411  55.742  49.980  0.00  0.00    +0.000 A 
ATOM      8  S   UNL     1      -7.971  56.018  51.597  0.00  0.00    +0.000 S 
ATOM      9  C   UNL     1      -7.656  54.763  49.361  0.00  0.00    +0.000 A 
ATOM     10  C   UNL     1      -6.946  54.654  51.596  0.00  0.00    +0.000 A 
ATOM     11  C   UNL     1      -6.860  54.064  50.346  0.00  0.00    +0.000 A 
ATOM     12  C   UNL     1      -6.234  54.169  52.835  0.00  0.00    +0.000 C 
ATOM     13  C   UNL     1      -5.972  52.882  50.089  0.00  0.00    +0.000 C 
ATOM     14  C   UNL     1      -5.040  53.238  52.464  0.00  0.00    +0.000 C 
ATOM     15  C   UNL     1      -5.492  52.222  51.384  0.00  0.00    +0.000 C 
ATOM     16  C   UNL     1      -4.576  52.438  53.695  0.00  0.00    +0.000 C 
ATOM     17  C   UNL     1      -3.847  54.078  51.965  0.00  0.00    +0.000 C 
BRANCH   9  18
ATOM     18  C   UNL     1      -7.711  54.514  47.916  0.00  0.00    +0.000 C 
ATOM     19  O   UNL     1      -6.741  54.639  47.180  0.00  0.00    +0.000 OA
BRANCH  18  20
ATOM     20  O   UNL     1      -8.949  54.129  47.507  0.00  0.00    +0.000 OA
BRANCH  20  21
ATOM     21  C   UNL     1      -9.427  54.680  46.277  0.00  0.00    +0.000 C 
ATOM     22  C   UNL     1     -10.934  54.533  46.209  0.00  0.00    +0.000 C 
ENDBRANCH  20  21
ENDBRANCH  18  20
ENDBRANCH   9  18
ENDBRANCH   4   7
BRANCH   1  23
ATOM     23  S   UNL     1     -13.370  56.429  49.257  0.00  0.00    +0.000 S 
ATOM     24  O   UNL     1     -13.529  55.031  49.588  0.00  0.00    +0.000 OA
ATOM     25  O   UNL     1     -13.950  56.972  48.046  0.00  0.00    +0.000 OA
BRANCH  23  26
ATOM     26  C   UNL     1     -13.986  57.422  50.602  0.00  0.00    +0.000 A 
ATOM     27  C   UNL     1     -14.593  58.658  50.332  0.00  0.00    +0.000 A 
ATOM     28  C   UNL     1     -13.904  56.943  51.916  0.00  0.00    +0.000 A 
ATOM     29  C   UNL     1     -15.091  59.420  51.387  0.00  0.00    +0.000 A 
ATOM     30  C   UNL     1     -14.411  57.711  52.964  0.00  0.00    +0.000 A 
ATOM     31  C   UNL     1     -14.998  58.944  52.694  0.00  0.00    +0.000 A 
ATOM     32  F   UNL     1     -15.481  59.679  53.700  0.00  0.00    +0.000 F 
ENDBRANCH  23  26
ENDBRANCH   1  23
TORSDOF 6
ENDMDL
MODEL 6
REMARK VINA RESULT:      -7.3      2.649      4.311
REMARK  Name = 
REMARK  9 active torsions:
REMARK  status: ('A' for Active; 'I' for Inactive)
REMARK    1  A    between atoms: S_1  and  N_4
REMARK    2  A    between atoms: S_1  and  C_5
REMARK    3  A    between atoms: N_10  and  C_13
REMARK    4  A    between atoms: C_16  and  C_20
REMARK    5  A    between atoms: C_20  and  O_24
REMARK    6  A    between atoms: O_24  and  C_27
REMARK    7  A    between atoms: C_25  and  C_28
REMARK    8  A    between atoms: C_25  and  C_29
REMARK    9  A    between atoms: C_27  and  C_30
REMARK                            x       y       z     vdW  Elec       q    Type
REMARK                         _______ _______ _______ _____ _____    ______ ____
ROOT
ATOM      1  N   UNL     1     -11.677  55.504  51.157  0.00  0.00    +0.000 N 
ATOM      2  C   UNL     1     -10.430  55.000  50.825  0.00  0.00    +0.000 C 
ATOM      3  O   UNL     1      -9.974  55.095  49.695  0.00  0.00    +0.000 OA
ATOM      4  N   UNL     1      -9.836  54.287  51.852  0.00  0.00    +0.000 N 
ATOM      5  H   UNL     1     -11.989  55.403  52.085  0.00  0.00    +0.000 HD
ATOM      6  H   UNL     1     -10.264  54.225  52.736  0.00  0.00    +0.000 HD
ENDROOT
BRANCH   4   7
ATOM      7  C   UNL     1      -8.623  53.662  51.606  0.00  0.00    +0.000 A 
ATOM      8  S   UNL     1      -8.732  52.027  51.159  0.00  0.00    +0.000 S 
ATOM      9  C   UNL     1      -7.330  54.150  51.612  0.00  0.00    +0.000 A 
ATOM     10  C   UNL     1      -7.089  52.000  50.700  0.00  0.00    +0.000 A 
ATOM     11  C   UNL     1      -6.444  53.191  50.988  0.00  0.00    +0.000 A 
ATOM     12  C   UNL     1      -6.444  50.799  50.051  0.00  0.00    +0.000 C 
ATOM     13  C   UNL     1      -4.979  53.381  50.725  0.00  0.00    +0.000 C 
ATOM     14  C   UNL     1      -4.891  50.866  50.172  0.00  0.00    +0.000 C 
ATOM     15  C   UNL     1      -4.406  52.294  49.813  0.00  0.00    +0.000 C 
ATOM     16  C   UNL     1      -4.230  49.885  49.187  0.00  0.00    +0.000 C 
ATOM     17  C   UNL     1      -4.453  50.478  51.598  0.00  0.00    +0.000 C 
BRANCH   9  18
ATOM     18  C   UNL     1      -6.978  55.459  52.173  0.00  0.00    +0.000 C 
ATOM     19  O   UNL     1      -7.379  56.516  51.703  0.00  0.00    +0.000 OA
BRANCH  18  20
ATOM     20  O   UNL     1      -6.173  55.352  53.263  0.00  0.00    +0.000 OA
BRANCH  20  21
ATOM     21  C   UNL     1      -6.779  54.895  54.476  0.00  0.00    +0.000 C 
ATOM     22  C   UNL     1      -6.105  53.614  54.925  0.00  0.00    +0.000 C 
ENDBRANCH  20  21
ENDBRANCH  18  20
ENDBRANCH   9  18
ENDBRANCH   4   7
BRANCH   1  23
ATOM     23  S   UNL     1     -12.676  56.272  50.073  0.00  0.00    +0.000 S 
ATOM     24  O   UNL     1     -13.509  55.293  49.413  0.00  0.00    +0.000 OA
ATOM     25  O   UNL     1     -11.810  57.143  49.306  0.00  0.00    +0.000 OA
BRANCH  23  26
ATOM     26  C   UNL     1     -13.700  57.332  51.074  0.00  0.00    +0.000 A 
ATOM     27  C   UNL     1     -13.981  56.975  52.402  0.00  0.00    +0.000 A 
ATOM     28  C   UNL     1     -14.180  58.538  50.545  0.00  0.00    +0.000 A 
ATOM     29  C   UNL     1     -14.766  57.820  53.185  0.00  0.00    +0.000 A 
ATOM     30  C   UNL     1     -14.960  59.379  51.340  0.00  0.00    +0.000 A 
ATOM     31  C   UNL     1     -15.249  59.014  52.651  0.00  0.00    +0.000 A 
ATOM     32  F   UNL     1     -15.999  59.819  53.410  0.00  0.00    +0.000 F 
ENDBRANCH  23  26
ENDBRANCH   1  23
TORSDOF 6
ENDMDL
MODEL 7
REMARK VINA RESULT:      -7.2      4.443      7.627
REMARK  Name = 
REMARK  9 active torsions:
REMARK  status: ('A' for Active; 'I' for Inactive)
REMARK    1  A    between atoms: S_1  and  N_4
REMARK    2  A    between atoms: S_1  and  C_5
REMARK    3  A    between atoms: N_10  and  C_13
REMARK    4  A    between atoms: C_16  and  C_20
REMARK    5  A    between atoms: C_20  and  O_24
REMARK    6  A    between atoms: O_24  and  C_27
REMARK    7  A    between atoms: C_25  and  C_28
REMARK    8  A    between atoms: C_25  and  C_29
REMARK    9  A    between atoms: C_27  and  C_30
REMARK                            x       y       z     vdW  Elec       q    Type
REMARK                         _______ _______ _______ _____ _____    ______ ____
ROOT
ATOM      1  N   UNL     1      -7.588  56.004  50.351  0.00  0.00    +0.000 N 
ATOM      2  C   UNL     1      -8.095  55.141  49.393  0.00  0.00    +0.000 C 
ATOM      3  O   UNL     1      -8.212  53.942  49.598  0.00  0.00    +0.000 OA
ATOM      4  N   UNL     1      -8.327  55.752  48.172  0.00  0.00    +0.000 N 
ATOM      5  H   UNL     1      -7.523  56.960  50.130  0.00  0.00    +0.000 HD
ATOM      6  H   UNL     1      -8.191  56.721  48.060  0.00  0.00    +0.000 HD
ENDROOT
BRANCH   4   7
ATOM      7  C   UNL     1      -8.753  54.968  47.112  0.00  0.00    +0.000 A 
ATOM      8  S   UNL     1      -7.514  54.216  46.226  0.00  0.00    +0.000 S 
ATOM      9  C   UNL     1     -10.023  54.646  46.670  0.00  0.00    +0.000 A 
ATOM     10  C   UNL     1      -8.640  53.230  45.407  0.00  0.00    +0.000 A 
ATOM     11  C   UNL     1      -9.948  53.551  45.728  0.00  0.00    +0.000 A 
ATOM     12  C   UNL     1      -8.223  52.139  44.452  0.00  0.00    +0.000 C 
ATOM     13  C   UNL     1     -11.113  52.855  45.085  0.00  0.00    +0.000 C 
ATOM     14  C   UNL     1      -9.404  51.734  43.518  0.00  0.00    +0.000 C 
ATOM     15  C   UNL     1     -10.697  51.575  44.357  0.00  0.00    +0.000 C 
ATOM     16  C   UNL     1      -9.117  50.382  42.839  0.00  0.00    +0.000 C 
ATOM     17  C   UNL     1      -9.592  52.792  42.412  0.00  0.00    +0.000 C 
BRANCH   9  18
ATOM     18  C   UNL     1     -11.226  55.343  47.138  0.00  0.00    +0.000 C 
ATOM     19  O   UNL     1     -11.944  56.003  46.398  0.00  0.00    +0.000 OA
BRANCH  18  20
ATOM     20  O   UNL     1     -11.442  55.161  48.467  0.00  0.00    +0.000 OA
BRANCH  20  21
ATOM     21  C   UNL     1     -12.369  54.137  48.840  0.00  0.00    +0.000 C 
ATOM     22  C   UNL     1     -11.632  53.023  49.556  0.00  0.00    +0.000 C 
ENDBRANCH  20  21
ENDBRANCH  18  20
ENDBRANCH   9  18
ENDBRANCH   4   7
BRANCH   1  23
ATOM     23  S   UNL     1      -7.082  55.511  51.855  0.00  0.00    +0.000 S 
ATOM     24  O   UNL     1      -6.901  56.666  52.703  0.00  0.00    +0.000 OA
ATOM     25  O   UNL     1      -5.987  54.596  51.609  0.00  0.00    +0.000 OA
BRANCH  23  26
ATOM     26  C   UNL     1      -8.429  54.528  52.486  0.00  0.00    +0.000 A 
ATOM     27  C   UNL     1      -9.732  55.047  52.474  0.00  0.00    +0.000 A 
ATOM     28  C   UNL     1      -8.186  53.227  52.946  0.00  0.00    +0.000 A 
ATOM     29  C   UNL     1     -10.784  54.265  52.950  0.00  0.00    +0.000 A 
ATOM     30  C   UNL     1      -9.246  52.451  53.414  0.00  0.00    +0.000 A 
ATOM     31  C   UNL     1     -10.535  52.974  53.416  0.00  0.00    +0.000 A 
ATOM     32  F   UNL     1     -11.549  52.230  53.867  0.00  0.00    +0.000 F 
ENDBRANCH  23  26
ENDBRANCH   1  23
TORSDOF 6
ENDMDL
MODEL 8
REMARK VINA RESULT:      -7.1      3.792      6.074
REMARK  Name = 
REMARK  9 active torsions:
REMARK  status: ('A' for Active; 'I' for Inactive)
REMARK    1  A    between atoms: S_1  and  N_4
REMARK    2  A    between atoms: S_1  and  C_5
REMARK    3  A    between atoms: N_10  and  C_13
REMARK    4  A    between atoms: C_16  and  C_20
REMARK    5  A    between atoms: C_20  and  O_24
REMARK    6  A    between atoms: O_24  and  C_27
REMARK    7  A    between atoms: C_25  and  C_28
REMARK    8  A    between atoms: C_25  and  C_29
REMARK    9  A    between atoms: C_27  and  C_30
REMARK                            x       y       z     vdW  Elec       q    Type
REMARK                         _______ _______ _______ _____ _____    ______ ____
ROOT
ATOM      1  N   UNL     1     -12.711  56.021  49.240  0.00  0.00    +0.000 N 
ATOM      2  C   UNL     1     -12.013  55.443  48.192  0.00  0.00    +0.000 C 
ATOM      3  O   UNL     1     -12.021  55.922  47.068  0.00  0.00    +0.000 OA
ATOM      4  N   UNL     1     -11.432  54.231  48.522  0.00  0.00    +0.000 N 
ATOM      5  H   UNL     1     -12.662  55.593  50.125  0.00  0.00    +0.000 HD
ATOM      6  H   UNL     1     -11.480  53.883  49.442  0.00  0.00    +0.000 HD
ENDROOT
BRANCH   4   7
ATOM      7  C   UNL     1     -10.781  53.519  47.527  0.00  0.00    +0.000 A 
ATOM      8  S   UNL     1     -11.768  52.470  46.626  0.00  0.00    +0.000 S 
ATOM      9  C   UNL     1      -9.466  53.545  47.100  0.00  0.00    +0.000 A 
ATOM     10  C   UNL     1     -10.533  52.229  45.474  0.00  0.00    +0.000 A 
ATOM     11  C   UNL     1      -9.351  52.854  45.834  0.00  0.00    +0.000 A 
ATOM     12  C   UNL     1     -10.741  51.426  44.214  0.00  0.00    +0.000 C 
ATOM     13  C   UNL     1      -8.108  52.734  45.002  0.00  0.00    +0.000 C 
ATOM     14  C   UNL     1      -9.377  50.981  43.604  0.00  0.00    +0.000 C 
ATOM     15  C   UNL     1      -8.395  52.180  43.604  0.00  0.00    +0.000 C 
ATOM     16  C   UNL     1      -9.560  50.524  42.145  0.00  0.00    +0.000 C 
ATOM     17  C   UNL     1      -8.799  49.796  44.405  0.00  0.00    +0.000 C 
BRANCH   9  18
ATOM     18  C   UNL     1      -8.398  54.202  47.861  0.00  0.00    +0.000 C 
ATOM     19  O   UNL     1      -7.548  54.913  47.339  0.00  0.00    +0.000 OA
BRANCH  18  20
ATOM     20  O   UNL     1      -8.473  53.934  49.191  0.00  0.00    +0.000 OA
BRANCH  20  21
ATOM     21  C   UNL     1      -7.483  53.056  49.733  0.00  0.00    +0.000 C 
ATOM     22  C   UNL     1      -6.394  53.873  50.400  0.00  0.00    +0.000 C 
ENDBRANCH  20  21
ENDBRANCH  18  20
ENDBRANCH   9  18
ENDBRANCH   4   7
BRANCH   1  23
ATOM     23  S   UNL     1     -13.626  57.400  49.086  0.00  0.00    +0.000 S 
ATOM     24  O   UNL     1     -14.702  57.159  48.152  0.00  0.00    +0.000 OA
ATOM     25  O   UNL     1     -12.673  58.467  48.857  0.00  0.00    +0.000 OA
BRANCH  23  26
ATOM     26  C   UNL     1     -14.310  57.673  50.708  0.00  0.00    +0.000 A 
ATOM     27  C   UNL     1     -14.975  56.628  51.367  0.00  0.00    +0.000 A 
ATOM     28  C   UNL     1     -14.138  58.914  51.336  0.00  0.00    +0.000 A 
ATOM     29  C   UNL     1     -15.490  56.843  52.645  0.00  0.00    +0.000 A 
ATOM     30  C   UNL     1     -14.651  59.116  52.618  0.00  0.00    +0.000 A 
ATOM     31  C   UNL     1     -15.325  58.083  53.261  0.00  0.00    +0.000 A 
ATOM     32  F   UNL     1     -15.819  58.280  54.487  0.00  0.00    +0.000 F 
ENDBRANCH  23  26
ENDBRANCH   1  23
TORSDOF 6
ENDMDL
MODEL 9
REMARK VINA RESULT:      -7.1      3.675      8.047
REMARK  Name = 
REMARK  9 active torsions:
REMARK  status: ('A' for Active; 'I' for Inactive)
REMARK    1  A    between atoms: S_1  and  N_4
REMARK    2  A    between atoms: S_1  and  C_5
REMARK    3  A    between atoms: N_10  and  C_13
REMARK    4  A    between atoms: C_16  and  C_20
REMARK    5  A    between atoms: C_20  and  O_24
REMARK    6  A    between atoms: O_24  and  C_27
REMARK    7  A    between atoms: C_25  and  C_28
REMARK    8  A    between atoms: C_25  and  C_29
REMARK    9  A    between atoms: C_27  and  C_30
REMARK                            x       y       z     vdW  Elec       q    Type
REMARK                         _______ _______ _______ _____ _____    ______ ____
ROOT
ATOM      1  N   UNL     1      -8.125  52.827  50.429  0.00  0.00    +0.000 N 
ATOM      2  C   UNL     1      -9.031  53.863  50.593  0.00  0.00    +0.000 C 
ATOM      3  O   UNL     1      -8.856  54.752  51.412  0.00  0.00    +0.000 OA
ATOM      4  N   UNL     1     -10.182  53.709  49.838  0.00  0.00    +0.000 N 
ATOM      5  H   UNL     1      -8.318  52.142  49.749  0.00  0.00    +0.000 HD
ATOM      6  H   UNL     1     -10.276  52.956  49.211  0.00  0.00    +0.000 HD
ENDROOT
BRANCH   4   7
ATOM      7  C   UNL     1     -11.197  54.640  49.986  0.00  0.00    +0.000 A 
ATOM      8  S   UNL     1     -11.988  54.613  51.490  0.00  0.00    +0.000 S 
ATOM      9  C   UNL     1     -11.655  55.631  49.138  0.00  0.00    +0.000 A 
ATOM     10  C   UNL     1     -12.772  56.090  51.152  0.00  0.00    +0.000 A 
ATOM     11  C   UNL     1     -12.516  56.537  49.866  0.00  0.00    +0.000 A 
ATOM     12  C   UNL     1     -13.634  56.804  52.164  0.00  0.00    +0.000 C 
ATOM     13  C   UNL     1     -13.145  57.788  49.325  0.00  0.00    +0.000 C 
ATOM     14  C   UNL     1     -14.574  57.835  51.468  0.00  0.00    +0.000 C 
ATOM     15  C   UNL     1     -13.767  58.650  50.426  0.00  0.00    +0.000 C 
ATOM     16  C   UNL     1     -15.147  58.826  52.497  0.00  0.00    +0.000 C 
ATOM     17  C   UNL     1     -15.757  57.106  50.799  0.00  0.00    +0.000 C 
BRANCH   9  18
ATOM     18  C   UNL     1     -11.277  55.701  47.723  0.00  0.00    +0.000 C 
ATOM     19  O   UNL     1     -12.094  55.681  46.811  0.00  0.00    +0.000 OA
BRANCH  18  20
ATOM     20  O   UNL     1      -9.932  55.798  47.554  0.00  0.00    +0.000 OA
BRANCH  20  21
ATOM     21  C   UNL     1      -9.349  55.006  46.514  0.00  0.00    +0.000 C 
ATOM     22  C   UNL     1      -7.908  54.694  46.864  0.00  0.00    +0.000 C 
ENDBRANCH  20  21
ENDBRANCH  18  20
ENDBRANCH   9  18
ENDBRANCH   4   7
BRANCH   1  23
ATOM     23  S   UNL     1      -6.730  52.678  51.318  0.00  0.00    +0.000 S 
ATOM     24  O   UNL     1      -6.158  53.987  51.537  0.00  0.00    +0.000 OA
ATOM     25  O   UNL     1      -5.965  51.639  50.659  0.00  0.00    +0.000 OA
BRANCH  23  26
ATOM     26  C   UNL     1      -7.259  52.002  52.880  0.00  0.00    +0.000 A 
ATOM     27  C   UNL     1      -8.456  51.274  52.952  0.00  0.00    +0.000 A 
ATOM     28  C   UNL     1      -6.454  52.161  54.016  0.00  0.00    +0.000 A 
ATOM     29  C   UNL     1      -8.854  50.730  54.172  0.00  0.00    +0.000 A 
ATOM     30  C   UNL     1      -6.859  51.608  55.232  0.00  0.00    +0.000 A 
ATOM     31  C   UNL     1      -8.054  50.901  55.303  0.00  0.00    +0.000 A 
ATOM     32  F   UNL     1      -8.441  50.374  56.468  0.00  0.00    +0.000 F 
ENDBRANCH  23  26
ENDBRANCH   1  23
TORSDOF 6
ENDMDL
