MODEL 1
REMARK VINA RESULT:      -7.3      0.000      0.000
REMARK  Name = 
REMARK  7 active torsions:
REMARK  status: ('A' for Active; 'I' for Inactive)
REMARK    1  A    between atoms: C_7  and  S_8
REMARK    2  A    between atoms: S_8  and  N_11
REMARK    3  A    between atoms: N_14  and  C_15
REMARK    4  A    between atoms: C_17  and  C_20
REMARK    5  A    between atoms: C_20  and  O_24
REMARK    6  A    between atoms: O_24  and  C_27
REMARK    7  A    between atoms: C_27  and  C_28
REMARK                            x       y       z     vdW  Elec       q    Type
REMARK                         _______ _______ _______ _____ _____    ______ ____
ROOT
ATOM      1  N   UNL     1     -10.522  54.290  47.110  0.00  0.00    +0.000 N 
ATOM      2  C   UNL     1     -10.946  55.220  48.046  0.00  0.00    +0.000 C 
ATOM      3  O   UNL     1     -10.133  55.996  48.523  0.00  0.00    +0.000 OA
ATOM      4  N   UNL     1     -12.277  55.121  48.395  0.00  0.00    +0.000 N 
ATOM      5  H   UNL     1     -11.173  53.649  46.742  0.00  0.00    +0.000 HD
ATOM      6  H   UNL     1     -12.820  54.437  47.938  0.00  0.00    +0.000 HD
ENDROOT
BRANCH   4   7
ATOM      7  C   UNL     1     -12.909  55.922  49.350  0.00  0.00    +0.000 A 
ATOM      8  S   UNL     1     -13.960  57.165  48.853  0.00  0.00    +0.000 S 
ATOM      9  C   UNL     1     -12.843  55.823  50.739  0.00  0.00    +0.000 A 
ATOM     10  C   UNL     1     -14.238  57.683  50.429  0.00  0.00    +0.000 A 
ATOM     11  C   UNL     1     -13.621  56.883  51.369  0.00  0.00    +0.000 A 
ATOM     12  C   UNL     1     -15.119  58.862  50.704  0.00  0.00    +0.000 C 
ATOM     13  C   UNL     1     -13.774  57.186  52.838  0.00  0.00    +0.000 C 
ATOM     14  C   UNL     1     -14.988  59.312  52.161  0.00  0.00    +0.000 C 
ATOM     15  C   UNL     1     -14.964  58.117  53.119  0.00  0.00    +0.000 C 
BRANCH   9  16
ATOM     16  C   UNL     1     -12.083  54.763  51.411  0.00  0.00    +0.000 C 
ATOM     17  O   UNL     1     -11.064  54.983  52.060  0.00  0.00    +0.000 OA
BRANCH  16  18
ATOM     18  O   UNL     1     -12.575  53.521  51.153  0.00  0.00    +0.000 OA
BRANCH  18  19
ATOM     19  C   UNL     1     -11.700  52.416  51.410  0.00  0.00    +0.000 C 
ATOM     20  C   UNL     1     -11.099  51.972  50.087  0.00  0.00    +0.000 C 
ENDBRANCH  18  19
ENDBRANCH  16  18
ENDBRANCH   9  16
ENDBRANCH   4   7
BRANCH   1  21
ATOM     21  S   UNL     1      -8.932  54.226  46.582  0.00  0.00    +0.000 S 
ATOM     22  O   UNL     1      -8.103  53.827  47.697  0.00  0.00    +0.000 OA
ATOM     23  O   UNL     1      -8.691  55.482  45.899  0.00  0.00    +0.000 OA
BRANCH  21  30
ATOM     24 CL   UNL     1      -8.831  49.754  42.151  0.00  0.00    +0.000 Cl
ATOM     25  C   UNL     1      -8.854  50.971  43.370  0.00  0.00    +0.000 A 
ATOM     26  C   UNL     1      -8.039  50.844  44.496  0.00  0.00    +0.000 A 
ATOM     27  C   UNL     1      -9.691  52.076  43.223  0.00  0.00    +0.000 A 
ATOM     28  C   UNL     1      -8.054  51.832  45.490  0.00  0.00    +0.000 A 
ATOM     29  C   UNL     1      -9.707  53.067  44.207  0.00  0.00    +0.000 A 
ATOM     30  C   UNL     1      -8.885  52.947  45.336  0.00  0.00    +0.000 A 
ENDBRANCH  21  30
ENDBRANCH   1  21
TORSDOF 6
ENDMDL
MODEL 2
REMARK VINA RESULT:      -7.2      3.138      3.779
REMARK  Name = 
REMARK  7 active torsions:
REMARK  status: ('A' for Active; 'I' for Inactive)
REMARK    1  A    between atoms: C_7  and  S_8
REMARK    2  A    between atoms: S_8  and  N_11
REMARK    3  A    between atoms: N_14  and  C_15
REMARK    4  A    between atoms: C_17  and  C_20
REMARK    5  A    between atoms: C_20  and  O_24
REMARK    6  A    between atoms: O_24  and  C_27
REMARK    7  A    between atoms: C_27  and  C_28
REMARK                            x       y       z     vdW  Elec       q    Type
REMARK                         _______ _______ _______ _____ _____    ______ ____
ROOT
ATOM      1  N   UNL     1     -10.428  54.106  47.274  0.00  0.00    +0.000 N 
ATOM      2  C   UNL     1     -10.881  55.082  48.149  0.00  0.00    +0.000 C 
ATOM      3  O   UNL     1     -10.099  55.927  48.553  0.00  0.00    +0.000 OA
ATOM      4  N   UNL     1     -12.200  54.947  48.529  0.00  0.00    +0.000 N 
ATOM      5  H   UNL     1     -11.054  53.411  46.967  0.00  0.00    +0.000 HD
ATOM      6  H   UNL     1     -12.717  54.208  48.133  0.00  0.00    +0.000 HD
ENDROOT
BRANCH   4   7
ATOM      7  C   UNL     1     -12.855  55.786  49.436  0.00  0.00    +0.000 A 
ATOM      8  S   UNL     1     -13.899  57.003  48.864  0.00  0.00    +0.000 S 
ATOM      9  C   UNL     1     -12.817  55.748  50.828  0.00  0.00    +0.000 A 
ATOM     10  C   UNL     1     -14.212  57.587  50.410  0.00  0.00    +0.000 A 
ATOM     11  C   UNL     1     -13.611  56.831  51.397  0.00  0.00    +0.000 A 
ATOM     12  C   UNL     1     -15.102  58.772  50.615  0.00  0.00    +0.000 C 
ATOM     13  C   UNL     1     -13.796  57.195  52.847  0.00  0.00    +0.000 C 
ATOM     14  C   UNL     1     -15.003  59.285  52.054  0.00  0.00    +0.000 C 
ATOM     15  C   UNL     1     -14.994  58.133  53.064  0.00  0.00    +0.000 C 
BRANCH   9  16
ATOM     16  C   UNL     1     -12.067  54.721  51.561  0.00  0.00    +0.000 C 
ATOM     17  O   UNL     1     -12.360  53.530  51.526  0.00  0.00    +0.000 OA
BRANCH  16  18
ATOM     18  O   UNL     1     -11.087  55.248  52.345  0.00  0.00    +0.000 OA
BRANCH  18  19
ATOM     19  C   UNL     1      -9.737  55.045  51.910  0.00  0.00    +0.000 C 
ATOM     20  C   UNL     1      -8.853  54.949  53.142  0.00  0.00    +0.000 C 
ENDBRANCH  18  19
ENDBRANCH  16  18
ENDBRANCH   9  16
ENDBRANCH   4   7
BRANCH   1  21
ATOM     21  S   UNL     1      -8.845  54.077  46.723  0.00  0.00    +0.000 S 
ATOM     22  O   UNL     1      -8.580  55.327  46.046  0.00  0.00    +0.000 OA
ATOM     23  O   UNL     1      -8.692  52.815  46.025  0.00  0.00    +0.000 OA
BRANCH  21  30
ATOM     24 CL   UNL     1      -5.199  53.799  51.849  0.00  0.00    +0.000 Cl
ATOM     25  C   UNL     1      -6.199  53.865  50.448  0.00  0.00    +0.000 A 
ATOM     26  C   UNL     1      -7.186  52.897  50.250  0.00  0.00    +0.000 A 
ATOM     27  C   UNL     1      -6.014  54.887  49.519  0.00  0.00    +0.000 A 
ATOM     28  C   UNL     1      -8.002  52.947  49.113  0.00  0.00    +0.000 A 
ATOM     29  C   UNL     1      -6.828  54.946  48.385  0.00  0.00    +0.000 A 
ATOM     30  C   UNL     1      -7.824  53.981  48.186  0.00  0.00    +0.000 A 
ENDBRANCH  21  30
ENDBRANCH   1  21
TORSDOF 6
ENDMDL
MODEL 3
REMARK VINA RESULT:      -7.0      5.047      8.463
REMARK  Name = 
REMARK  7 active torsions:
REMARK  status: ('A' for Active; 'I' for Inactive)
REMARK    1  A    between atoms: C_7  and  S_8
REMARK    2  A    between atoms: S_8  and  N_11
REMARK    3  A    between atoms: N_14  and  C_15
REMARK    4  A    between atoms: C_17  and  C_20
REMARK    5  A    between atoms: C_20  and  O_24
REMARK    6  A    between atoms: O_24  and  C_27
REMARK    7  A    between atoms: C_27  and  C_28
REMARK                            x       y       z     vdW  Elec       q    Type
REMARK                         _______ _______ _______ _____ _____    ______ ____
ROOT
ATOM      1  N   UNL     1     -10.978  56.409  49.213  0.00  0.00    +0.000 N 
ATOM      2  C   UNL     1     -10.110  55.642  49.976  0.00  0.00    +0.000 C 
ATOM      3  O   UNL     1     -10.547  54.680  50.586  0.00  0.00    +0.000 OA
ATOM      4  N   UNL     1      -8.811  56.107  50.012  0.00  0.00    +0.000 N 
ATOM      5  H   UNL     1     -10.629  57.199  48.739  0.00  0.00    +0.000 HD
ATOM      6  H   UNL     1      -8.596  56.906  49.478  0.00  0.00    +0.000 HD
ENDROOT
BRANCH   4   7
ATOM      7  C   UNL     1      -7.779  55.521  50.751  0.00  0.00    +0.000 A 
ATOM      8  S   UNL     1      -7.559  55.949  52.385  0.00  0.00    +0.000 S 
ATOM      9  C   UNL     1      -6.873  54.544  50.345  0.00  0.00    +0.000 A 
ATOM     10  C   UNL     1      -6.198  54.974  52.550  0.00  0.00    +0.000 A 
ATOM     11  C   UNL     1      -5.929  54.239  51.413  0.00  0.00    +0.000 A 
ATOM     12  C   UNL     1      -5.446  54.922  53.843  0.00  0.00    +0.000 C 
ATOM     13  C   UNL     1      -4.755  53.294  51.384  0.00  0.00    +0.000 C 
ATOM     14  C   UNL     1      -4.105  54.206  53.664  0.00  0.00    +0.000 C 
ATOM     15  C   UNL     1      -4.246  52.954  52.793  0.00  0.00    +0.000 C 
BRANCH   9  16
ATOM     16  C   UNL     1      -6.926  53.937  49.010  0.00  0.00    +0.000 C 
ATOM     17  O   UNL     1      -7.004  52.725  48.831  0.00  0.00    +0.000 OA
BRANCH  16  18
ATOM     18  O   UNL     1      -6.783  54.853  48.013  0.00  0.00    +0.000 OA
BRANCH  18  19
ATOM     19  C   UNL     1      -7.285  54.483  46.723  0.00  0.00    +0.000 C 
ATOM     20  C   UNL     1      -8.646  55.134  46.541  0.00  0.00    +0.000 C 
ENDBRANCH  18  19
ENDBRANCH  16  18
ENDBRANCH   9  16
ENDBRANCH   4   7
BRANCH   1  21
ATOM     21  S   UNL     1     -12.604  56.029  49.072  0.00  0.00    +0.000 S 
ATOM     22  O   UNL     1     -12.765  54.621  49.358  0.00  0.00    +0.000 OA
ATOM     23  O   UNL     1     -13.029  56.574  47.797  0.00  0.00    +0.000 OA
BRANCH  21  30
ATOM     24 CL   UNL     1     -15.548  59.434  53.474  0.00  0.00    +0.000 Cl
ATOM     25  C   UNL     1     -14.737  58.498  52.277  0.00  0.00    +0.000 A 
ATOM     26  C   UNL     1     -14.062  57.332  52.644  0.00  0.00    +0.000 A 
ATOM     27  C   UNL     1     -14.760  58.913  50.947  0.00  0.00    +0.000 A 
ATOM     28  C   UNL     1     -13.402  56.567  51.674  0.00  0.00    +0.000 A 
ATOM     29  C   UNL     1     -14.108  58.152  49.974  0.00  0.00    +0.000 A 
ATOM     30  C   UNL     1     -13.435  56.978  50.336  0.00  0.00    +0.000 A 
ENDBRANCH  21  30
ENDBRANCH   1  21
TORSDOF 6
ENDMDL
MODEL 4
REMARK VINA RESULT:      -6.9      3.495      5.132
REMARK  Name = 
REMARK  7 active torsions:
REMARK  status: ('A' for Active; 'I' for Inactive)
REMARK    1  A    between atoms: C_7  and  S_8
REMARK    2  A    between atoms: S_8  and  N_11
REMARK    3  A    between atoms: N_14  and  C_15
REMARK    4  A    between atoms: C_17  and  C_20
REMARK    5  A    between atoms: C_20  and  O_24
REMARK    6  A    between atoms: O_24  and  C_27
REMARK    7  A    between atoms: C_27  and  C_28
REMARK                            x       y       z     vdW  Elec       q    Type
REMARK                         _______ _______ _______ _____ _____    ______ ____
ROOT
ATOM      1  N   UNL     1     -10.907  52.835  51.666  0.00  0.00    +0.000 N 
ATOM      2  C   UNL     1     -11.209  54.185  51.569  0.00  0.00    +0.000 C 
ATOM      3  O   UNL     1     -10.464  54.999  52.090  0.00  0.00    +0.000 OA
ATOM      4  N   UNL     1     -12.395  54.464  50.923  0.00  0.00    +0.000 N 
ATOM      5  H   UNL     1     -11.520  52.177  51.265  0.00  0.00    +0.000 HD
ATOM      6  H   UNL     1     -12.907  53.706  50.558  0.00  0.00    +0.000 HD
ENDROOT
BRANCH   4   7
ATOM      7  C   UNL     1     -12.921  55.748  50.749  0.00  0.00    +0.000 A 
ATOM      8  S   UNL     1     -13.711  56.523  52.043  0.00  0.00    +0.000 S 
ATOM      9  C   UNL     1     -12.853  56.563  49.621  0.00  0.00    +0.000 A 
ATOM     10  C   UNL     1     -14.098  57.873  51.117  0.00  0.00    +0.000 A 
ATOM     11  C   UNL     1     -13.569  57.813  49.843  0.00  0.00    +0.000 A 
ATOM     12  C   UNL     1     -14.888  59.001  51.701  0.00  0.00    +0.000 C 
ATOM     13  C   UNL     1     -13.799  58.946  48.876  0.00  0.00    +0.000 C 
ATOM     14  C   UNL     1     -15.356  59.963  50.606  0.00  0.00    +0.000 C 
ATOM     15  C   UNL     1     -14.248  60.234  49.584  0.00  0.00    +0.000 C 
BRANCH   9  16
ATOM     16  C   UNL     1     -12.132  56.159  48.409  0.00  0.00    +0.000 C 
ATOM     17  O   UNL     1     -12.695  55.942  47.340  0.00  0.00    +0.000 OA
BRANCH  16  18
ATOM     18  O   UNL     1     -10.803  55.963  48.630  0.00  0.00    +0.000 OA
BRANCH  18  19
ATOM     19  C   UNL     1     -10.207  54.824  47.998  0.00  0.00    +0.000 C 
ATOM     20  C   UNL     1      -9.137  55.320  47.041  0.00  0.00    +0.000 C 
ENDBRANCH  18  19
ENDBRANCH  16  18
ENDBRANCH   9  16
ENDBRANCH   4   7
BRANCH   1  21
ATOM     21  S   UNL     1      -9.526  52.291  52.446  0.00  0.00    +0.000 S 
ATOM     22  O   UNL     1      -9.497  50.848  52.356  0.00  0.00    +0.000 OA
ATOM     23  O   UNL     1      -9.516  52.949  53.738  0.00  0.00    +0.000 OA
BRANCH  21  30
ATOM     24 CL   UNL     1      -4.706  54.600  49.118  0.00  0.00    +0.000 Cl
ATOM     25  C   UNL     1      -6.019  53.970  50.037  0.00  0.00    +0.000 A 
ATOM     26  C   UNL     1      -6.098  54.228  51.407  0.00  0.00    +0.000 A 
ATOM     27  C   UNL     1      -6.996  53.203  49.404  0.00  0.00    +0.000 A 
ATOM     28  C   UNL     1      -7.164  53.718  52.158  0.00  0.00    +0.000 A 
ATOM     29  C   UNL     1      -8.065  52.696  50.146  0.00  0.00    +0.000 A 
ATOM     30  C   UNL     1      -8.152  52.958  51.520  0.00  0.00    +0.000 A 
ENDBRANCH  21  30
ENDBRANCH   1  21
TORSDOF 6
ENDMDL
MODEL 5
REMARK VINA RESULT:      -6.9      3.988      7.888
REMARK  Name = 
REMARK  7 active torsions:
REMARK  status: ('A' for Active; 'I' for Inactive)
REMARK    1  A    between atoms: C_7  and  S_8
REMARK    2  A    between atoms: S_8  and  N_11
REMARK    3  A    between atoms: N_14  and  C_15
REMARK    4  A    between atoms: C_17  and  C_20
REMARK    5  A    between atoms: C_20  and  O_24
REMARK    6  A    between atoms: O_24  and  C_27
REMARK    7  A    between atoms: C_27  and  C_28
REMARK                            x       y       z     vdW  Elec       q    Type
REMARK                         _______ _______ _______ _____ _____    ______ ____
ROOT
ATOM      1  N   UNL     1      -8.192  56.506  49.397  0.00  0.00    +0.000 N 
ATOM      2  C   UNL     1      -8.377  55.413  48.564  0.00  0.00    +0.000 C 
ATOM      3  O   UNL     1      -7.926  54.329  48.898  0.00  0.00    +0.000 OA
ATOM      4  N   UNL     1      -9.019  55.696  47.377  0.00  0.00    +0.000 N 
ATOM      5  H   UNL     1      -8.536  57.385  49.117  0.00  0.00    +0.000 HD
ATOM      6  H   UNL     1      -9.322  56.621  47.229  0.00  0.00    +0.000 HD
ENDROOT
BRANCH   4   7
ATOM      7  C   UNL     1      -9.271  54.761  46.368  0.00  0.00    +0.000 A 
ATOM      8  S   UNL     1      -8.001  54.233  45.365  0.00  0.00    +0.000 S 
ATOM      9  C   UNL     1     -10.470  54.117  46.068  0.00  0.00    +0.000 A 
ATOM     10  C   UNL     1      -9.016  53.265  44.437  0.00  0.00    +0.000 A 
ATOM     11  C   UNL     1     -10.313  53.246  44.910  0.00  0.00    +0.000 A 
ATOM     12  C   UNL     1      -8.483  52.493  43.271  0.00  0.00    +0.000 C 
ATOM     13  C   UNL     1     -11.360  52.416  44.213  0.00  0.00    +0.000 C 
ATOM     14  C   UNL     1      -9.626  51.929  42.422  0.00  0.00    +0.000 C 
ATOM     15  C   UNL     1     -10.742  51.349  43.295  0.00  0.00    +0.000 C 
BRANCH   9  16
ATOM     16  C   UNL     1     -11.688  54.328  46.859  0.00  0.00    +0.000 C 
ATOM     17  O   UNL     1     -12.235  53.429  47.492  0.00  0.00    +0.000 OA
BRANCH  16  18
ATOM     18  O   UNL     1     -12.184  55.589  46.732  0.00  0.00    +0.000 OA
BRANCH  18  19
ATOM     19  C   UNL     1     -12.654  56.219  47.930  0.00  0.00    +0.000 C 
ATOM     20  C   UNL     1     -13.892  57.029  47.584  0.00  0.00    +0.000 C 
ENDBRANCH  18  19
ENDBRANCH  16  18
ENDBRANCH   9  16
ENDBRANCH   4   7
BRANCH   1  21
ATOM     21  S   UNL     1      -7.402  56.374  50.869  0.00  0.00    +0.000 S 
ATOM     22  O   UNL     1      -7.394  57.677  51.496  0.00  0.00    +0.000 OA
ATOM     23  O   UNL     1      -6.157  55.684  50.590  0.00  0.00    +0.000 OA
BRANCH  21  30
ATOM     24 CL   UNL     1     -10.832  52.407  54.355  0.00  0.00    +0.000 Cl
ATOM     25  C   UNL     1      -9.902  53.495  53.396  0.00  0.00    +0.000 A 
ATOM     26  C   UNL     1     -10.541  54.492  52.657  0.00  0.00    +0.000 A 
ATOM     27  C   UNL     1      -8.515  53.370  53.364  0.00  0.00    +0.000 A 
ATOM     28  C   UNL     1      -9.789  55.379  51.876  0.00  0.00    +0.000 A 
ATOM     29  C   UNL     1      -7.758  54.254  52.592  0.00  0.00    +0.000 A 
ATOM     30  C   UNL     1      -8.394  55.261  51.854  0.00  0.00    +0.000 A 
ENDBRANCH  21  30
ENDBRANCH   1  21
TORSDOF 6
ENDMDL
MODEL 6
REMARK VINA RESULT:      -6.9      4.858      8.589
REMARK  Name = 
REMARK  7 active torsions:
REMARK  status: ('A' for Active; 'I' for Inactive)
REMARK    1  A    between atoms: C_7  and  S_8
REMARK    2  A    between atoms: S_8  and  N_11
REMARK    3  A    between atoms: N_14  and  C_15
REMARK    4  A    between atoms: C_17  and  C_20
REMARK    5  A    between atoms: C_20  and  O_24
REMARK    6  A    between atoms: O_24  and  C_27
REMARK    7  A    between atoms: C_27  and  C_28
REMARK                            x       y       z     vdW  Elec       q    Type
REMARK                         _______ _______ _______ _____ _____    ______ ____
ROOT
ATOM      1  N   UNL     1     -11.195  56.724  49.588  0.00  0.00    +0.000 N 
ATOM      2  C   UNL     1     -10.214  55.753  49.725  0.00  0.00    +0.000 C 
ATOM      3  O   UNL     1     -10.542  54.578  49.753  0.00  0.00    +0.000 OA
ATOM      4  N   UNL     1      -8.935  56.245  49.883  0.00  0.00    +0.000 N 
ATOM      5  H   UNL     1     -10.932  57.673  49.588  0.00  0.00    +0.000 HD
ATOM      6  H   UNL     1      -8.813  57.222  49.852  0.00  0.00    +0.000 HD
ENDROOT
BRANCH   4   7
ATOM      7  C   UNL     1      -7.800  55.454  50.083  0.00  0.00    +0.000 A 
ATOM      8  S   UNL     1      -6.949  54.836  48.744  0.00  0.00    +0.000 S 
ATOM      9  C   UNL     1      -7.190  55.109  51.288  0.00  0.00    +0.000 A 
ATOM     10  C   UNL     1      -5.857  53.998  49.711  0.00  0.00    +0.000 A 
ATOM     11  C   UNL     1      -6.050  54.231  51.058  0.00  0.00    +0.000 A 
ATOM     12  C   UNL     1      -4.784  53.153  49.098  0.00  0.00    +0.000 C 
ATOM     13  C   UNL     1      -5.151  53.576  52.074  0.00  0.00    +0.000 C 
ATOM     14  C   UNL     1      -4.112  52.275  50.156  0.00  0.00    +0.000 C 
ATOM     15  C   UNL     1      -3.848  53.053  51.449  0.00  0.00    +0.000 C 
BRANCH   9  16
ATOM     16  C   UNL     1      -7.678  55.607  52.580  0.00  0.00    +0.000 C 
ATOM     17  O   UNL     1      -7.007  56.329  53.312  0.00  0.00    +0.000 OA
BRANCH  16  18
ATOM     18  O   UNL     1      -8.900  55.105  52.908  0.00  0.00    +0.000 OA
BRANCH  18  19
ATOM     19  C   UNL     1      -8.926  53.780  53.450  0.00  0.00    +0.000 C 
ATOM     20  C   UNL     1     -10.122  53.051  52.862  0.00  0.00    +0.000 C 
ENDBRANCH  18  19
ENDBRANCH  16  18
ENDBRANCH   9  16
ENDBRANCH   4   7
BRANCH   1  21
ATOM     21  S   UNL     1     -12.815  56.328  49.419  0.00  0.00    +0.000 S 
ATOM     22  O   UNL     1     -12.975  54.930  49.753  0.00  0.00    +0.000 OA
ATOM     23  O   UNL     1     -13.210  56.823  48.115  0.00  0.00    +0.000 OA
BRANCH  21  30
ATOM     24 CL   UNL     1     -15.867  59.754  53.731  0.00  0.00    +0.000 Cl
ATOM     25  C   UNL     1     -15.037  58.822  52.544  0.00  0.00    +0.000 A 
ATOM     26  C   UNL     1     -15.008  59.252  51.216  0.00  0.00    +0.000 A 
ATOM     27  C   UNL     1     -14.401  57.640  52.919  0.00  0.00    +0.000 A 
ATOM     28  C   UNL     1     -14.334  58.497  50.247  0.00  0.00    +0.000 A 
ATOM     29  C   UNL     1     -13.722  56.886  51.959  0.00  0.00    +0.000 A 
ATOM     30  C   UNL     1     -13.684  57.317  50.627  0.00  0.00    +0.000 A 
ENDBRANCH  21  30
ENDBRANCH   1  21
TORSDOF 6
ENDMDL
MODEL 7
REMARK VINA RESULT:      -6.8      2.269      3.206
REMARK  Name = 
REMARK  7 active torsions:
REMARK  status: ('A' for Active; 'I' for Inactive)
REMARK    1  A    between atoms: C_7  and  S_8
REMARK    2  A    between atoms: S_8  and  N_11
REMARK    3  A    between atoms: N_14  and  C_15
REMARK    4  A    between atoms: C_17  and  C_20
REMARK    5  A    between atoms: C_20  and  O_24
REMARK    6  A    between atoms: O_24  and  C_27
REMARK    7  A    between atoms: C_27  and  C_28
REMARK                            x       y       z     vdW  Elec       q    Type
REMARK                         _______ _______ _______ _____ _____    ______ ____
ROOT
ATOM      1  N   UNL     1      -8.125  53.283  49.636  0.00  0.00    +0.000 N 
ATOM      2  C   UNL     1      -9.175  54.189  49.671  0.00  0.00    +0.000 C 
ATOM      3  O   UNL     1      -9.110  55.199  48.989  0.00  0.00    +0.000 OA
ATOM      4  N   UNL     1     -10.185  53.866  50.553  0.00  0.00    +0.000 N 
ATOM      5  H   UNL     1      -8.168  52.479  50.204  0.00  0.00    +0.000 HD
ATOM      6  H   UNL     1     -10.104  53.021  51.052  0.00  0.00    +0.000 HD
ENDROOT
BRANCH   4   7
ATOM      7  C   UNL     1     -11.316  54.654  50.787  0.00  0.00    +0.000 A 
ATOM      8  S   UNL     1     -11.418  55.591  52.205  0.00  0.00    +0.000 S 
ATOM      9  C   UNL     1     -12.425  54.839  49.963  0.00  0.00    +0.000 A 
ATOM     10  C   UNL     1     -12.964  56.144  51.836  0.00  0.00    +0.000 A 
ATOM     11  C   UNL     1     -13.404  55.710  50.601  0.00  0.00    +0.000 A 
ATOM     12  C   UNL     1     -13.696  57.053  52.773  0.00  0.00    +0.000 C 
ATOM     13  C   UNL     1     -14.762  56.123  50.095  0.00  0.00    +0.000 C 
ATOM     14  C   UNL     1     -15.166  57.182  52.368  0.00  0.00    +0.000 C 
ATOM     15  C   UNL     1     -15.321  57.338  50.852  0.00  0.00    +0.000 C 
BRANCH   9  16
ATOM     16  C   UNL     1     -12.523  54.218  48.636  0.00  0.00    +0.000 C 
ATOM     17  O   UNL     1     -12.486  53.003  48.465  0.00  0.00    +0.000 OA
BRANCH  16  18
ATOM     18  O   UNL     1     -12.562  55.134  47.630  0.00  0.00    +0.000 OA
BRANCH  18  19
ATOM     19  C   UNL     1     -11.406  55.214  46.789  0.00  0.00    +0.000 C 
ATOM     20  C   UNL     1     -11.672  54.392  45.540  0.00  0.00    +0.000 C 
ENDBRANCH  18  19
ENDBRANCH  16  18
ENDBRANCH   9  16
ENDBRANCH   4   7
BRANCH   1  21
ATOM     21  S   UNL     1      -6.788  53.515  48.654  0.00  0.00    +0.000 S 
ATOM     22  O   UNL     1      -5.858  52.434  48.894  0.00  0.00    +0.000 OA
ATOM     23  O   UNL     1      -6.382  54.892  48.856  0.00  0.00    +0.000 OA
BRANCH  21  30
ATOM     24 CL   UNL     1      -8.916  53.029  42.748  0.00  0.00    +0.000 Cl
ATOM     25  C   UNL     1      -8.329  53.171  44.362  0.00  0.00    +0.000 A 
ATOM     26  C   UNL     1      -7.957  54.421  44.859  0.00  0.00    +0.000 A 
ATOM     27  C   UNL     1      -8.229  52.033  45.160  0.00  0.00    +0.000 A 
ATOM     28  C   UNL     1      -7.480  54.542  46.171  0.00  0.00    +0.000 A 
ATOM     29  C   UNL     1      -7.760  52.147  46.470  0.00  0.00    +0.000 A 
ATOM     30  C   UNL     1      -7.392  53.400  46.977  0.00  0.00    +0.000 A 
ENDBRANCH  21  30
ENDBRANCH   1  21
TORSDOF 6
ENDMDL
MODEL 8
REMARK VINA RESULT:      -6.7      2.358      3.579
REMARK  Name = 
REMARK  7 active torsions:
REMARK  status: ('A' for Active; 'I' for Inactive)
REMARK    1  A    between atoms: C_7  and  S_8
REMARK    2  A    between atoms: S_8  and  N_11
REMARK    3  A    between atoms: N_14  and  C_15
REMARK    4  A    between atoms: C_17  and  C_20
REMARK    5  A    between atoms: C_20  and  O_24
REMARK    6  A    between atoms: O_24  and  C_27
REMARK    7  A    between atoms: C_27  and  C_28
REMARK                            x       y       z     vdW  Elec       q    Type
REMARK                         _______ _______ _______ _____ _____    ______ ____
ROOT
ATOM      1  N   UNL     1     -10.612  51.853  48.909  0.00  0.00    +0.000 N 
ATOM      2  C   UNL     1     -11.527  52.895  48.940  0.00  0.00    +0.000 C 
ATOM      3  O   UNL     1     -12.472  52.879  48.168  0.00  0.00    +0.000 OA
ATOM      4  N   UNL     1     -11.222  53.902  49.832  0.00  0.00    +0.000 N 
ATOM      5  H   UNL     1      -9.838  51.877  49.516  0.00  0.00    +0.000 HD
ATOM      6  H   UNL     1     -10.417  53.792  50.389  0.00  0.00    +0.000 HD
ENDROOT
BRANCH   4   7
ATOM      7  C   UNL     1     -11.974  55.068  49.999  0.00  0.00    +0.000 A 
ATOM      8  S   UNL     1     -12.650  55.430  51.520  0.00  0.00    +0.000 S 
ATOM      9  C   UNL     1     -12.236  56.069  49.065  0.00  0.00    +0.000 A 
ATOM     10  C   UNL     1     -13.407  56.822  50.953  0.00  0.00    +0.000 A 
ATOM     11  C   UNL     1     -13.100  57.095  49.635  0.00  0.00    +0.000 A 
ATOM     12  C   UNL     1     -14.261  57.652  51.859  0.00  0.00    +0.000 C 
ATOM     13  C   UNL     1     -13.675  58.315  48.962  0.00  0.00    +0.000 C 
ATOM     14  C   UNL     1     -15.062  58.682  51.058  0.00  0.00    +0.000 C 
ATOM     15  C   UNL     1     -14.204  59.343  49.974  0.00  0.00    +0.000 C 
BRANCH   9  16
ATOM     16  C   UNL     1     -11.674  56.036  47.710  0.00  0.00    +0.000 C 
ATOM     17  O   UNL     1     -12.370  56.075  46.699  0.00  0.00    +0.000 OA
BRANCH  16  18
ATOM     18  O   UNL     1     -10.324  55.862  47.705  0.00  0.00    +0.000 OA
BRANCH  18  19
ATOM     19  C   UNL     1      -9.781  55.068  46.644  0.00  0.00    +0.000 C 
ATOM     20  C   UNL     1      -8.283  54.950  46.861  0.00  0.00    +0.000 C 
ENDBRANCH  18  19
ENDBRANCH  16  18
ENDBRANCH   9  16
ENDBRANCH   4   7
BRANCH   1  21
ATOM     21  S   UNL     1     -10.789  50.551  47.868  0.00  0.00    +0.000 S 
ATOM     22  O   UNL     1     -12.184  50.173  47.850  0.00  0.00    +0.000 OA
ATOM     23  O   UNL     1      -9.772  49.593  48.256  0.00  0.00    +0.000 OA
BRANCH  21  30
ATOM     24 CL   UNL     1      -9.097  52.700  42.196  0.00  0.00    +0.000 Cl
ATOM     25  C   UNL     1      -9.570  52.115  43.746  0.00  0.00    +0.000 A 
ATOM     26  C   UNL     1     -10.918  51.881  44.020  0.00  0.00    +0.000 A 
ATOM     27  C   UNL     1      -8.599  51.881  44.718  0.00  0.00    +0.000 A 
ATOM     28  C   UNL     1     -11.307  51.405  45.279  0.00  0.00    +0.000 A 
ATOM     29  C   UNL     1      -8.979  51.401  45.973  0.00  0.00    +0.000 A 
ATOM     30  C   UNL     1     -10.331  51.158  46.251  0.00  0.00    +0.000 A 
ENDBRANCH  21  30
ENDBRANCH   1  21
TORSDOF 6
ENDMDL
MODEL 9
REMARK VINA RESULT:      -6.5      4.362      6.714
REMARK  Name = 
REMARK  7 active torsions:
REMARK  status: ('A' for Active; 'I' for Inactive)
REMARK    1  A    between atoms: C_7  and  S_8
REMARK    2  A    between atoms: S_8  and  N_11
REMARK    3  A    between atoms: N_14  and  C_15
REMARK    4  A    between atoms: C_17  and  C_20
REMARK    5  A    between atoms: C_20  and  O_24
REMARK    6  A    between atoms: O_24  and  C_27
REMARK    7  A    between atoms: C_27  and  C_28
REMARK                            x       y       z     vdW  Elec       q    Type
REMARK                         _______ _______ _______ _____ _____    ______ ____
ROOT
ATOM      1  N   UNL     1     -10.614  56.105  49.067  0.00  0.00    +0.000 N 
ATOM      2  C   UNL     1      -9.733  55.351  49.827  0.00  0.00    +0.000 C 
ATOM      3  O   UNL     1     -10.110  54.290  50.296  0.00  0.00    +0.000 OA
ATOM      4  N   UNL     1      -8.500  55.937  50.028  0.00  0.00    +0.000 N 
ATOM      5  H   UNL     1     -10.316  56.972  48.708  0.00  0.00    +0.000 HD
ATOM      6  H   UNL     1      -8.331  56.807  49.599  0.00  0.00    +0.000 HD
ENDROOT
BRANCH   4   7
ATOM      7  C   UNL     1      -7.474  55.381  50.799  0.00  0.00    +0.000 A 
ATOM      8  S   UNL     1      -7.329  55.797  52.443  0.00  0.00    +0.000 S 
ATOM      9  C   UNL     1      -6.517  54.444  50.415  0.00  0.00    +0.000 A 
ATOM     10  C   UNL     1      -5.938  54.871  52.647  0.00  0.00    +0.000 A 
ATOM     11  C   UNL     1      -5.601  54.161  51.513  0.00  0.00    +0.000 A 
ATOM     12  C   UNL     1      -5.232  54.832  53.966  0.00  0.00    +0.000 C 
ATOM     13  C   UNL     1      -4.392  53.262  51.516  0.00  0.00    +0.000 C 
ATOM     14  C   UNL     1      -3.859  54.169  53.828  0.00  0.00    +0.000 C 
ATOM     15  C   UNL     1      -3.921  52.923  52.939  0.00  0.00    +0.000 C 
BRANCH   9  16
ATOM     16  C   UNL     1      -6.499  53.852  49.072  0.00  0.00    +0.000 C 
ATOM     17  O   UNL     1      -6.322  52.654  48.873  0.00  0.00    +0.000 OA
BRANCH  16  18
ATOM     18  O   UNL     1      -6.603  54.786  48.087  0.00  0.00    +0.000 OA
BRANCH  18  19
ATOM     19  C   UNL     1      -6.944  54.308  46.781  0.00  0.00    +0.000 C 
ATOM     20  C   UNL     1      -8.216  55.011  46.337  0.00  0.00    +0.000 C 
ENDBRANCH  18  19
ENDBRANCH  16  18
ENDBRANCH   9  16
ENDBRANCH   4   7
BRANCH   1  21
ATOM     21  S   UNL     1     -12.172  55.581  48.740  0.00  0.00    +0.000 S 
ATOM     22  O   UNL     1     -12.923  56.700  48.214  0.00  0.00    +0.000 OA
ATOM     23  O   UNL     1     -12.618  54.892  49.935  0.00  0.00    +0.000 OA
BRANCH  21  30
ATOM     24 CL   UNL     1     -11.602  51.149  44.304  0.00  0.00    +0.000 Cl
ATOM     25  C   UNL     1     -11.753  52.369  45.511  0.00  0.00    +0.000 A 
ATOM     26  C   UNL     1     -11.588  53.712  45.169  0.00  0.00    +0.000 A 
ATOM     27  C   UNL     1     -12.038  52.003  46.825  0.00  0.00    +0.000 A 
ATOM     28  C   UNL     1     -11.710  54.707  46.147  0.00  0.00    +0.000 A 
ATOM     29  C   UNL     1     -12.167  52.990  47.805  0.00  0.00    +0.000 A 
ATOM     30  C   UNL     1     -12.009  54.341  47.465  0.00  0.00    +0.000 A 
ENDBRANCH  21  30
ENDBRANCH   1  21
TORSDOF 6
ENDMDL
