MODEL 1
REMARK VINA RESULT:      -7.2      0.000      0.000
REMARK  Name = 
REMARK  8 active torsions:
REMARK  status: ('A' for Active; 'I' for Inactive)
REMARK    1  A    between atoms: S_1  and  N_4
REMARK    2  A    between atoms: S_1  and  C_5
REMARK    3  A    between atoms: N_10  and  C_13
REMARK    4  A    between atoms: C_14  and  N_17
REMARK    5  A    between atoms: C_16  and  C_20
REMARK    6  A    between atoms: C_20  and  O_26
REMARK    7  A    between atoms: O_26  and  C_29
REMARK    8  A    between atoms: C_29  and  C_30
REMARK                            x       y       z     vdW  Elec       q    Type
REMARK                         _______ _______ _______ _____ _____    ______ ____
ROOT
ATOM      1  N   UNL     1     -10.368  54.169  47.289  0.00  0.00    +0.000 N 
ATOM      2  C   UNL     1     -10.813  55.154  48.161  0.00  0.00    +0.000 C 
ATOM      3  O   UNL     1     -10.031  55.996  48.570  0.00  0.00    +0.000 OA
ATOM      4  N   UNL     1     -12.136  55.014  48.518  0.00  0.00    +0.000 N 
ATOM      5  H   UNL     1     -11.007  53.489  46.974  0.00  0.00    +0.000 HD
ATOM      6  H   UNL     1     -12.641  54.275  48.107  0.00  0.00    +0.000 HD
ENDROOT
BRANCH   4   7
ATOM      7  C   UNL     1     -12.819  55.837  49.417  0.00  0.00    +0.000 A 
ATOM      8  S   UNL     1     -13.844  57.061  48.829  0.00  0.00    +0.000 S 
ATOM      9  C   UNL     1     -12.817  55.778  50.811  0.00  0.00    +0.000 A 
ATOM     10  C   UNL     1     -14.207  57.616  50.376  0.00  0.00    +0.000 A 
ATOM     11  C   UNL     1     -13.624  56.854  51.369  0.00  0.00    +0.000 A 
ATOM     12  C   UNL     1     -15.114  58.789  50.573  0.00  0.00    +0.000 C 
ATOM     13  C   UNL     1     -13.842  57.204  52.819  0.00  0.00    +0.000 C 
ATOM     14  C   UNL     1     -15.029  59.302  52.013  0.00  0.00    +0.000 C 
ATOM     15  C   UNL     1     -15.039  58.148  53.019  0.00  0.00    +0.000 C 
BRANCH   9  16
ATOM     16  C   UNL     1     -12.092  54.735  51.543  0.00  0.00    +0.000 C 
ATOM     17  O   UNL     1     -12.402  53.548  51.494  0.00  0.00    +0.000 OA
BRANCH  16  18
ATOM     18  O   UNL     1     -11.108  55.240  52.336  0.00  0.00    +0.000 OA
BRANCH  18  19
ATOM     19  C   UNL     1      -9.756  54.963  51.947  0.00  0.00    +0.000 C 
ATOM     20  C   UNL     1      -8.897  54.943  53.199  0.00  0.00    +0.000 C 
ENDBRANCH  18  19
ENDBRANCH  16  18
ENDBRANCH   9  16
ENDBRANCH   4   7
BRANCH   1  21
ATOM     21  S   UNL     1      -8.785  54.096  46.752  0.00  0.00    +0.000 S 
ATOM     22  O   UNL     1      -8.473  55.325  46.063  0.00  0.00    +0.000 OA
ATOM     23  O   UNL     1      -8.661  52.816  46.083  0.00  0.00    +0.000 OA
BRANCH  21  24
ATOM     24  C   UNL     1      -7.801  53.984  48.239  0.00  0.00    +0.000 A 
ATOM     25  C   UNL     1      -8.004  52.920  49.128  0.00  0.00    +0.000 A 
ATOM     26  C   UNL     1      -6.819  54.950  48.492  0.00  0.00    +0.000 A 
ATOM     27  C   UNL     1      -7.219  52.828  50.285  0.00  0.00    +0.000 A 
ATOM     28  C   UNL     1      -6.030  54.858  49.643  0.00  0.00    +0.000 A 
ATOM     29  C   UNL     1      -6.233  53.799  50.538  0.00  0.00    +0.000 A 
BRANCH  29  30
ATOM     30  N   UNL     1      -5.401  53.694  51.744  0.00  0.00    +0.000 N 
ATOM     31  O   UNL     1      -4.269  54.200  51.709  0.00  0.00    +0.000 OA
ATOM     32  O   UNL     1      -5.881  53.110  52.728  0.00  0.00    +0.000 OA
ENDBRANCH  29  30
ENDBRANCH  21  24
ENDBRANCH   1  21
TORSDOF 7
ENDMDL
MODEL 2
REMARK VINA RESULT:      -7.0      2.708      4.817
REMARK  Name = 
REMARK  8 active torsions:
REMARK  status: ('A' for Active; 'I' for Inactive)
REMARK    1  A    between atoms: S_1  and  N_4
REMARK    2  A    between atoms: S_1  and  C_5
REMARK    3  A    between atoms: N_10  and  C_13
REMARK    4  A    between atoms: C_14  and  N_17
REMARK    5  A    between atoms: C_16  and  C_20
REMARK    6  A    between atoms: C_20  and  O_26
REMARK    7  A    between atoms: O_26  and  C_29
REMARK    8  A    between atoms: C_29  and  C_30
REMARK                            x       y       z     vdW  Elec       q    Type
REMARK                         _______ _______ _______ _____ _____    ______ ____
ROOT
ATOM      1  N   UNL     1      -8.104  53.382  49.688  0.00  0.00    +0.000 N 
ATOM      2  C   UNL     1      -9.159  54.285  49.688  0.00  0.00    +0.000 C 
ATOM      3  O   UNL     1      -9.106  55.275  48.976  0.00  0.00    +0.000 OA
ATOM      4  N   UNL     1     -10.158  53.963  50.580  0.00  0.00    +0.000 N 
ATOM      5  H   UNL     1      -8.154  52.592  50.275  0.00  0.00    +0.000 HD
ATOM      6  H   UNL     1     -10.054  53.128  51.094  0.00  0.00    +0.000 HD
ENDROOT
BRANCH   4   7
ATOM      7  C   UNL     1     -11.305  54.724  50.814  0.00  0.00    +0.000 A 
ATOM      8  S   UNL     1     -11.428  55.649  52.236  0.00  0.00    +0.000 S 
ATOM      9  C   UNL     1     -12.418  54.881  49.988  0.00  0.00    +0.000 A 
ATOM     10  C   UNL     1     -12.983  56.172  51.863  0.00  0.00    +0.000 A 
ATOM     11  C   UNL     1     -13.418  55.722  50.631  0.00  0.00    +0.000 A 
ATOM     12  C   UNL     1     -13.731  57.069  52.796  0.00  0.00    +0.000 C 
ATOM     13  C   UNL     1     -14.790  56.095  50.130  0.00  0.00    +0.000 C 
ATOM     14  C   UNL     1     -15.212  57.136  52.410  0.00  0.00    +0.000 C 
ATOM     15  C   UNL     1     -15.389  57.285  50.896  0.00  0.00    +0.000 C 
BRANCH   9  16
ATOM     16  C   UNL     1     -12.492  54.267  48.659  0.00  0.00    +0.000 C 
ATOM     17  O   UNL     1     -12.463  53.052  48.484  0.00  0.00    +0.000 OA
BRANCH  16  18
ATOM     18  O   UNL     1     -12.509  55.187  47.656  0.00  0.00    +0.000 OA
BRANCH  18  19
ATOM     19  C   UNL     1     -11.382  55.204  46.771  0.00  0.00    +0.000 C 
ATOM     20  C   UNL     1     -11.714  54.342  45.566  0.00  0.00    +0.000 C 
ENDBRANCH  18  19
ENDBRANCH  16  18
ENDBRANCH   9  16
ENDBRANCH   4   7
BRANCH   1  21
ATOM     21  S   UNL     1      -6.750  53.586  48.726  0.00  0.00    +0.000 S 
ATOM     22  O   UNL     1      -5.821  52.516  49.002  0.00  0.00    +0.000 OA
ATOM     23  O   UNL     1      -6.360  54.972  48.896  0.00  0.00    +0.000 OA
BRANCH  21  24
ATOM     24  C   UNL     1      -7.350  53.433  47.051  0.00  0.00    +0.000 A 
ATOM     25  C   UNL     1      -7.687  52.171  46.545  0.00  0.00    +0.000 A 
ATOM     26  C   UNL     1      -7.500  54.582  46.264  0.00  0.00    +0.000 A 
ATOM     27  C   UNL     1      -8.171  52.059  45.235  0.00  0.00    +0.000 A 
ATOM     28  C   UNL     1      -7.989  54.475  44.958  0.00  0.00    +0.000 A 
ATOM     29  C   UNL     1      -8.322  53.213  44.446  0.00  0.00    +0.000 A 
BRANCH  29  30
ATOM     30  N   UNL     1      -8.843  53.097  43.078  0.00  0.00    +0.000 N 
ATOM     31  O   UNL     1      -8.095  53.430  42.145  0.00  0.00    +0.000 OA
ATOM     32  O   UNL     1      -9.999  52.669  42.934  0.00  0.00    +0.000 OA
ENDBRANCH  29  30
ENDBRANCH  21  24
ENDBRANCH   1  21
TORSDOF 7
ENDMDL
MODEL 3
REMARK VINA RESULT:      -6.9      2.256      3.867
REMARK  Name = 
REMARK  8 active torsions:
REMARK  status: ('A' for Active; 'I' for Inactive)
REMARK    1  A    between atoms: S_1  and  N_4
REMARK    2  A    between atoms: S_1  and  C_5
REMARK    3  A    between atoms: N_10  and  C_13
REMARK    4  A    between atoms: C_14  and  N_17
REMARK    5  A    between atoms: C_16  and  C_20
REMARK    6  A    between atoms: C_20  and  O_26
REMARK    7  A    between atoms: O_26  and  C_29
REMARK    8  A    between atoms: C_29  and  C_30
REMARK                            x       y       z     vdW  Elec       q    Type
REMARK                         _______ _______ _______ _____ _____    ______ ____
ROOT
ATOM      1  N   UNL     1     -11.443  52.485  51.356  0.00  0.00    +0.000 N 
ATOM      2  C   UNL     1     -11.656  53.856  51.421  0.00  0.00    +0.000 C 
ATOM      3  O   UNL     1     -10.992  54.535  52.187  0.00  0.00    +0.000 OA
ATOM      4  N   UNL     1     -12.682  54.292  50.611  0.00  0.00    +0.000 N 
ATOM      5  H   UNL     1     -11.993  51.948  50.740  0.00  0.00    +0.000 HD
ATOM      6  H   UNL     1     -13.133  53.619  50.050  0.00  0.00    +0.000 HD
ENDROOT
BRANCH   4   7
ATOM      7  C   UNL     1     -13.134  55.610  50.523  0.00  0.00    +0.000 A 
ATOM      8  S   UNL     1     -13.971  56.305  51.831  0.00  0.00    +0.000 S 
ATOM      9  C   UNL     1     -12.957  56.513  49.474  0.00  0.00    +0.000 A 
ATOM     10  C   UNL     1     -14.228  57.750  51.009  0.00  0.00    +0.000 A 
ATOM     11  C   UNL     1     -13.632  57.771  49.763  0.00  0.00    +0.000 A 
ATOM     12  C   UNL     1     -14.991  58.867  51.647  0.00  0.00    +0.000 C 
ATOM     13  C   UNL     1     -13.756  58.989  48.883  0.00  0.00    +0.000 C 
ATOM     14  C   UNL     1     -15.373  59.924  50.608  0.00  0.00    +0.000 C 
ATOM     15  C   UNL     1     -14.204  60.233  49.668  0.00  0.00    +0.000 C 
BRANCH   9  16
ATOM     16  C   UNL     1     -12.171  56.176  48.283  0.00  0.00    +0.000 C 
ATOM     17  O   UNL     1     -12.669  56.065  47.166  0.00  0.00    +0.000 OA
BRANCH  16  18
ATOM     18  O   UNL     1     -10.866  55.921  48.571  0.00  0.00    +0.000 OA
BRANCH  18  19
ATOM     19  C   UNL     1     -10.275  54.776  47.944  0.00  0.00    +0.000 C 
ATOM     20  C   UNL     1      -9.196  55.261  46.992  0.00  0.00    +0.000 C 
ENDBRANCH  18  19
ENDBRANCH  16  18
ENDBRANCH   9  16
ENDBRANCH   4   7
BRANCH   1  21
ATOM     21  S   UNL     1     -10.286  51.713  52.285  0.00  0.00    +0.000 S 
ATOM     22  O   UNL     1     -10.262  50.316  51.927  0.00  0.00    +0.000 OA
ATOM     23  O   UNL     1     -10.546  52.127  53.651  0.00  0.00    +0.000 OA
BRANCH  21  24
ATOM     24  C   UNL     1      -8.739  52.473  51.815  0.00  0.00    +0.000 A 
ATOM     25  C   UNL     1      -8.424  52.627  50.459  0.00  0.00    +0.000 A 
ATOM     26  C   UNL     1      -7.864  52.928  52.810  0.00  0.00    +0.000 A 
ATOM     27  C   UNL     1      -7.216  53.237  50.096  0.00  0.00    +0.000 A 
ATOM     28  C   UNL     1      -6.660  53.543  52.451  0.00  0.00    +0.000 A 
ATOM     29  C   UNL     1      -6.338  53.695  51.095  0.00  0.00    +0.000 A 
BRANCH  29  30
ATOM     30  N   UNL     1      -5.078  54.347  50.714  0.00  0.00    +0.000 N 
ATOM     31  O   UNL     1      -4.151  54.338  51.539  0.00  0.00    +0.000 OA
ATOM     32  O   UNL     1      -5.013  54.865  49.589  0.00  0.00    +0.000 OA
ENDBRANCH  29  30
ENDBRANCH  21  24
ENDBRANCH   1  21
TORSDOF 7
ENDMDL
MODEL 4
REMARK VINA RESULT:      -6.9      2.961      7.735
REMARK  Name = 
REMARK  8 active torsions:
REMARK  status: ('A' for Active; 'I' for Inactive)
REMARK    1  A    between atoms: S_1  and  N_4
REMARK    2  A    between atoms: S_1  and  C_5
REMARK    3  A    between atoms: N_10  and  C_13
REMARK    4  A    between atoms: C_14  and  N_17
REMARK    5  A    between atoms: C_16  and  C_20
REMARK    6  A    between atoms: C_20  and  O_26
REMARK    7  A    between atoms: O_26  and  C_29
REMARK    8  A    between atoms: C_29  and  C_30
REMARK                            x       y       z     vdW  Elec       q    Type
REMARK                         _______ _______ _______ _____ _____    ______ ____
ROOT
ATOM      1  N   UNL     1     -10.206  55.697  48.243  0.00  0.00    +0.000 N 
ATOM      2  C   UNL     1      -9.498  55.141  49.300  0.00  0.00    +0.000 C 
ATOM      3  O   UNL     1     -10.040  54.322  50.025  0.00  0.00    +0.000 OA
ATOM      4  N   UNL     1      -8.226  55.651  49.439  0.00  0.00    +0.000 N 
ATOM      5  H   UNL     1      -9.761  56.365  47.672  0.00  0.00    +0.000 HD
ATOM      6  H   UNL     1      -7.931  56.317  48.775  0.00  0.00    +0.000 HD
ENDROOT
BRANCH   4   7
ATOM      7  C   UNL     1      -7.324  55.302  50.446  0.00  0.00    +0.000 A 
ATOM      8  S   UNL     1      -7.675  55.686  52.065  0.00  0.00    +0.000 S 
ATOM      9  C   UNL     1      -6.120  54.608  50.320  0.00  0.00    +0.000 A 
ATOM     10  C   UNL     1      -6.211  55.068  52.618  0.00  0.00    +0.000 A 
ATOM     11  C   UNL     1      -5.456  54.497  51.612  0.00  0.00    +0.000 A 
ATOM     12  C   UNL     1      -5.857  55.125  54.070  0.00  0.00    +0.000 C 
ATOM     13  C   UNL     1      -4.112  53.889  51.923  0.00  0.00    +0.000 C 
ATOM     14  C   UNL     1      -4.373  54.813  54.277  0.00  0.00    +0.000 C 
ATOM     15  C   UNL     1      -3.927  53.621  53.426  0.00  0.00    +0.000 C 
BRANCH   9  16
ATOM     16  C   UNL     1      -5.660  54.077  49.033  0.00  0.00    +0.000 C 
ATOM     17  O   UNL     1      -4.541  54.303  48.581  0.00  0.00    +0.000 OA
BRANCH  16  18
ATOM     18  O   UNL     1      -6.631  53.389  48.373  0.00  0.00    +0.000 OA
BRANCH  18  19
ATOM     19  C   UNL     1      -6.477  53.251  46.954  0.00  0.00    +0.000 C 
ATOM     20  C   UNL     1      -7.219  54.394  46.284  0.00  0.00    +0.000 C 
ENDBRANCH  18  19
ENDBRANCH  16  18
ENDBRANCH   9  16
ENDBRANCH   4   7
BRANCH   1  21
ATOM     21  S   UNL     1     -11.789  55.275  47.904  0.00  0.00    +0.000 S 
ATOM     22  O   UNL     1     -11.931  53.847  48.058  0.00  0.00    +0.000 OA
ATOM     23  O   UNL     1     -12.102  55.923  46.645  0.00  0.00    +0.000 OA
BRANCH  21  24
ATOM     24  C   UNL     1     -12.762  56.105  49.152  0.00  0.00    +0.000 A 
ATOM     25  C   UNL     1     -13.308  55.369  50.212  0.00  0.00    +0.000 A 
ATOM     26  C   UNL     1     -12.952  57.490  49.071  0.00  0.00    +0.000 A 
ATOM     27  C   UNL     1     -14.057  56.027  51.195  0.00  0.00    +0.000 A 
ATOM     28  C   UNL     1     -13.695  58.151  50.055  0.00  0.00    +0.000 A 
ATOM     29  C   UNL     1     -14.247  57.418  51.114  0.00  0.00    +0.000 A 
BRANCH  29  30
ATOM     30  N   UNL     1     -15.021  58.110  52.153  0.00  0.00    +0.000 N 
ATOM     31  O   UNL     1     -15.528  57.419  53.050  0.00  0.00    +0.000 OA
ATOM     32  O   UNL     1     -15.120  59.344  52.075  0.00  0.00    +0.000 OA
ENDBRANCH  29  30
ENDBRANCH  21  24
ENDBRANCH   1  21
TORSDOF 7
ENDMDL
MODEL 5
REMARK VINA RESULT:      -6.8      3.126      7.191
REMARK  Name = 
REMARK  8 active torsions:
REMARK  status: ('A' for Active; 'I' for Inactive)
REMARK    1  A    between atoms: S_1  and  N_4
REMARK    2  A    between atoms: S_1  and  C_5
REMARK    3  A    between atoms: N_10  and  C_13
REMARK    4  A    between atoms: C_14  and  N_17
REMARK    5  A    between atoms: C_16  and  C_20
REMARK    6  A    between atoms: C_20  and  O_26
REMARK    7  A    between atoms: O_26  and  C_29
REMARK    8  A    between atoms: C_29  and  C_30
REMARK                            x       y       z     vdW  Elec       q    Type
REMARK                         _______ _______ _______ _____ _____    ______ ____
ROOT
ATOM      1  N   UNL     1     -12.049  55.150  51.839  0.00  0.00    +0.000 N 
ATOM      2  C   UNL     1     -10.661  55.192  51.821  0.00  0.00    +0.000 C 
ATOM      3  O   UNL     1     -10.086  55.782  50.921  0.00  0.00    +0.000 OA
ATOM      4  N   UNL     1     -10.076  54.476  52.843  0.00  0.00    +0.000 N 
ATOM      5  H   UNL     1     -12.500  54.661  52.566  0.00  0.00    +0.000 HD
ATOM      6  H   UNL     1     -10.676  54.044  53.494  0.00  0.00    +0.000 HD
ENDROOT
BRANCH   4   7
ATOM      7  C   UNL     1      -8.702  54.314  53.029  0.00  0.00    +0.000 A 
ATOM      8  S   UNL     1      -7.847  55.408  54.012  0.00  0.00    +0.000 S 
ATOM      9  C   UNL     1      -7.879  53.304  52.530  0.00  0.00    +0.000 A 
ATOM     10  C   UNL     1      -6.371  54.661  53.706  0.00  0.00    +0.000 A 
ATOM     11  C   UNL     1      -6.494  53.534  52.918  0.00  0.00    +0.000 A 
ATOM     12  C   UNL     1      -5.107  55.195  54.303  0.00  0.00    +0.000 C 
ATOM     13  C   UNL     1      -5.272  52.734  52.542  0.00  0.00    +0.000 C 
ATOM     14  C   UNL     1      -3.884  54.566  53.629  0.00  0.00    +0.000 C 
ATOM     15  C   UNL     1      -4.065  53.058  53.437  0.00  0.00    +0.000 C 
BRANCH   9  16
ATOM     16  C   UNL     1      -8.410  52.185  51.745  0.00  0.00    +0.000 C 
ATOM     17  O   UNL     1      -8.336  51.017  52.116  0.00  0.00    +0.000 OA
BRANCH  16  18
ATOM     18  O   UNL     1      -8.908  52.579  50.542  0.00  0.00    +0.000 OA
BRANCH  18  19
ATOM     19  C   UNL     1      -7.975  52.693  49.460  0.00  0.00    +0.000 C 
ATOM     20  C   UNL     1      -8.403  53.859  48.586  0.00  0.00    +0.000 C 
ENDBRANCH  18  19
ENDBRANCH  16  18
ENDBRANCH   9  16
ENDBRANCH   4   7
BRANCH   1  21
ATOM     21  S   UNL     1     -12.983  55.900  50.672  0.00  0.00    +0.000 S 
ATOM     22  O   UNL     1     -12.663  57.307  50.656  0.00  0.00    +0.000 OA
ATOM     23  O   UNL     1     -14.340  55.447  50.911  0.00  0.00    +0.000 OA
BRANCH  21  24
ATOM     24  C   UNL     1     -12.471  55.159  49.129  0.00  0.00    +0.000 A 
ATOM     25  C   UNL     1     -12.375  53.765  49.025  0.00  0.00    +0.000 A 
ATOM     26  C   UNL     1     -12.191  55.979  48.028  0.00  0.00    +0.000 A 
ATOM     27  C   UNL     1     -11.988  53.188  47.809  0.00  0.00    +0.000 A 
ATOM     28  C   UNL     1     -11.809  55.406  46.811  0.00  0.00    +0.000 A 
ATOM     29  C   UNL     1     -11.707  54.013  46.704  0.00  0.00    +0.000 A 
BRANCH  29  30
ATOM     30  N   UNL     1     -11.314  53.407  45.424  0.00  0.00    +0.000 N 
ATOM     31  O   UNL     1     -12.140  52.677  44.854  0.00  0.00    +0.000 OA
ATOM     32  O   UNL     1     -10.182  53.663  44.988  0.00  0.00    +0.000 OA
ENDBRANCH  29  30
ENDBRANCH  21  24
ENDBRANCH   1  21
TORSDOF 7
ENDMDL
MODEL 6
REMARK VINA RESULT:      -6.7      2.538      4.096
REMARK  Name = 
REMARK  8 active torsions:
REMARK  status: ('A' for Active; 'I' for Inactive)
REMARK    1  A    between atoms: S_1  and  N_4
REMARK    2  A    between atoms: S_1  and  C_5
REMARK    3  A    between atoms: N_10  and  C_13
REMARK    4  A    between atoms: C_14  and  N_17
REMARK    5  A    between atoms: C_16  and  C_20
REMARK    6  A    between atoms: C_20  and  O_26
REMARK    7  A    between atoms: O_26  and  C_29
REMARK    8  A    between atoms: C_29  and  C_30
REMARK                            x       y       z     vdW  Elec       q    Type
REMARK                         _______ _______ _______ _____ _____    ______ ____
ROOT
ATOM      1  N   UNL     1     -10.632  53.245  52.611  0.00  0.00    +0.000 N 
ATOM      2  C   UNL     1     -10.917  54.521  52.144  0.00  0.00    +0.000 C 
ATOM      3  O   UNL     1     -10.017  55.336  52.027  0.00  0.00    +0.000 OA
ATOM      4  N   UNL     1     -12.258  54.736  51.914  0.00  0.00    +0.000 N 
ATOM      5  H   UNL     1     -11.371  52.600  52.711  0.00  0.00    +0.000 HD
ATOM      6  H   UNL     1     -12.870  53.978  52.062  0.00  0.00    +0.000 HD
ENDROOT
BRANCH   4   7
ATOM      7  C   UNL     1     -12.820  55.942  51.490  0.00  0.00    +0.000 A 
ATOM      8  S   UNL     1     -13.638  56.931  52.605  0.00  0.00    +0.000 S 
ATOM      9  C   UNL     1     -12.773  56.513  50.217  0.00  0.00    +0.000 A 
ATOM     10  C   UNL     1     -14.056  58.059  51.428  0.00  0.00    +0.000 A 
ATOM     11  C   UNL     1     -13.532  57.756  50.187  0.00  0.00    +0.000 A 
ATOM     12  C   UNL     1     -14.870  59.263  51.779  0.00  0.00    +0.000 C 
ATOM     13  C   UNL     1     -13.801  58.658  49.009  0.00  0.00    +0.000 C 
ATOM     14  C   UNL     1     -15.392  59.949  50.513  0.00  0.00    +0.000 C 
ATOM     15  C   UNL     1     -14.305  60.045  49.440  0.00  0.00    +0.000 C 
BRANCH   9  16
ATOM     16  C   UNL     1     -12.029  55.896  49.116  0.00  0.00    +0.000 C 
ATOM     17  O   UNL     1     -10.977  56.357  48.682  0.00  0.00    +0.000 OA
BRANCH  16  18
ATOM     18  O   UNL     1     -12.673  54.821  48.584  0.00  0.00    +0.000 OA
BRANCH  18  19
ATOM     19  C   UNL     1     -11.856  53.738  48.124  0.00  0.00    +0.000 C 
ATOM     20  C   UNL     1     -12.088  52.548  49.040  0.00  0.00    +0.000 C 
ENDBRANCH  18  19
ENDBRANCH  16  18
ENDBRANCH   9  16
ENDBRANCH   4   7
BRANCH   1  21
ATOM     21  S   UNL     1      -9.081  52.762  53.010  0.00  0.00    +0.000 S 
ATOM     22  O   UNL     1      -9.124  51.389  53.454  0.00  0.00    +0.000 OA
ATOM     23  O   UNL     1      -8.559  53.806  53.870  0.00  0.00    +0.000 OA
BRANCH  21  24
ATOM     24  C   UNL     1      -8.162  52.862  51.482  0.00  0.00    +0.000 A 
ATOM     25  C   UNL     1      -8.660  52.240  50.329  0.00  0.00    +0.000 A 
ATOM     26  C   UNL     1      -6.962  53.582  51.444  0.00  0.00    +0.000 A 
ATOM     27  C   UNL     1      -7.943  52.335  49.130  0.00  0.00    +0.000 A 
ATOM     28  C   UNL     1      -6.246  53.684  50.247  0.00  0.00    +0.000 A 
ATOM     29  C   UNL     1      -6.737  53.059  49.093  0.00  0.00    +0.000 A 
BRANCH  29  30
ATOM     30  N   UNL     1      -5.993  53.170  47.831  0.00  0.00    +0.000 N 
ATOM     31  O   UNL     1      -6.532  52.733  46.803  0.00  0.00    +0.000 OA
ATOM     32  O   UNL     1      -4.870  53.696  47.867  0.00  0.00    +0.000 OA
ENDBRANCH  29  30
ENDBRANCH  21  24
ENDBRANCH   1  21
TORSDOF 7
ENDMDL
MODEL 7
REMARK VINA RESULT:      -6.6      3.327      5.318
REMARK  Name = 
REMARK  8 active torsions:
REMARK  status: ('A' for Active; 'I' for Inactive)
REMARK    1  A    between atoms: S_1  and  N_4
REMARK    2  A    between atoms: S_1  and  C_5
REMARK    3  A    between atoms: N_10  and  C_13
REMARK    4  A    between atoms: C_14  and  N_17
REMARK    5  A    between atoms: C_16  and  C_20
REMARK    6  A    between atoms: C_20  and  O_26
REMARK    7  A    between atoms: O_26  and  C_29
REMARK    8  A    between atoms: C_29  and  C_30
REMARK                            x       y       z     vdW  Elec       q    Type
REMARK                         _______ _______ _______ _____ _____    ______ ____
ROOT
ATOM      1  N   UNL     1     -10.569  51.766  48.997  0.00  0.00    +0.000 N 
ATOM      2  C   UNL     1     -11.509  52.788  49.002  0.00  0.00    +0.000 C 
ATOM      3  O   UNL     1     -12.482  52.716  48.270  0.00  0.00    +0.000 OA
ATOM      4  N   UNL     1     -11.177  53.836  49.832  0.00  0.00    +0.000 N 
ATOM      5  H   UNL     1      -9.782  51.842  49.585  0.00  0.00    +0.000 HD
ATOM      6  H   UNL     1     -10.348  53.752  50.358  0.00  0.00    +0.000 HD
ENDROOT
BRANCH   4   7
ATOM      7  C   UNL     1     -11.921  55.008  49.986  0.00  0.00    +0.000 A 
ATOM      8  S   UNL     1     -12.582  55.395  51.505  0.00  0.00    +0.000 S 
ATOM      9  C   UNL     1     -12.187  55.991  49.032  0.00  0.00    +0.000 A 
ATOM     10  C   UNL     1     -13.331  56.783  50.920  0.00  0.00    +0.000 A 
ATOM     11  C   UNL     1     -13.045  57.026  49.591  0.00  0.00    +0.000 A 
ATOM     12  C   UNL     1     -14.164  57.639  51.820  0.00  0.00    +0.000 C 
ATOM     13  C   UNL     1     -13.630  58.231  48.897  0.00  0.00    +0.000 C 
ATOM     14  C   UNL     1     -14.993  58.635  51.005  0.00  0.00    +0.000 C 
ATOM     15  C   UNL     1     -14.160  59.277  49.892  0.00  0.00    +0.000 C 
BRANCH   9  16
ATOM     16  C   UNL     1     -11.628  55.931  47.678  0.00  0.00    +0.000 C 
ATOM     17  O   UNL     1     -12.327  55.944  46.668  0.00  0.00    +0.000 OA
BRANCH  16  18
ATOM     18  O   UNL     1     -10.276  55.775  47.675  0.00  0.00    +0.000 OA
BRANCH  18  19
ATOM     19  C   UNL     1      -9.715  55.005  46.604  0.00  0.00    +0.000 C 
ATOM     20  C   UNL     1      -8.502  54.263  47.139  0.00  0.00    +0.000 C 
ENDBRANCH  18  19
ENDBRANCH  16  18
ENDBRANCH   9  16
ENDBRANCH   4   7
BRANCH   1  21
ATOM     21  S   UNL     1     -10.724  50.409  48.031  0.00  0.00    +0.000 S 
ATOM     22  O   UNL     1     -12.128  50.115  47.869  0.00  0.00    +0.000 OA
ATOM     23  O   UNL     1      -9.817  49.427  48.592  0.00  0.00    +0.000 OA
BRANCH  21  24
ATOM     24  C   UNL     1     -10.033  50.888  46.454  0.00  0.00    +0.000 A 
ATOM     25  C   UNL     1      -8.684  50.628  46.178  0.00  0.00    +0.000 A 
ATOM     26  C   UNL     1     -10.853  51.501  45.498  0.00  0.00    +0.000 A 
ATOM     27  C   UNL     1      -8.151  50.992  44.935  0.00  0.00    +0.000 A 
ATOM     28  C   UNL     1     -10.326  51.861  44.254  0.00  0.00    +0.000 A 
ATOM     29  C   UNL     1      -8.976  51.607  43.976  0.00  0.00    +0.000 A 
BRANCH  29  30
ATOM     30  N   UNL     1      -8.420  51.976  42.667  0.00  0.00    +0.000 N 
ATOM     31  O   UNL     1      -7.585  51.211  42.159  0.00  0.00    +0.000 OA
ATOM     32  O   UNL     1      -8.820  53.027  42.145  0.00  0.00    +0.000 OA
ENDBRANCH  29  30
ENDBRANCH  21  24
ENDBRANCH   1  21
TORSDOF 7
ENDMDL
MODEL 8
REMARK VINA RESULT:      -6.5      3.843      8.157
REMARK  Name = 
REMARK  8 active torsions:
REMARK  status: ('A' for Active; 'I' for Inactive)
REMARK    1  A    between atoms: S_1  and  N_4
REMARK    2  A    between atoms: S_1  and  C_5
REMARK    3  A    between atoms: N_10  and  C_13
REMARK    4  A    between atoms: C_14  and  N_17
REMARK    5  A    between atoms: C_16  and  C_20
REMARK    6  A    between atoms: C_20  and  O_26
REMARK    7  A    between atoms: O_26  and  C_29
REMARK    8  A    between atoms: C_29  and  C_30
REMARK                            x       y       z     vdW  Elec       q    Type
REMARK                         _______ _______ _______ _____ _____    ______ ____
ROOT
ATOM      1  N   UNL     1      -9.507  53.657  50.157  0.00  0.00    +0.000 N 
ATOM      2  C   UNL     1      -9.273  53.622  48.788  0.00  0.00    +0.000 C 
ATOM      3  O   UNL     1      -9.012  54.655  48.194  0.00  0.00    +0.000 OA
ATOM      4  N   UNL     1      -9.428  52.370  48.236  0.00  0.00    +0.000 N 
ATOM      5  H   UNL     1      -9.727  52.817  50.623  0.00  0.00    +0.000 HD
ATOM      6  H   UNL     1      -9.649  51.629  48.848  0.00  0.00    +0.000 HD
ENDROOT
BRANCH   4   7
ATOM      7  C   UNL     1      -9.300  52.066  46.879  0.00  0.00    +0.000 A 
ATOM      8  S   UNL     1      -7.988  51.124  46.345  0.00  0.00    +0.000 S 
ATOM      9  C   UNL     1     -10.160  52.408  45.835  0.00  0.00    +0.000 A 
ATOM     10  C   UNL     1      -8.447  51.247  44.731  0.00  0.00    +0.000 A 
ATOM     11  C   UNL     1      -9.631  51.939  44.562  0.00  0.00    +0.000 A 
ATOM     12  C   UNL     1      -7.630  50.607  43.654  0.00  0.00    +0.000 C 
ATOM     13  C   UNL     1     -10.197  52.146  43.180  0.00  0.00    +0.000 C 
ATOM     14  C   UNL     1      -8.051  51.126  42.276  0.00  0.00    +0.000 C 
ATOM     15  C   UNL     1      -9.575  51.195  42.145  0.00  0.00    +0.000 C 
BRANCH   9  16
ATOM     16  C   UNL     1     -11.417  53.127  46.067  0.00  0.00    +0.000 C 
ATOM     17  O   UNL     1     -11.668  54.212  45.552  0.00  0.00    +0.000 OA
BRANCH  16  18
ATOM     18  O   UNL     1     -12.219  52.502  46.971  0.00  0.00    +0.000 OA
BRANCH  18  19
ATOM     19  C   UNL     1     -12.742  51.221  46.597  0.00  0.00    +0.000 C 
ATOM     20  C   UNL     1     -12.557  50.273  47.769  0.00  0.00    +0.000 C 
ENDBRANCH  18  19
ENDBRANCH  16  18
ENDBRANCH   9  16
ENDBRANCH   4   7
BRANCH   1  21
ATOM     21  S   UNL     1      -9.430  55.074  51.043  0.00  0.00    +0.000 S 
ATOM     22  O   UNL     1      -8.476  55.959  50.419  0.00  0.00    +0.000 OA
ATOM     23  O   UNL     1      -9.268  54.659  52.423  0.00  0.00    +0.000 OA
BRANCH  21  24
ATOM     24  C   UNL     1     -11.065  55.782  50.919  0.00  0.00    +0.000 A 
ATOM     25  C   UNL     1     -11.941  55.705  52.010  0.00  0.00    +0.000 A 
ATOM     26  C   UNL     1     -11.450  56.430  49.738  0.00  0.00    +0.000 A 
ATOM     27  C   UNL     1     -13.217  56.275  51.913  0.00  0.00    +0.000 A 
ATOM     28  C   UNL     1     -12.721  57.005  49.640  0.00  0.00    +0.000 A 
ATOM     29  C   UNL     1     -13.602  56.925  50.727  0.00  0.00    +0.000 A 
BRANCH  29  30
ATOM     30  N   UNL     1     -14.935  57.535  50.630  0.00  0.00    +0.000 N 
ATOM     31  O   UNL     1     -15.001  58.774  50.599  0.00  0.00    +0.000 OA
ATOM     32  O   UNL     1     -15.915  56.777  50.582  0.00  0.00    +0.000 OA
ENDBRANCH  29  30
ENDBRANCH  21  24
ENDBRANCH   1  21
TORSDOF 7
ENDMDL
MODEL 9
REMARK VINA RESULT:      -6.5      3.185      6.983
REMARK  Name = 
REMARK  8 active torsions:
REMARK  status: ('A' for Active; 'I' for Inactive)
REMARK    1  A    between atoms: S_1  and  N_4
REMARK    2  A    between atoms: S_1  and  C_5
REMARK    3  A    between atoms: N_10  and  C_13
REMARK    4  A    between atoms: C_14  and  N_17
REMARK    5  A    between atoms: C_16  and  C_20
REMARK    6  A    between atoms: C_20  and  O_26
REMARK    7  A    between atoms: O_26  and  C_29
REMARK    8  A    between atoms: C_29  and  C_30
REMARK                            x       y       z     vdW  Elec       q    Type
REMARK                         _______ _______ _______ _____ _____    ______ ____
ROOT
ATOM      1  N   UNL     1     -12.281  56.211  48.089  0.00  0.00    +0.000 N 
ATOM      2  C   UNL     1     -11.823  54.980  47.636  0.00  0.00    +0.000 C 
ATOM      3  O   UNL     1     -11.797  54.028  48.397  0.00  0.00    +0.000 OA
ATOM      4  N   UNL     1     -11.378  55.006  46.332  0.00  0.00    +0.000 N 
ATOM      5  H   UNL     1     -12.287  56.974  47.466  0.00  0.00    +0.000 HD
ATOM      6  H   UNL     1     -11.457  55.858  45.843  0.00  0.00    +0.000 HD
ENDROOT
BRANCH   4   7
ATOM      7  C   UNL     1     -10.824  53.922  45.648  0.00  0.00    +0.000 A 
ATOM      8  S   UNL     1     -11.841  52.715  45.013  0.00  0.00    +0.000 S 
ATOM      9  C   UNL     1      -9.481  53.684  45.355  0.00  0.00    +0.000 A 
ATOM     10  C   UNL     1     -10.545  51.798  44.455  0.00  0.00    +0.000 A 
ATOM     11  C   UNL     1      -9.325  52.409  44.669  0.00  0.00    +0.000 A 
ATOM     12  C   UNL     1     -10.775  50.491  43.765  0.00  0.00    +0.000 C 
ATOM     13  C   UNL     1      -8.051  51.732  44.232  0.00  0.00    +0.000 C 
ATOM     14  C   UNL     1      -9.467  49.703  43.650  0.00  0.00    +0.000 C 
ATOM     15  C   UNL     1      -8.307  50.604  43.219  0.00  0.00    +0.000 C 
BRANCH   9  16
ATOM     16  C   UNL     1      -8.428  54.642  45.706  0.00  0.00    +0.000 C 
ATOM     17  O   UNL     1      -7.589  55.035  44.900  0.00  0.00    +0.000 OA
BRANCH  16  18
ATOM     18  O   UNL     1      -8.437  54.971  47.027  0.00  0.00    +0.000 OA
BRANCH  18  19
ATOM     19  C   UNL     1      -7.240  54.707  47.769  0.00  0.00    +0.000 C 
ATOM     20  C   UNL     1      -7.334  53.302  48.337  0.00  0.00    +0.000 C 
ENDBRANCH  18  19
ENDBRANCH  16  18
ENDBRANCH   9  16
ENDBRANCH   4   7
BRANCH   1  21
ATOM     21  S   UNL     1     -12.825  56.443  49.654  0.00  0.00    +0.000 S 
ATOM     22  O   UNL     1     -13.952  55.573  49.886  0.00  0.00    +0.000 OA
ATOM     23  O   UNL     1     -12.948  57.879  49.812  0.00  0.00    +0.000 OA
BRANCH  21  24
ATOM     24  C   UNL     1     -11.462  55.938  50.692  0.00  0.00    +0.000 A 
ATOM     25  C   UNL     1     -10.145  56.171  50.274  0.00  0.00    +0.000 A 
ATOM     26  C   UNL     1     -11.723  55.332  51.928  0.00  0.00    +0.000 A 
ATOM     27  C   UNL     1      -9.080  55.786  51.099  0.00  0.00    +0.000 A 
ATOM     28  C   UNL     1     -10.662  54.952  52.757  0.00  0.00    +0.000 A 
ATOM     29  C   UNL     1      -9.343  55.179  52.340  0.00  0.00    +0.000 A 
BRANCH  29  30
ATOM     30  N   UNL     1      -8.227  54.788  53.210  0.00  0.00    +0.000 N 
ATOM     31  O   UNL     1      -7.585  53.771  52.904  0.00  0.00    +0.000 OA
ATOM     32  O   UNL     1      -7.989  55.499  54.199  0.00  0.00    +0.000 OA
ENDBRANCH  29  30
ENDBRANCH  21  24
ENDBRANCH   1  21
TORSDOF 7
ENDMDL
