MODEL 1
REMARK VINA RESULT:      -7.5      0.000      0.000
REMARK  Name = 
REMARK  10 active torsions:
REMARK  status: ('A' for Active; 'I' for Inactive)
REMARK    1  A    between atoms: S_1  and  N_4
REMARK    2  A    between atoms: S_1  and  N_5
REMARK    3  A    between atoms: N_12  and  C_14
REMARK    4  A    between atoms: N_13  and  C_15
REMARK    5  A    between atoms: C_17  and  C_20
REMARK    6  A    between atoms: C_20  and  O_24
REMARK    7  A    between atoms: O_24  and  C_27
REMARK    8  A    between atoms: C_25  and  C_28
REMARK    9  A    between atoms: C_25  and  C_29
REMARK   10  A    between atoms: C_27  and  C_30
REMARK                            x       y       z     vdW  Elec       q    Type
REMARK                         _______ _______ _______ _____ _____    ______ ____
ROOT
ATOM      1  N   UNL     1      -7.663  53.654  49.689  0.00  0.00    +0.000 N 
ATOM      2  C   UNL     1      -8.739  54.549  49.874  0.00  0.00    +0.000 C 
ATOM      3  O   UNL     1      -8.566  55.722  50.165  0.00  0.00    +0.000 OA
ATOM      4  N   UNL     1      -9.982  53.945  49.777  0.00  0.00    +0.000 N 
ATOM      5  H   UNL     1      -7.822  52.700  49.510  0.00  0.00    +0.000 HD
ATOM      6  H   UNL     1     -10.072  52.985  49.577  0.00  0.00    +0.000 HD
ENDROOT
BRANCH   4   7
ATOM      7  C   UNL     1     -11.096  54.751  49.975  0.00  0.00    +0.000 A 
ATOM      8  S   UNL     1     -11.721  54.760  51.556  0.00  0.00    +0.000 S 
ATOM      9  C   UNL     1     -11.781  55.594  49.113  0.00  0.00    +0.000 A 
ATOM     10  C   UNL     1     -12.707  56.111  51.215  0.00  0.00    +0.000 A 
ATOM     11  C   UNL     1     -12.642  56.473  49.880  0.00  0.00    +0.000 A 
ATOM     12  C   UNL     1     -13.520  56.825  52.269  0.00  0.00    +0.000 C 
ATOM     13  C   UNL     1     -13.423  57.638  49.342  0.00  0.00    +0.000 C 
ATOM     14  C   UNL     1     -14.602  57.748  51.624  0.00  0.00    +0.000 C 
ATOM     15  C   UNL     1     -13.972  58.538  50.449  0.00  0.00    +0.000 C 
ATOM     16  C   UNL     1     -15.124  58.774  52.647  0.00  0.00    +0.000 C 
ATOM     17  C   UNL     1     -15.800  56.909  51.139  0.00  0.00    +0.000 C 
BRANCH   9  18
ATOM     18  C   UNL     1     -11.609  55.589  47.652  0.00  0.00    +0.000 C 
ATOM     19  O   UNL     1     -12.534  55.541  46.850  0.00  0.00    +0.000 OA
BRANCH  18  20
ATOM     20  O   UNL     1     -10.298  55.700  47.298  0.00  0.00    +0.000 OA
BRANCH  20  21
ATOM     21  C   UNL     1      -9.800  54.842  46.271  0.00  0.00    +0.000 C 
ATOM     22  C   UNL     1      -8.292  54.950  46.189  0.00  0.00    +0.000 C 
ENDBRANCH  20  21
ENDBRANCH  18  20
ENDBRANCH   9  18
ENDBRANCH   4   7
BRANCH   1  23
ATOM     23  S   UNL     1      -6.109  54.267  49.782  0.00  0.00    +0.000 S 
ATOM     24  O   UNL     1      -5.505  54.109  48.476  0.00  0.00    +0.000 OA
ATOM     25  O   UNL     1      -6.102  55.516  50.496  0.00  0.00    +0.000 OA
BRANCH  23  26
ATOM     26  N   UNL     1      -5.402  53.099  50.794  0.00  0.00    +0.000 NA
ATOM     27  C   UNL     1      -6.337  52.289  51.641  0.00  0.00    +0.000 C 
ATOM     28  C   UNL     1      -4.267  53.606  51.638  0.00  0.00    +0.000 C 
ATOM     29  C   UNL     1      -6.765  53.014  52.939  0.00  0.00    +0.000 C 
ATOM     30  C   UNL     1      -4.760  54.361  52.886  0.00  0.00    +0.000 C 
ATOM     31  N   UNL     1      -5.623  53.513  53.734  0.00  0.00    +0.000 N 
ATOM     32  C   UNL     1      -6.097  54.268  54.895  0.00  0.00    +0.000 C 
ATOM     33  H   UNL     1      -5.080  52.717  54.070  0.00  0.00    +0.000 HD
ENDBRANCH  23  26
ENDBRANCH   1  23
TORSDOF 6
ENDMDL
MODEL 2
REMARK VINA RESULT:      -7.4      3.447      8.162
REMARK  Name = 
REMARK  10 active torsions:
REMARK  status: ('A' for Active; 'I' for Inactive)
REMARK    1  A    between atoms: S_1  and  N_4
REMARK    2  A    between atoms: S_1  and  N_5
REMARK    3  A    between atoms: N_12  and  C_14
REMARK    4  A    between atoms: N_13  and  C_15
REMARK    5  A    between atoms: C_17  and  C_20
REMARK    6  A    between atoms: C_20  and  O_24
REMARK    7  A    between atoms: O_24  and  C_27
REMARK    8  A    between atoms: C_25  and  C_28
REMARK    9  A    between atoms: C_25  and  C_29
REMARK   10  A    between atoms: C_27  and  C_30
REMARK                            x       y       z     vdW  Elec       q    Type
REMARK                         _______ _______ _______ _____ _____    ______ ____
ROOT
ATOM      1  N   UNL     1     -13.740  54.979  49.957  0.00  0.00    +0.000 N 
ATOM      2  C   UNL     1     -12.832  54.811  48.890  0.00  0.00    +0.000 C 
ATOM      3  O   UNL     1     -12.744  55.617  47.977  0.00  0.00    +0.000 OA
ATOM      4  N   UNL     1     -12.131  53.617  48.946  0.00  0.00    +0.000 N 
ATOM      5  H   UNL     1     -13.837  54.292  50.654  0.00  0.00    +0.000 HD
ATOM      6  H   UNL     1     -12.262  52.979  49.684  0.00  0.00    +0.000 HD
ENDROOT
BRANCH   4   7
ATOM      7  C   UNL     1     -11.235  53.359  47.916  0.00  0.00    +0.000 A 
ATOM      8  S   UNL     1     -11.814  52.347  46.679  0.00  0.00    +0.000 S 
ATOM      9  C   UNL     1      -9.945  53.814  47.689  0.00  0.00    +0.000 A 
ATOM     10  C   UNL     1     -10.497  52.742  45.667  0.00  0.00    +0.000 A 
ATOM     11  C   UNL     1      -9.572  53.545  46.314  0.00  0.00    +0.000 A 
ATOM     12  C   UNL     1     -10.393  52.281  44.232  0.00  0.00    +0.000 C 
ATOM     13  C   UNL     1      -8.328  54.024  45.623  0.00  0.00    +0.000 C 
ATOM     14  C   UNL     1      -8.940  52.451  43.685  0.00  0.00    +0.000 C 
ATOM     15  C   UNL     1      -8.387  53.835  44.108  0.00  0.00    +0.000 C 
ATOM     16  C   UNL     1      -8.927  52.394  42.146  0.00  0.00    +0.000 C 
ATOM     17  C   UNL     1      -8.036  51.317  44.209  0.00  0.00    +0.000 C 
BRANCH   9  18
ATOM     18  C   UNL     1      -9.124  54.492  48.704  0.00  0.00    +0.000 C 
ATOM     19  O   UNL     1      -8.447  55.490  48.488  0.00  0.00    +0.000 OA
BRANCH  18  20
ATOM     20  O   UNL     1      -9.251  53.908  49.928  0.00  0.00    +0.000 OA
BRANCH  20  21
ATOM     21  C   UNL     1      -9.019  54.710  51.087  0.00  0.00    +0.000 C 
ATOM     22  C   UNL     1     -10.336  55.078  51.737  0.00  0.00    +0.000 C 
ENDBRANCH  20  21
ENDBRANCH  18  20
ENDBRANCH   9  18
ENDBRANCH   4   7
BRANCH   1  23
ATOM     23  S   UNL     1     -14.647  56.385  49.999  0.00  0.00    +0.000 S 
ATOM     24  O   UNL     1     -14.708  56.898  48.646  0.00  0.00    +0.000 OA
ATOM     25  O   UNL     1     -15.818  56.205  50.816  0.00  0.00    +0.000 OA
BRANCH  23  26
ATOM     26  N   UNL     1     -13.578  57.389  50.857  0.00  0.00    +0.000 NA
ATOM     27  C   UNL     1     -13.429  57.115  52.323  0.00  0.00    +0.000 C 
ATOM     28  C   UNL     1     -13.787  58.860  50.637  0.00  0.00    +0.000 C 
ATOM     29  C   UNL     1     -14.553  57.746  53.178  0.00  0.00    +0.000 C 
ATOM     30  C   UNL     1     -14.952  59.416  51.478  0.00  0.00    +0.000 C 
ATOM     31  N   UNL     1     -14.741  59.190  52.922  0.00  0.00    +0.000 N 
ATOM     32  C   UNL     1     -15.877  59.703  53.690  0.00  0.00    +0.000 C 
ATOM     33  H   UNL     1     -13.903  59.691  53.218  0.00  0.00    +0.000 HD
ENDBRANCH  23  26
ENDBRANCH   1  23
TORSDOF 6
ENDMDL
MODEL 3
REMARK VINA RESULT:      -7.4      1.704      2.653
REMARK  Name = 
REMARK  10 active torsions:
REMARK  status: ('A' for Active; 'I' for Inactive)
REMARK    1  A    between atoms: S_1  and  N_4
REMARK    2  A    between atoms: S_1  and  N_5
REMARK    3  A    between atoms: N_12  and  C_14
REMARK    4  A    between atoms: N_13  and  C_15
REMARK    5  A    between atoms: C_17  and  C_20
REMARK    6  A    between atoms: C_20  and  O_24
REMARK    7  A    between atoms: O_24  and  C_27
REMARK    8  A    between atoms: C_25  and  C_28
REMARK    9  A    between atoms: C_25  and  C_29
REMARK   10  A    between atoms: C_27  and  C_30
REMARK                            x       y       z     vdW  Elec       q    Type
REMARK                         _______ _______ _______ _____ _____    ______ ____
ROOT
ATOM      1  N   UNL     1      -7.537  53.908  50.310  0.00  0.00    +0.000 N 
ATOM      2  C   UNL     1      -8.647  54.769  50.448  0.00  0.00    +0.000 C 
ATOM      3  O   UNL     1      -8.528  55.932  50.799  0.00  0.00    +0.000 OA
ATOM      4  N   UNL     1      -9.863  54.141  50.229  0.00  0.00    +0.000 N 
ATOM      5  H   UNL     1      -7.657  52.959  50.081  0.00  0.00    +0.000 HD
ATOM      6  H   UNL     1      -9.911  53.189  49.982  0.00  0.00    +0.000 HD
ENDROOT
BRANCH   4   7
ATOM      7  C   UNL     1     -11.009  54.913  50.371  0.00  0.00    +0.000 A 
ATOM      8  S   UNL     1     -11.665  54.964  51.939  0.00  0.00    +0.000 S 
ATOM      9  C   UNL     1     -11.708  55.692  49.462  0.00  0.00    +0.000 A 
ATOM     10  C   UNL     1     -12.694  56.262  51.523  0.00  0.00    +0.000 A 
ATOM     11  C   UNL     1     -12.616  56.570  50.175  0.00  0.00    +0.000 A 
ATOM     12  C   UNL     1     -13.553  56.989  52.531  0.00  0.00    +0.000 C 
ATOM     13  C   UNL     1     -13.428  57.680  49.574  0.00  0.00    +0.000 C 
ATOM     14  C   UNL     1     -14.655  57.843  51.827  0.00  0.00    +0.000 C 
ATOM     15  C   UNL     1     -14.032  58.605  50.631  0.00  0.00    +0.000 C 
ATOM     16  C   UNL     1     -15.235  58.889  52.795  0.00  0.00    +0.000 C 
ATOM     17  C   UNL     1     -15.812  56.938  51.357  0.00  0.00    +0.000 C 
BRANCH   9  18
ATOM     18  C   UNL     1     -11.507  55.632  48.006  0.00  0.00    +0.000 C 
ATOM     19  O   UNL     1     -12.417  55.628  47.185  0.00  0.00    +0.000 OA
BRANCH  18  20
ATOM     20  O   UNL     1     -10.185  55.638  47.678  0.00  0.00    +0.000 OA
BRANCH  20  21
ATOM     21  C   UNL     1      -9.704  54.628  46.791  0.00  0.00    +0.000 C 
ATOM     22  C   UNL     1      -8.433  55.093  46.112  0.00  0.00    +0.000 C 
ENDBRANCH  20  21
ENDBRANCH  18  20
ENDBRANCH   9  18
ENDBRANCH   4   7
BRANCH   1  23
ATOM     23  S   UNL     1      -6.011  54.552  50.551  0.00  0.00    +0.000 S 
ATOM     24  O   UNL     1      -5.863  55.660  49.631  0.00  0.00    +0.000 OA
ATOM     25  O   UNL     1      -5.729  54.665  51.958  0.00  0.00    +0.000 OA
BRANCH  23  26
ATOM     26  N   UNL     1      -5.065  53.279  49.943  0.00  0.00    +0.000 NA
ATOM     27  C   UNL     1      -4.493  53.463  48.570  0.00  0.00    +0.000 C 
ATOM     28  C   UNL     1      -5.702  51.921  50.046  0.00  0.00    +0.000 C 
ATOM     29  C   UNL     1      -5.496  53.128  47.442  0.00  0.00    +0.000 C 
ATOM     30  C   UNL     1      -6.727  51.670  48.924  0.00  0.00    +0.000 C 
ATOM     31  N   UNL     1      -6.114  51.792  47.586  0.00  0.00    +0.000 N 
ATOM     32  C   UNL     1      -7.119  51.577  46.543  0.00  0.00    +0.000 C 
ATOM     33  H   UNL     1      -5.390  51.080  47.485  0.00  0.00    +0.000 HD
ENDBRANCH  23  26
ENDBRANCH   1  23
TORSDOF 6
ENDMDL
MODEL 4
REMARK VINA RESULT:      -7.1      3.361      4.414
REMARK  Name = 
REMARK  10 active torsions:
REMARK  status: ('A' for Active; 'I' for Inactive)
REMARK    1  A    between atoms: S_1  and  N_4
REMARK    2  A    between atoms: S_1  and  N_5
REMARK    3  A    between atoms: N_12  and  C_14
REMARK    4  A    between atoms: N_13  and  C_15
REMARK    5  A    between atoms: C_17  and  C_20
REMARK    6  A    between atoms: C_20  and  O_24
REMARK    7  A    between atoms: O_24  and  C_27
REMARK    8  A    between atoms: C_25  and  C_28
REMARK    9  A    between atoms: C_25  and  C_29
REMARK   10  A    between atoms: C_27  and  C_30
REMARK                            x       y       z     vdW  Elec       q    Type
REMARK                         _______ _______ _______ _____ _____    ______ ____
ROOT
ATOM      1  N   UNL     1      -9.033  52.871  48.911  0.00  0.00    +0.000 N 
ATOM      2  C   UNL     1     -10.248  53.409  49.389  0.00  0.00    +0.000 C 
ATOM      3  O   UNL     1     -11.225  52.711  49.611  0.00  0.00    +0.000 OA
ATOM      4  N   UNL     1     -10.236  54.791  49.495  0.00  0.00    +0.000 N 
ATOM      5  H   UNL     1      -8.275  53.455  48.685  0.00  0.00    +0.000 HD
ATOM      6  H   UNL     1      -9.434  55.315  49.270  0.00  0.00    +0.000 HD
ENDROOT
BRANCH   4   7
ATOM      7  C   UNL     1     -11.403  55.403  49.933  0.00  0.00    +0.000 A 
ATOM      8  S   UNL     1     -11.623  55.436  51.619  0.00  0.00    +0.000 S 
ATOM      9  C   UNL     1     -12.422  56.036  49.238  0.00  0.00    +0.000 A 
ATOM     10  C   UNL     1     -12.901  56.560  51.483  0.00  0.00    +0.000 A 
ATOM     11  C   UNL     1     -13.226  56.813  50.161  0.00  0.00    +0.000 A 
ATOM     12  C   UNL     1     -13.560  57.207  52.678  0.00  0.00    +0.000 C 
ATOM     13  C   UNL     1     -14.321  57.772  49.791  0.00  0.00    +0.000 C 
ATOM     14  C   UNL     1     -14.920  57.868  52.289  0.00  0.00    +0.000 C 
ATOM     15  C   UNL     1     -14.752  58.653  50.963  0.00  0.00    +0.000 C 
ATOM     16  C   UNL     1     -15.369  58.869  53.369  0.00  0.00    +0.000 C 
ATOM     17  C   UNL     1     -16.017  56.793  52.152  0.00  0.00    +0.000 C 
BRANCH   9  18
ATOM     18  C   UNL     1     -12.605  55.938  47.782  0.00  0.00    +0.000 C 
ATOM     19  O   UNL     1     -12.974  56.864  47.070  0.00  0.00    +0.000 OA
BRANCH  18  20
ATOM     20  O   UNL     1     -12.263  54.706  47.313  0.00  0.00    +0.000 OA
BRANCH  20  21
ATOM     21  C   UNL     1     -11.593  54.624  46.053  0.00  0.00    +0.000 C 
ATOM     22  C   UNL     1     -11.378  53.175  45.672  0.00  0.00    +0.000 C 
ENDBRANCH  20  21
ENDBRANCH  18  20
ENDBRANCH   9  18
ENDBRANCH   4   7
BRANCH   1  23
ATOM     23  S   UNL     1      -8.925  51.210  48.741  0.00  0.00    +0.000 S 
ATOM     24  O   UNL     1      -8.689  50.657  50.058  0.00  0.00    +0.000 OA
ATOM     25  O   UNL     1      -9.962  50.725  47.868  0.00  0.00    +0.000 OA
BRANCH  23  26
ATOM     26  N   UNL     1      -7.457  51.105  47.893  0.00  0.00    +0.000 NA
ATOM     27  C   UNL     1      -7.024  52.330  47.145  0.00  0.00    +0.000 C 
ATOM     28  C   UNL     1      -7.331  49.900  47.004  0.00  0.00    +0.000 C 
ATOM     29  C   UNL     1      -7.701  52.470  45.761  0.00  0.00    +0.000 C 
ATOM     30  C   UNL     1      -8.069  50.083  45.665  0.00  0.00    +0.000 C 
ATOM     31  N   UNL     1      -7.571  51.259  44.922  0.00  0.00    +0.000 N 
ATOM     32  C   UNL     1      -8.310  51.422  43.669  0.00  0.00    +0.000 C 
ATOM     33  H   UNL     1      -6.586  51.117  44.696  0.00  0.00    +0.000 HD
ENDBRANCH  23  26
ENDBRANCH   1  23
TORSDOF 6
ENDMDL
MODEL 5
REMARK VINA RESULT:      -6.8      2.810      6.170
REMARK  Name = 
REMARK  10 active torsions:
REMARK  status: ('A' for Active; 'I' for Inactive)
REMARK    1  A    between atoms: S_1  and  N_4
REMARK    2  A    between atoms: S_1  and  N_5
REMARK    3  A    between atoms: N_12  and  C_14
REMARK    4  A    between atoms: N_13  and  C_15
REMARK    5  A    between atoms: C_17  and  C_20
REMARK    6  A    between atoms: C_20  and  O_24
REMARK    7  A    between atoms: O_24  and  C_27
REMARK    8  A    between atoms: C_25  and  C_28
REMARK    9  A    between atoms: C_25  and  C_29
REMARK   10  A    between atoms: C_27  and  C_30
REMARK                            x       y       z     vdW  Elec       q    Type
REMARK                         _______ _______ _______ _____ _____    ______ ____
ROOT
ATOM      1  N   UNL     1      -8.782  53.908  51.063  0.00  0.00    +0.000 N 
ATOM      2  C   UNL     1      -9.119  53.464  49.767  0.00  0.00    +0.000 C 
ATOM      3  O   UNL     1      -9.641  52.377  49.567  0.00  0.00    +0.000 OA
ATOM      4  N   UNL     1      -8.726  54.336  48.765  0.00  0.00    +0.000 N 
ATOM      5  H   UNL     1      -8.312  54.761  51.201  0.00  0.00    +0.000 HD
ATOM      6  H   UNL     1      -8.275  55.186  48.973  0.00  0.00    +0.000 HD
ENDROOT
BRANCH   4   7
ATOM      7  C   UNL     1      -8.996  53.961  47.455  0.00  0.00    +0.000 A 
ATOM      8  S   UNL     1      -7.731  53.160  46.648  0.00  0.00    +0.000 S 
ATOM      9  C   UNL     1     -10.141  54.087  46.684  0.00  0.00    +0.000 A 
ATOM     10  C   UNL     1      -8.771  52.684  45.380  0.00  0.00    +0.000 A 
ATOM     11  C   UNL     1     -10.036  53.230  45.519  0.00  0.00    +0.000 A 
ATOM     12  C   UNL     1      -8.343  51.755  44.269  0.00  0.00    +0.000 C 
ATOM     13  C   UNL     1     -11.125  52.951  44.523  0.00  0.00    +0.000 C 
ATOM     14  C   UNL     1      -9.341  51.807  43.069  0.00  0.00    +0.000 C 
ATOM     15  C   UNL     1     -10.795  51.775  43.604  0.00  0.00    +0.000 C 
ATOM     16  C   UNL     1      -9.156  50.585  42.152  0.00  0.00    +0.000 C 
ATOM     17  C   UNL     1      -9.097  53.075  42.226  0.00  0.00    +0.000 C 
BRANCH   9  18
ATOM     18  C   UNL     1     -11.281  54.945  47.042  0.00  0.00    +0.000 C 
ATOM     19  O   UNL     1     -11.630  55.929  46.402  0.00  0.00    +0.000 OA
BRANCH  18  20
ATOM     20  O   UNL     1     -11.936  54.480  48.142  0.00  0.00    +0.000 OA
BRANCH  20  21
ATOM     21  C   UNL     1     -12.663  55.414  48.941  0.00  0.00    +0.000 C 
ATOM     22  C   UNL     1     -11.738  56.075  49.941  0.00  0.00    +0.000 C 
ENDBRANCH  20  21
ENDBRANCH  18  20
ENDBRANCH   9  18
ENDBRANCH   4   7
BRANCH   1  23
ATOM     23  S   UNL     1      -9.206  52.937  52.359  0.00  0.00    +0.000 S 
ATOM     24  O   UNL     1     -10.609  53.170  52.629  0.00  0.00    +0.000 OA
ATOM     25  O   UNL     1      -8.651  51.619  52.204  0.00  0.00    +0.000 OA
BRANCH  23  26
ATOM     26  N   UNL     1      -8.334  53.714  53.594  0.00  0.00    +0.000 NA
ATOM     27  C   UNL     1      -7.818  55.088  53.290  0.00  0.00    +0.000 C 
ATOM     28  C   UNL     1      -7.237  52.886  54.202  0.00  0.00    +0.000 C 
ATOM     29  C   UNL     1      -6.493  55.079  52.493  0.00  0.00    +0.000 C 
ATOM     30  C   UNL     1      -5.964  52.876  53.335  0.00  0.00    +0.000 C 
ATOM     31  N   UNL     1      -5.444  54.241  53.112  0.00  0.00    +0.000 N 
ATOM     32  C   UNL     1      -4.252  54.200  52.263  0.00  0.00    +0.000 C 
ATOM     33  H   UNL     1      -5.182  54.648  54.010  0.00  0.00    +0.000 HD
ENDBRANCH  23  26
ENDBRANCH   1  23
TORSDOF 6
ENDMDL
MODEL 6
REMARK VINA RESULT:      -6.7      3.377      7.436
REMARK  Name = 
REMARK  10 active torsions:
REMARK  status: ('A' for Active; 'I' for Inactive)
REMARK    1  A    between atoms: S_1  and  N_4
REMARK    2  A    between atoms: S_1  and  N_5
REMARK    3  A    between atoms: N_12  and  C_14
REMARK    4  A    between atoms: N_13  and  C_15
REMARK    5  A    between atoms: C_17  and  C_20
REMARK    6  A    between atoms: C_20  and  O_24
REMARK    7  A    between atoms: O_24  and  C_27
REMARK    8  A    between atoms: C_25  and  C_28
REMARK    9  A    between atoms: C_25  and  C_29
REMARK   10  A    between atoms: C_27  and  C_30
REMARK                            x       y       z     vdW  Elec       q    Type
REMARK                         _______ _______ _______ _____ _____    ______ ____
ROOT
ATOM      1  N   UNL     1      -9.821  52.601  46.924  0.00  0.00    +0.000 N 
ATOM      2  C   UNL     1      -9.215  53.164  48.068  0.00  0.00    +0.000 C 
ATOM      3  O   UNL     1      -8.620  54.230  48.031  0.00  0.00    +0.000 OA
ATOM      4  N   UNL     1      -9.294  52.354  49.189  0.00  0.00    +0.000 N 
ATOM      5  H   UNL     1     -10.248  51.716  46.960  0.00  0.00    +0.000 HD
ATOM      6  H   UNL     1      -9.754  51.484  49.161  0.00  0.00    +0.000 HD
ENDROOT
BRANCH   4   7
ATOM      7  C   UNL     1      -8.698  52.822  50.353  0.00  0.00    +0.000 A 
ATOM      8  S   UNL     1      -7.049  52.445  50.532  0.00  0.00    +0.000 S 
ATOM      9  C   UNL     1      -9.199  53.586  51.396  0.00  0.00    +0.000 A 
ATOM     10  C   UNL     1      -6.884  53.545  51.827  0.00  0.00    +0.000 A 
ATOM     11  C   UNL     1      -8.099  54.103  52.187  0.00  0.00    +0.000 A 
ATOM     12  C   UNL     1      -5.555  53.874  52.464  0.00  0.00    +0.000 C 
ATOM     13  C   UNL     1      -8.205  55.103  53.302  0.00  0.00    +0.000 C 
ATOM     14  C   UNL     1      -5.746  54.585  53.842  0.00  0.00    +0.000 C 
ATOM     15  C   UNL     1      -6.846  55.669  53.715  0.00  0.00    +0.000 C 
ATOM     16  C   UNL     1      -4.447  55.289  54.277  0.00  0.00    +0.000 C 
ATOM     17  C   UNL     1      -6.114  53.555  54.928  0.00  0.00    +0.000 C 
BRANCH   9  18
ATOM     18  C   UNL     1     -10.631  53.836  51.614  0.00  0.00    +0.000 C 
ATOM     19  O   UNL     1     -11.234  53.542  52.639  0.00  0.00    +0.000 OA
BRANCH  18  20
ATOM     20  O   UNL     1     -11.196  54.486  50.559  0.00  0.00    +0.000 OA
BRANCH  20  21
ATOM     21  C   UNL     1     -10.812  55.840  50.314  0.00  0.00    +0.000 C 
ATOM     22  C   UNL     1     -11.346  56.299  48.973  0.00  0.00    +0.000 C 
ENDBRANCH  20  21
ENDBRANCH  18  20
ENDBRANCH   9  18
ENDBRANCH   4   7
BRANCH   1  23
ATOM     23  S   UNL     1      -9.790  53.488  45.505  0.00  0.00    +0.000 S 
ATOM     24  O   UNL     1     -10.769  54.546  45.638  0.00  0.00    +0.000 OA
ATOM     25  O   UNL     1      -8.433  53.731  45.093  0.00  0.00    +0.000 OA
BRANCH  23  26
ATOM     26  N   UNL     1     -10.447  52.341  44.438  0.00  0.00    +0.000 NA
ATOM     27  C   UNL     1     -10.223  50.899  44.780  0.00  0.00    +0.000 C 
ATOM     28  C   UNL     1     -10.121  52.573  42.990  0.00  0.00    +0.000 C 
ATOM     29  C   UNL     1      -8.837  50.376  44.334  0.00  0.00    +0.000 C 
ATOM     30  C   UNL     1      -8.710  52.077  42.622  0.00  0.00    +0.000 C 
ATOM     31  N   UNL     1      -8.545  50.638  42.908  0.00  0.00    +0.000 N 
ATOM     32  C   UNL     1      -7.186  50.204  42.575  0.00  0.00    +0.000 C 
ATOM     33  H   UNL     1      -9.199  50.107  42.333  0.00  0.00    +0.000 HD
ENDBRANCH  23  26
ENDBRANCH   1  23
TORSDOF 6
ENDMDL
MODEL 7
REMARK VINA RESULT:      -6.7      3.555      7.917
REMARK  Name = 
REMARK  10 active torsions:
REMARK  status: ('A' for Active; 'I' for Inactive)
REMARK    1  A    between atoms: S_1  and  N_4
REMARK    2  A    between atoms: S_1  and  N_5
REMARK    3  A    between atoms: N_12  and  C_14
REMARK    4  A    between atoms: N_13  and  C_15
REMARK    5  A    between atoms: C_17  and  C_20
REMARK    6  A    between atoms: C_20  and  O_24
REMARK    7  A    between atoms: O_24  and  C_27
REMARK    8  A    between atoms: C_25  and  C_28
REMARK    9  A    between atoms: C_25  and  C_29
REMARK   10  A    between atoms: C_27  and  C_30
REMARK                            x       y       z     vdW  Elec       q    Type
REMARK                         _______ _______ _______ _____ _____    ______ ____
ROOT
ATOM      1  N   UNL     1     -13.848  54.928  50.101  0.00  0.00    +0.000 N 
ATOM      2  C   UNL     1     -12.576  54.806  49.502  0.00  0.00    +0.000 C 
ATOM      3  O   UNL     1     -12.089  55.697  48.823  0.00  0.00    +0.000 OA
ATOM      4  N   UNL     1     -11.993  53.564  49.692  0.00  0.00    +0.000 N 
ATOM      5  H   UNL     1     -14.248  54.179  50.597  0.00  0.00    +0.000 HD
ATOM      6  H   UNL     1     -12.441  52.862  50.218  0.00  0.00    +0.000 HD
ENDROOT
BRANCH   4   7
ATOM      7  C   UNL     1     -10.750  53.351  49.110  0.00  0.00    +0.000 A 
ATOM      8  S   UNL     1      -9.411  53.677  50.107  0.00  0.00    +0.000 S 
ATOM      9  C   UNL     1     -10.394  52.877  47.856  0.00  0.00    +0.000 A 
ATOM     10  C   UNL     1      -8.346  52.902  49.019  0.00  0.00    +0.000 A 
ATOM     11  C   UNL     1      -8.992  52.505  47.861  0.00  0.00    +0.000 A 
ATOM     12  C   UNL     1      -6.886  52.665  49.324  0.00  0.00    +0.000 C 
ATOM     13  C   UNL     1      -8.261  51.798  46.756  0.00  0.00    +0.000 C 
ATOM     14  C   UNL     1      -6.087  52.306  48.031  0.00  0.00    +0.000 C 
ATOM     15  C   UNL     1      -6.892  51.278  47.196  0.00  0.00    +0.000 C 
ATOM     16  C   UNL     1      -4.736  51.659  48.387  0.00  0.00    +0.000 C 
ATOM     17  C   UNL     1      -5.803  53.578  47.207  0.00  0.00    +0.000 C 
BRANCH   9  18
ATOM     18  C   UNL     1     -11.331  52.755  46.730  0.00  0.00    +0.000 C 
ATOM     19  O   UNL     1     -12.347  52.070  46.750  0.00  0.00    +0.000 OA
BRANCH  18  20
ATOM     20  O   UNL     1     -10.962  53.540  45.680  0.00  0.00    +0.000 OA
BRANCH  20  21
ATOM     21  C   UNL     1     -11.231  53.071  44.357  0.00  0.00    +0.000 C 
ATOM     22  C   UNL     1      -9.940  52.672  43.674  0.00  0.00    +0.000 C 
ENDBRANCH  20  21
ENDBRANCH  18  20
ENDBRANCH   9  18
ENDBRANCH   4   7
BRANCH   1  23
ATOM     23  S   UNL     1     -14.654  56.386  49.940  0.00  0.00    +0.000 S 
ATOM     24  O   UNL     1     -14.577  56.768  48.545  0.00  0.00    +0.000 OA
ATOM     25  O   UNL     1     -15.892  56.361  50.673  0.00  0.00    +0.000 OA
BRANCH  23  26
ATOM     26  N   UNL     1     -13.583  57.398  50.786  0.00  0.00    +0.000 NA
ATOM     27  C   UNL     1     -13.390  57.105  52.243  0.00  0.00    +0.000 C 
ATOM     28  C   UNL     1     -13.828  58.868  50.594  0.00  0.00    +0.000 C 
ATOM     29  C   UNL     1     -14.504  57.700  53.136  0.00  0.00    +0.000 C 
ATOM     30  C   UNL     1     -14.981  59.388  51.473  0.00  0.00    +0.000 C 
ATOM     31  N   UNL     1     -14.728  59.144  52.907  0.00  0.00    +0.000 N 
ATOM     32  C   UNL     1     -15.854  59.622  53.712  0.00  0.00    +0.000 C 
ATOM     33  H   UNL     1     -13.893  59.657  53.190  0.00  0.00    +0.000 HD
ENDBRANCH  23  26
ENDBRANCH   1  23
TORSDOF 6
ENDMDL
MODEL 8
REMARK VINA RESULT:      -6.7      3.249      7.826
REMARK  Name = 
REMARK  10 active torsions:
REMARK  status: ('A' for Active; 'I' for Inactive)
REMARK    1  A    between atoms: S_1  and  N_4
REMARK    2  A    between atoms: S_1  and  N_5
REMARK    3  A    between atoms: N_12  and  C_14
REMARK    4  A    between atoms: N_13  and  C_15
REMARK    5  A    between atoms: C_17  and  C_20
REMARK    6  A    between atoms: C_20  and  O_24
REMARK    7  A    between atoms: O_24  and  C_27
REMARK    8  A    between atoms: C_25  and  C_28
REMARK    9  A    between atoms: C_25  and  C_29
REMARK   10  A    between atoms: C_27  and  C_30
REMARK                            x       y       z     vdW  Elec       q    Type
REMARK                         _______ _______ _______ _____ _____    ______ ____
ROOT
ATOM      1  N   UNL     1     -10.800  52.788  47.631  0.00  0.00    +0.000 N 
ATOM      2  C   UNL     1      -9.985  52.741  48.781  0.00  0.00    +0.000 C 
ATOM      3  O   UNL     1      -9.793  51.707  49.402  0.00  0.00    +0.000 OA
ATOM      4  N   UNL     1      -9.507  53.983  49.169  0.00  0.00    +0.000 N 
ATOM      5  H   UNL     1     -10.989  53.639  47.176  0.00  0.00    +0.000 HD
ATOM      6  H   UNL     1      -9.718  54.797  48.657  0.00  0.00    +0.000 HD
ENDROOT
BRANCH   4   7
ATOM      7  C   UNL     1      -8.717  54.030  50.311  0.00  0.00    +0.000 A 
ATOM      8  S   UNL     1      -7.063  53.719  50.068  0.00  0.00    +0.000 S 
ATOM      9  C   UNL     1      -9.028  54.326  51.629  0.00  0.00    +0.000 A 
ATOM     10  C   UNL     1      -6.674  54.278  51.634  0.00  0.00    +0.000 A 
ATOM     11  C   UNL     1      -7.807  54.587  52.367  0.00  0.00    +0.000 A 
ATOM     12  C   UNL     1      -5.254  54.435  52.124  0.00  0.00    +0.000 C 
ATOM     13  C   UNL     1      -7.717  55.101  53.775  0.00  0.00    +0.000 C 
ATOM     14  C   UNL     1      -5.202  54.579  53.678  0.00  0.00    +0.000 C 
ATOM     15  C   UNL     1      -6.306  55.562  54.143  0.00  0.00    +0.000 C 
ATOM     16  C   UNL     1      -3.847  55.156  54.128  0.00  0.00    +0.000 C 
ATOM     17  C   UNL     1      -5.378  53.202  54.349  0.00  0.00    +0.000 C 
BRANCH   9  18
ATOM     18  C   UNL     1     -10.401  54.388  52.153  0.00  0.00    +0.000 C 
ATOM     19  O   UNL     1     -10.866  53.594  52.962  0.00  0.00    +0.000 OA
BRANCH  18  20
ATOM     20  O   UNL     1     -11.076  55.469  51.672  0.00  0.00    +0.000 OA
BRANCH  20  21
ATOM     21  C   UNL     1     -12.466  55.322  51.376  0.00  0.00    +0.000 C 
ATOM     22  C   UNL     1     -13.240  56.508  51.910  0.00  0.00    +0.000 C 
ENDBRANCH  20  21
ENDBRANCH  18  20
ENDBRANCH   9  18
ENDBRANCH   4   7
BRANCH   1  23
ATOM     23  S   UNL     1     -11.438  51.347  47.064  0.00  0.00    +0.000 S 
ATOM     24  O   UNL     1     -10.323  50.504  46.686  0.00  0.00    +0.000 OA
ATOM     25  O   UNL     1     -12.501  50.895  47.922  0.00  0.00    +0.000 OA
BRANCH  23  26
ATOM     26  N   UNL     1     -12.148  51.898  45.622  0.00  0.00    +0.000 NA
ATOM     27  C   UNL     1     -12.036  50.996  44.431  0.00  0.00    +0.000 C 
ATOM     28  C   UNL     1     -11.768  53.299  45.232  0.00  0.00    +0.000 C 
ATOM     29  C   UNL     1     -10.680  51.121  43.697  0.00  0.00    +0.000 C 
ATOM     30  C   UNL     1     -10.387  53.361  44.553  0.00  0.00    +0.000 C 
ATOM     31  N   UNL     1     -10.332  52.514  43.345  0.00  0.00    +0.000 N 
ATOM     32  C   UNL     1      -9.001  52.573  42.740  0.00  0.00    +0.000 C 
ATOM     33  H   UNL     1     -11.008  52.862  42.664  0.00  0.00    +0.000 HD
ENDBRANCH  23  26
ENDBRANCH   1  23
TORSDOF 6
ENDMDL
MODEL 9
REMARK VINA RESULT:      -6.6      1.958      2.223
REMARK  Name = 
REMARK  10 active torsions:
REMARK  status: ('A' for Active; 'I' for Inactive)
REMARK    1  A    between atoms: S_1  and  N_4
REMARK    2  A    between atoms: S_1  and  N_5
REMARK    3  A    between atoms: N_12  and  C_14
REMARK    4  A    between atoms: N_13  and  C_15
REMARK    5  A    between atoms: C_17  and  C_20
REMARK    6  A    between atoms: C_20  and  O_24
REMARK    7  A    between atoms: O_24  and  C_27
REMARK    8  A    between atoms: C_25  and  C_28
REMARK    9  A    between atoms: C_25  and  C_29
REMARK   10  A    between atoms: C_27  and  C_30
REMARK                            x       y       z     vdW  Elec       q    Type
REMARK                         _______ _______ _______ _____ _____    ______ ____
ROOT
ATOM      1  N   UNL     1      -7.322  52.876  50.994  0.00  0.00    +0.000 N 
ATOM      2  C   UNL     1      -8.669  53.276  50.860  0.00  0.00    +0.000 C 
ATOM      3  O   UNL     1      -9.564  52.479  50.621  0.00  0.00    +0.000 OA
ATOM      4  N   UNL     1      -8.848  54.648  50.941  0.00  0.00    +0.000 N 
ATOM      5  H   UNL     1      -6.608  53.538  51.130  0.00  0.00    +0.000 HD
ATOM      6  H   UNL     1      -8.089  55.255  51.098  0.00  0.00    +0.000 HD
ENDROOT
BRANCH   4   7
ATOM      7  C   UNL     1     -10.142  55.128  50.791  0.00  0.00    +0.000 A 
ATOM      8  S   UNL     1     -11.047  55.252  52.226  0.00  0.00    +0.000 S 
ATOM      9  C   UNL     1     -10.833  55.569  49.672  0.00  0.00    +0.000 A 
ATOM     10  C   UNL     1     -12.250  56.182  51.450  0.00  0.00    +0.000 A 
ATOM     11  C   UNL     1     -12.017  56.295  50.090  0.00  0.00    +0.000 A 
ATOM     12  C   UNL     1     -13.403  56.819  52.189  0.00  0.00    +0.000 C 
ATOM     13  C   UNL     1     -12.941  57.070  49.196  0.00  0.00    +0.000 C 
ATOM     14  C   UNL     1     -14.532  57.263  51.205  0.00  0.00    +0.000 C 
ATOM     15  C   UNL     1     -13.900  57.967  49.978  0.00  0.00    +0.000 C 
ATOM     16  C   UNL     1     -15.481  58.269  51.882  0.00  0.00    +0.000 C 
ATOM     17  C   UNL     1     -15.368  56.043  50.766  0.00  0.00    +0.000 C 
BRANCH   9  18
ATOM     18  C   UNL     1     -10.383  55.343  48.290  0.00  0.00    +0.000 C 
ATOM     19  O   UNL     1      -9.307  55.724  47.845  0.00  0.00    +0.000 OA
BRANCH  18  20
ATOM     20  O   UNL     1     -11.285  54.610  47.580  0.00  0.00    +0.000 OA
BRANCH  20  21
ATOM     21  C   UNL     1     -11.639  55.058  46.271  0.00  0.00    +0.000 C 
ATOM     22  C   UNL     1     -11.364  53.968  45.256  0.00  0.00    +0.000 C 
ENDBRANCH  20  21
ENDBRANCH  18  20
ENDBRANCH   9  18
ENDBRANCH   4   7
BRANCH   1  23
ATOM     23  S   UNL     1      -6.979  51.240  50.913  0.00  0.00    +0.000 S 
ATOM     24  O   UNL     1      -7.520  50.628  52.109  0.00  0.00    +0.000 OA
ATOM     25  O   UNL     1      -7.244  50.734  49.592  0.00  0.00    +0.000 OA
BRANCH  23  26
ATOM     26  N   UNL     1      -5.292  51.292  51.109  0.00  0.00    +0.000 NA
ATOM     27  C   UNL     1      -4.761  50.926  52.462  0.00  0.00    +0.000 C 
ATOM     28  C   UNL     1      -4.647  52.566  50.641  0.00  0.00    +0.000 C 
ATOM     29  C   UNL     1      -4.818  52.093  53.475  0.00  0.00    +0.000 C 
ATOM     30  C   UNL     1      -4.783  53.702  51.672  0.00  0.00    +0.000 C 
ATOM     31  N   UNL     1      -4.188  53.334  52.973  0.00  0.00    +0.000 N 
ATOM     32  C   UNL     1      -4.359  54.421  53.938  0.00  0.00    +0.000 C 
ATOM     33  H   UNL     1      -3.189  53.171  52.849  0.00  0.00    +0.000 HD
ENDBRANCH  23  26
ENDBRANCH   1  23
TORSDOF 6
ENDMDL
