MODEL 1
REMARK VINA RESULT:      -7.4      0.000      0.000
REMARK  Name = 
REMARK  10 active torsions:
REMARK  status: ('A' for Active; 'I' for Inactive)
REMARK    1  A    between atoms: S_1  and  N_4
REMARK    2  A    between atoms: S_1  and  C_5
REMARK    3  A    between atoms: N_10  and  C_13
REMARK    4  A    between atoms: C_14  and  C_17
REMARK    5  A    between atoms: C_16  and  C_20
REMARK    6  A    between atoms: C_20  and  O_24
REMARK    7  A    between atoms: O_24  and  C_27
REMARK    8  A    between atoms: C_25  and  C_28
REMARK    9  A    between atoms: C_25  and  C_29
REMARK   10  A    between atoms: C_27  and  C_30
REMARK                            x       y       z     vdW  Elec       q    Type
REMARK                         _______ _______ _______ _____ _____    ______ ____
ROOT
ATOM      1  N   UNL     1      -9.742  51.701  48.728  0.00  0.00    +0.000 N 
ATOM      2  C   UNL     1     -10.784  52.585  48.964  0.00  0.00    +0.000 C 
ATOM      3  O   UNL     1     -11.886  52.414  48.460  0.00  0.00    +0.000 OA
ATOM      4  N   UNL     1     -10.436  53.686  49.726  0.00  0.00    +0.000 N 
ATOM      5  H   UNL     1      -8.892  51.825  49.210  0.00  0.00    +0.000 HD
ATOM      6  H   UNL     1      -9.526  53.786  50.087  0.00  0.00    +0.000 HD
ENDROOT
BRANCH   4   7
ATOM      7  C   UNL     1     -11.407  54.645  49.962  0.00  0.00    +0.000 A 
ATOM      8  S   UNL     1     -12.113  54.624  51.509  0.00  0.00    +0.000 S 
ATOM      9  C   UNL     1     -11.882  55.668  49.160  0.00  0.00    +0.000 A 
ATOM     10  C   UNL     1     -12.873  56.131  51.236  0.00  0.00    +0.000 A 
ATOM     11  C   UNL     1     -12.667  56.591  49.946  0.00  0.00    +0.000 A 
ATOM     12  C   UNL     1     -13.673  56.855  52.295  0.00  0.00    +0.000 C 
ATOM     13  C   UNL     1     -13.279  57.870  49.454  0.00  0.00    +0.000 C 
ATOM     14  C   UNL     1     -14.611  57.928  51.653  0.00  0.00    +0.000 C 
ATOM     15  C   UNL     1     -13.820  58.733  50.592  0.00  0.00    +0.000 C 
ATOM     16  C   UNL     1     -15.114  58.926  52.712  0.00  0.00    +0.000 C 
ATOM     17  C   UNL     1     -15.842  57.247  51.022  0.00  0.00    +0.000 C 
BRANCH   9  18
ATOM     18  C   UNL     1     -11.583  55.755  47.729  0.00  0.00    +0.000 C 
ATOM     19  O   UNL     1     -12.444  55.889  46.868  0.00  0.00    +0.000 OA
BRANCH  18  20
ATOM     20  O   UNL     1     -10.248  55.673  47.481  0.00  0.00    +0.000 OA
BRANCH  20  21
ATOM     21  C   UNL     1      -9.843  54.902  46.347  0.00  0.00    +0.000 C 
ATOM     22  C   UNL     1      -8.332  54.919  46.235  0.00  0.00    +0.000 C 
ENDBRANCH  20  21
ENDBRANCH  18  20
ENDBRANCH   9  18
ENDBRANCH   4   7
BRANCH   1  23
ATOM     23  S   UNL     1      -9.879  50.427  47.650  0.00  0.00    +0.000 S 
ATOM     24  O   UNL     1     -11.203  49.864  47.773  0.00  0.00    +0.000 OA
ATOM     25  O   UNL     1      -8.716  49.586  47.907  0.00  0.00    +0.000 OA
BRANCH  23  26
ATOM     26  C   UNL     1      -9.683  51.147  46.023  0.00  0.00    +0.000 A 
ATOM     27  N   UNL     1      -8.394  51.290  45.605  0.00  0.00    +0.000 NA
ATOM     28  C   UNL     1     -10.797  51.490  45.273  0.00  0.00    +0.000 A 
ATOM     29  C   UNL     1      -8.237  51.784  44.352  0.00  0.00    +0.000 A 
ATOM     30  C   UNL     1     -10.587  52.012  43.998  0.00  0.00    +0.000 A 
ATOM     31  C   UNL     1      -9.287  52.159  43.513  0.00  0.00    +0.000 A 
ATOM     32  C   UNL     1      -9.038  52.711  42.145  0.00  0.00    +0.000 C 
ENDBRANCH  23  26
ENDBRANCH   1  23
TORSDOF 6
ENDMDL
MODEL 2
REMARK VINA RESULT:      -7.1      3.981      7.643
REMARK  Name = 
REMARK  10 active torsions:
REMARK  status: ('A' for Active; 'I' for Inactive)
REMARK    1  A    between atoms: S_1  and  N_4
REMARK    2  A    between atoms: S_1  and  C_5
REMARK    3  A    between atoms: N_10  and  C_13
REMARK    4  A    between atoms: C_14  and  C_17
REMARK    5  A    between atoms: C_16  and  C_20
REMARK    6  A    between atoms: C_20  and  O_24
REMARK    7  A    between atoms: O_24  and  C_27
REMARK    8  A    between atoms: C_25  and  C_28
REMARK    9  A    between atoms: C_25  and  C_29
REMARK   10  A    between atoms: C_27  and  C_30
REMARK                            x       y       z     vdW  Elec       q    Type
REMARK                         _______ _______ _______ _____ _____    ______ ____
ROOT
ATOM      1  N   UNL     1     -14.464  55.077  51.205  0.00  0.00    +0.000 N 
ATOM      2  C   UNL     1     -13.155  55.261  51.625  0.00  0.00    +0.000 C 
ATOM      3  O   UNL     1     -12.807  56.294  52.181  0.00  0.00    +0.000 OA
ATOM      4  N   UNL     1     -12.295  54.233  51.278  0.00  0.00    +0.000 N 
ATOM      5  H   UNL     1     -14.726  54.205  50.831  0.00  0.00    +0.000 HD
ATOM      6  H   UNL     1     -12.624  53.434  50.807  0.00  0.00    +0.000 HD
ENDROOT
BRANCH   4   7
ATOM      7  C   UNL     1     -10.958  54.366  51.612  0.00  0.00    +0.000 A 
ATOM      8  S   UNL     1     -10.499  53.720  53.118  0.00  0.00    +0.000 S 
ATOM      9  C   UNL     1      -9.897  54.900  50.903  0.00  0.00    +0.000 A 
ATOM     10  C   UNL     1      -8.840  53.903  52.746  0.00  0.00    +0.000 A 
ATOM     11  C   UNL     1      -8.648  54.538  51.530  0.00  0.00    +0.000 A 
ATOM     12  C   UNL     1      -7.733  53.422  53.656  0.00  0.00    +0.000 C 
ATOM     13  C   UNL     1      -7.275  54.856  51.012  0.00  0.00    +0.000 C 
ATOM     14  C   UNL     1      -6.379  54.117  53.307  0.00  0.00    +0.000 C 
ATOM     15  C   UNL     1      -6.178  54.112  51.771  0.00  0.00    +0.000 C 
ATOM     16  C   UNL     1      -5.192  53.361  53.931  0.00  0.00    +0.000 C 
ATOM     17  C   UNL     1      -6.365  55.558  53.858  0.00  0.00    +0.000 C 
BRANCH   9  18
ATOM     18  C   UNL     1     -10.079  55.698  49.688  0.00  0.00    +0.000 C 
ATOM     19  O   UNL     1      -9.698  56.857  49.579  0.00  0.00    +0.000 OA
BRANCH  18  20
ATOM     20  O   UNL     1     -10.714  54.998  48.709  0.00  0.00    +0.000 OA
BRANCH  20  21
ATOM     21  C   UNL     1     -11.706  55.693  47.950  0.00  0.00    +0.000 C 
ATOM     22  C   UNL     1     -11.617  55.278  46.497  0.00  0.00    +0.000 C 
ENDBRANCH  20  21
ENDBRANCH  18  20
ENDBRANCH   9  18
ENDBRANCH   4   7
BRANCH   1  23
ATOM     23  S   UNL     1     -15.615  56.287  51.316  0.00  0.00    +0.000 S 
ATOM     24  O   UNL     1     -15.927  56.496  52.710  0.00  0.00    +0.000 OA
ATOM     25  O   UNL     1     -16.674  55.889  50.397  0.00  0.00    +0.000 OA
BRANCH  23  26
ATOM     26  C   UNL     1     -14.838  57.756  50.650  0.00  0.00    +0.000 A 
ATOM     27  N   UNL     1     -14.766  58.811  51.509  0.00  0.00    +0.000 NA
ATOM     28  C   UNL     1     -14.338  57.755  49.357  0.00  0.00    +0.000 A 
ATOM     29  C   UNL     1     -14.130  59.910  51.031  0.00  0.00    +0.000 A 
ATOM     30  C   UNL     1     -13.709  58.913  48.903  0.00  0.00    +0.000 A 
ATOM     31  C   UNL     1     -13.589  60.017  49.749  0.00  0.00    +0.000 A 
ATOM     32  C   UNL     1     -12.913  61.267  49.285  0.00  0.00    +0.000 C 
ENDBRANCH  23  26
ENDBRANCH   1  23
TORSDOF 6
ENDMDL
MODEL 3
REMARK VINA RESULT:      -7.0      3.635      5.497
REMARK  Name = 
REMARK  10 active torsions:
REMARK  status: ('A' for Active; 'I' for Inactive)
REMARK    1  A    between atoms: S_1  and  N_4
REMARK    2  A    between atoms: S_1  and  C_5
REMARK    3  A    between atoms: N_10  and  C_13
REMARK    4  A    between atoms: C_14  and  C_17
REMARK    5  A    between atoms: C_16  and  C_20
REMARK    6  A    between atoms: C_20  and  O_24
REMARK    7  A    between atoms: O_24  and  C_27
REMARK    8  A    between atoms: C_25  and  C_28
REMARK    9  A    between atoms: C_25  and  C_29
REMARK   10  A    between atoms: C_27  and  C_30
REMARK                            x       y       z     vdW  Elec       q    Type
REMARK                         _______ _______ _______ _____ _____    ______ ____
ROOT
ATOM      1  N   UNL     1      -8.064  53.001  50.249  0.00  0.00    +0.000 N 
ATOM      2  C   UNL     1      -9.023  53.976  50.481  0.00  0.00    +0.000 C 
ATOM      3  O   UNL     1      -8.852  54.844  51.327  0.00  0.00    +0.000 OA
ATOM      4  N   UNL     1     -10.187  53.816  49.751  0.00  0.00    +0.000 N 
ATOM      5  H   UNL     1      -8.200  52.365  49.511  0.00  0.00    +0.000 HD
ATOM      6  H   UNL     1     -10.281  53.083  49.101  0.00  0.00    +0.000 HD
ENDROOT
BRANCH   4   7
ATOM      7  C   UNL     1     -11.216  54.717  49.965  0.00  0.00    +0.000 A 
ATOM      8  S   UNL     1     -11.926  54.683  51.511  0.00  0.00    +0.000 S 
ATOM      9  C   UNL     1     -11.749  55.693  49.142  0.00  0.00    +0.000 A 
ATOM     10  C   UNL     1     -12.776  56.135  51.206  0.00  0.00    +0.000 A 
ATOM     11  C   UNL     1     -12.593  56.581  49.907  0.00  0.00    +0.000 A 
ATOM     12  C   UNL     1     -13.623  56.829  52.248  0.00  0.00    +0.000 C 
ATOM     13  C   UNL     1     -13.280  57.811  49.389  0.00  0.00    +0.000 C 
ATOM     14  C   UNL     1     -14.622  57.829  51.582  0.00  0.00    +0.000 C 
ATOM     15  C   UNL     1     -13.878  58.661  50.508  0.00  0.00    +0.000 C 
ATOM     16  C   UNL     1     -15.190  58.815  52.620  0.00  0.00    +0.000 C 
ATOM     17  C   UNL     1     -15.807  57.062  50.961  0.00  0.00    +0.000 C 
BRANCH   9  18
ATOM     18  C   UNL     1     -11.450  55.771  47.711  0.00  0.00    +0.000 C 
ATOM     19  O   UNL     1     -12.314  55.854  46.846  0.00  0.00    +0.000 OA
BRANCH  18  20
ATOM     20  O   UNL     1     -10.113  55.743  47.466  0.00  0.00    +0.000 OA
BRANCH  20  21
ATOM     21  C   UNL     1      -9.658  54.872  46.428  0.00  0.00    +0.000 C 
ATOM     22  C   UNL     1      -8.147  54.779  46.468  0.00  0.00    +0.000 C 
ENDBRANCH  20  21
ENDBRANCH  18  20
ENDBRANCH   9  18
ENDBRANCH   4   7
BRANCH   1  23
ATOM     23  S   UNL     1      -6.680  52.871  51.183  0.00  0.00    +0.000 S 
ATOM     24  O   UNL     1      -6.173  54.198  51.438  0.00  0.00    +0.000 OA
ATOM     25  O   UNL     1      -5.841  51.905  50.485  0.00  0.00    +0.000 OA
BRANCH  23  26
ATOM     26  C   UNL     1      -7.205  52.125  52.723  0.00  0.00    +0.000 A 
ATOM     27  N   UNL     1      -8.342  51.377  52.646  0.00  0.00    +0.000 NA
ATOM     28  C   UNL     1      -6.457  52.304  53.876  0.00  0.00    +0.000 A 
ATOM     29  C   UNL     1      -8.717  50.763  53.796  0.00  0.00    +0.000 A 
ATOM     30  C   UNL     1      -6.891  51.669  55.038  0.00  0.00    +0.000 A 
ATOM     31  C   UNL     1      -8.038  50.874  55.009  0.00  0.00    +0.000 A 
ATOM     32  C   UNL     1      -8.519  50.179  56.243  0.00  0.00    +0.000 C 
ENDBRANCH  23  26
ENDBRANCH   1  23
TORSDOF 6
ENDMDL
MODEL 4
REMARK VINA RESULT:      -7.0      3.220      4.902
REMARK  Name = 
REMARK  10 active torsions:
REMARK  status: ('A' for Active; 'I' for Inactive)
REMARK    1  A    between atoms: S_1  and  N_4
REMARK    2  A    between atoms: S_1  and  C_5
REMARK    3  A    between atoms: N_10  and  C_13
REMARK    4  A    between atoms: C_14  and  C_17
REMARK    5  A    between atoms: C_16  and  C_20
REMARK    6  A    between atoms: C_20  and  O_24
REMARK    7  A    between atoms: O_24  and  C_27
REMARK    8  A    between atoms: C_25  and  C_28
REMARK    9  A    between atoms: C_25  and  C_29
REMARK   10  A    between atoms: C_27  and  C_30
REMARK                            x       y       z     vdW  Elec       q    Type
REMARK                         _______ _______ _______ _____ _____    ______ ____
ROOT
ATOM      1  N   UNL     1      -8.388  52.652  48.908  0.00  0.00    +0.000 N 
ATOM      2  C   UNL     1      -9.278  53.676  49.196  0.00  0.00    +0.000 C 
ATOM      3  O   UNL     1      -8.882  54.780  49.545  0.00  0.00    +0.000 OA
ATOM      4  N   UNL     1     -10.610  53.306  49.141  0.00  0.00    +0.000 N 
ATOM      5  H   UNL     1      -8.737  51.802  48.557  0.00  0.00    +0.000 HD
ATOM      6  H   UNL     1     -10.873  52.394  48.879  0.00  0.00    +0.000 HD
ENDROOT
BRANCH   4   7
ATOM      7  C   UNL     1     -11.562  54.257  49.470  0.00  0.00    +0.000 A 
ATOM      8  S   UNL     1     -12.034  54.304  51.103  0.00  0.00    +0.000 S 
ATOM      9  C   UNL     1     -12.174  55.228  48.697  0.00  0.00    +0.000 A 
ATOM     10  C   UNL     1     -12.865  55.780  50.871  0.00  0.00    +0.000 A 
ATOM     11  C   UNL     1     -12.861  56.175  49.543  0.00  0.00    +0.000 A 
ATOM     12  C   UNL     1     -13.521  56.543  51.999  0.00  0.00    +0.000 C 
ATOM     13  C   UNL     1     -13.571  57.416  49.085  0.00  0.00    +0.000 C 
ATOM     14  C   UNL     1     -14.570  57.563  51.450  0.00  0.00    +0.000 C 
ATOM     15  C   UNL     1     -13.964  58.327  50.246  0.00  0.00    +0.000 C 
ATOM     16  C   UNL     1     -14.940  58.606  52.520  0.00  0.00    +0.000 C 
ATOM     17  C   UNL     1     -15.862  56.827  51.040  0.00  0.00    +0.000 C 
BRANCH   9  18
ATOM     18  C   UNL     1     -12.089  55.245  47.235  0.00  0.00    +0.000 C 
ATOM     19  O   UNL     1     -12.086  56.276  46.573  0.00  0.00    +0.000 OA
BRANCH  18  20
ATOM     20  O   UNL     1     -12.010  53.992  46.713  0.00  0.00    +0.000 OA
BRANCH  20  21
ATOM     21  C   UNL     1     -11.468  53.867  45.397  0.00  0.00    +0.000 C 
ATOM     22  C   UNL     1      -9.957  53.799  45.473  0.00  0.00    +0.000 C 
ENDBRANCH  20  21
ENDBRANCH  18  20
ENDBRANCH   9  18
ENDBRANCH   4   7
BRANCH   1  23
ATOM     23  S   UNL     1      -6.737  52.815  49.134  0.00  0.00    +0.000 S 
ATOM     24  O   UNL     1      -6.281  53.953  48.373  0.00  0.00    +0.000 OA
ATOM     25  O   UNL     1      -6.184  51.496  48.852  0.00  0.00    +0.000 OA
BRANCH  23  26
ATOM     26  C   UNL     1      -6.518  53.137  50.881  0.00  0.00    +0.000 A 
ATOM     27  N   UNL     1      -5.874  54.300  51.179  0.00  0.00    +0.000 NA
ATOM     28  C   UNL     1      -7.013  52.247  51.822  0.00  0.00    +0.000 A 
ATOM     29  C   UNL     1      -5.752  54.579  52.500  0.00  0.00    +0.000 A 
ATOM     30  C   UNL     1      -6.848  52.566  53.168  0.00  0.00    +0.000 A 
ATOM     31  C   UNL     1      -6.214  53.756  53.528  0.00  0.00    +0.000 A 
ATOM     32  C   UNL     1      -6.031  54.122  54.967  0.00  0.00    +0.000 C 
ENDBRANCH  23  26
ENDBRANCH   1  23
TORSDOF 6
ENDMDL
MODEL 5
REMARK VINA RESULT:      -6.8      1.822      2.749
REMARK  Name = 
REMARK  10 active torsions:
REMARK  status: ('A' for Active; 'I' for Inactive)
REMARK    1  A    between atoms: S_1  and  N_4
REMARK    2  A    between atoms: S_1  and  C_5
REMARK    3  A    between atoms: N_10  and  C_13
REMARK    4  A    between atoms: C_14  and  C_17
REMARK    5  A    between atoms: C_16  and  C_20
REMARK    6  A    between atoms: C_20  and  O_24
REMARK    7  A    between atoms: O_24  and  C_27
REMARK    8  A    between atoms: C_25  and  C_28
REMARK    9  A    between atoms: C_25  and  C_29
REMARK   10  A    between atoms: C_27  and  C_30
REMARK                            x       y       z     vdW  Elec       q    Type
REMARK                         _______ _______ _______ _____ _____    ______ ____
ROOT
ATOM      1  N   UNL     1      -8.258  53.202  49.273  0.00  0.00    +0.000 N 
ATOM      2  C   UNL     1      -9.337  54.066  49.392  0.00  0.00    +0.000 C 
ATOM      3  O   UNL     1      -9.392  55.103  48.745  0.00  0.00    +0.000 OA
ATOM      4  N   UNL     1     -10.263  53.692  50.350  0.00  0.00    +0.000 N 
ATOM      5  H   UNL     1      -8.282  52.341  49.749  0.00  0.00    +0.000 HD
ATOM      6  H   UNL     1     -10.156  52.857  50.860  0.00  0.00    +0.000 HD
ENDROOT
BRANCH   4   7
ATOM      7  C   UNL     1     -11.343  54.530  50.569  0.00  0.00    +0.000 A 
ATOM      8  S   UNL     1     -11.541  55.089  52.164  0.00  0.00    +0.000 S 
ATOM      9  C   UNL     1     -12.283  55.043  49.692  0.00  0.00    +0.000 A 
ATOM     10  C   UNL     1     -12.720  56.225  51.672  0.00  0.00    +0.000 A 
ATOM     11  C   UNL     1     -13.024  56.108  50.325  0.00  0.00    +0.000 A 
ATOM     12  C   UNL     1     -13.343  57.228  52.616  0.00  0.00    +0.000 C 
ATOM     13  C   UNL     1     -14.069  56.966  49.672  0.00  0.00    +0.000 C 
ATOM     14  C   UNL     1     -14.675  57.796  52.030  0.00  0.00    +0.000 C 
ATOM     15  C   UNL     1     -14.468  58.159  50.538  0.00  0.00    +0.000 C 
ATOM     16  C   UNL     1     -15.099  59.081  52.765  0.00  0.00    +0.000 C 
ATOM     17  C   UNL     1     -15.809  56.763  52.192  0.00  0.00    +0.000 C 
BRANCH   9  18
ATOM     18  C   UNL     1     -12.444  54.544  48.324  0.00  0.00    +0.000 C 
ATOM     19  O   UNL     1     -12.489  55.274  47.342  0.00  0.00    +0.000 OA
BRANCH  18  20
ATOM     20  O   UNL     1     -12.531  53.187  48.283  0.00  0.00    +0.000 OA
BRANCH  20  21
ATOM     21  C   UNL     1     -11.904  52.527  47.182  0.00  0.00    +0.000 C 
ATOM     22  C   UNL     1     -12.608  51.214  46.908  0.00  0.00    +0.000 C 
ENDBRANCH  20  21
ENDBRANCH  18  20
ENDBRANCH   9  18
ENDBRANCH   4   7
BRANCH   1  23
ATOM     23  S   UNL     1      -6.916  53.575  48.344  0.00  0.00    +0.000 S 
ATOM     24  O   UNL     1      -5.891  52.591  48.605  0.00  0.00    +0.000 OA
ATOM     25  O   UNL     1      -6.645  54.981  48.616  0.00  0.00    +0.000 OA
BRANCH  23  26
ATOM     26  C   UNL     1      -7.453  53.441  46.642  0.00  0.00    +0.000 A 
ATOM     27  N   UNL     1      -7.797  52.185  46.241  0.00  0.00    +0.000 NA
ATOM     28  C   UNL     1      -7.523  54.571  45.842  0.00  0.00    +0.000 A 
ATOM     29  C   UNL     1      -8.258  52.083  44.969  0.00  0.00    +0.000 A 
ATOM     30  C   UNL     1      -7.985  54.415  44.536  0.00  0.00    +0.000 A 
ATOM     31  C   UNL     1      -8.370  53.153  44.081  0.00  0.00    +0.000 A 
ATOM     32  C   UNL     1      -8.874  52.964  42.685  0.00  0.00    +0.000 C 
ENDBRANCH  23  26
ENDBRANCH   1  23
TORSDOF 6
ENDMDL
MODEL 6
REMARK VINA RESULT:      -6.6      3.991      8.125
REMARK  Name = 
REMARK  10 active torsions:
REMARK  status: ('A' for Active; 'I' for Inactive)
REMARK    1  A    between atoms: S_1  and  N_4
REMARK    2  A    between atoms: S_1  and  C_5
REMARK    3  A    between atoms: N_10  and  C_13
REMARK    4  A    between atoms: C_14  and  C_17
REMARK    5  A    between atoms: C_16  and  C_20
REMARK    6  A    between atoms: C_20  and  O_24
REMARK    7  A    between atoms: O_24  and  C_27
REMARK    8  A    between atoms: C_25  and  C_28
REMARK    9  A    between atoms: C_25  and  C_29
REMARK   10  A    between atoms: C_27  and  C_30
REMARK                            x       y       z     vdW  Elec       q    Type
REMARK                         _______ _______ _______ _____ _____    ______ ____
ROOT
ATOM      1  N   UNL     1     -11.384  56.739  49.162  0.00  0.00    +0.000 N 
ATOM      2  C   UNL     1     -10.583  55.815  49.815  0.00  0.00    +0.000 C 
ATOM      3  O   UNL     1     -11.044  54.762  50.236  0.00  0.00    +0.000 OA
ATOM      4  N   UNL     1      -9.279  56.232  50.017  0.00  0.00    +0.000 N 
ATOM      5  H   UNL     1     -10.966  57.539  48.770  0.00  0.00    +0.000 HD
ATOM      6  H   UNL     1      -8.967  57.102  49.679  0.00  0.00    +0.000 HD
ENDROOT
BRANCH   4   7
ATOM      7  C   UNL     1      -8.428  55.389  50.711  0.00  0.00    +0.000 A 
ATOM      8  S   UNL     1      -8.558  55.430  52.407  0.00  0.00    +0.000 S 
ATOM      9  C   UNL     1      -7.504  54.464  50.258  0.00  0.00    +0.000 A 
ATOM     10  C   UNL     1      -7.579  54.038  52.565  0.00  0.00    +0.000 A 
ATOM     11  C   UNL     1      -7.082  53.611  51.345  0.00  0.00    +0.000 A 
ATOM     12  C   UNL     1      -7.300  53.373  53.894  0.00  0.00    +0.000 C 
ATOM     13  C   UNL     1      -6.155  52.435  51.235  0.00  0.00    +0.000 C 
ATOM     14  C   UNL     1      -6.044  52.448  53.804  0.00  0.00    +0.000 C 
ATOM     15  C   UNL     1      -6.122  51.597  52.512  0.00  0.00    +0.000 C 
ATOM     16  C   UNL     1      -5.988  51.475  54.996  0.00  0.00    +0.000 C 
ATOM     17  C   UNL     1      -4.757  53.298  53.827  0.00  0.00    +0.000 C 
BRANCH   9  18
ATOM     18  C   UNL     1      -7.067  54.400  48.862  0.00  0.00    +0.000 C 
ATOM     19  O   UNL     1      -5.917  54.623  48.505  0.00  0.00    +0.000 OA
BRANCH  18  20
ATOM     20  O   UNL     1      -8.084  54.064  48.024  0.00  0.00    +0.000 OA
BRANCH  20  21
ATOM     21  C   UNL     1      -8.233  54.842  46.834  0.00  0.00    +0.000 C 
ATOM     22  C   UNL     1      -9.687  54.853  46.412  0.00  0.00    +0.000 C 
ENDBRANCH  20  21
ENDBRANCH  18  20
ENDBRANCH   9  18
ENDBRANCH   4   7
BRANCH   1  23
ATOM     23  S   UNL     1     -13.040  56.539  49.016  0.00  0.00    +0.000 S 
ATOM     24  O   UNL     1     -13.338  55.128  49.080  0.00  0.00    +0.000 OA
ATOM     25  O   UNL     1     -13.410  57.296  47.826  0.00  0.00    +0.000 OA
BRANCH  23  26
ATOM     26  C   UNL     1     -13.754  57.367  50.433  0.00  0.00    +0.000 A 
ATOM     27  N   UNL     1     -14.310  58.583  50.173  0.00  0.00    +0.000 NA
ATOM     28  C   UNL     1     -13.740  56.756  51.678  0.00  0.00    +0.000 A 
ATOM     29  C   UNL     1     -14.902  59.193  51.230  0.00  0.00    +0.000 A 
ATOM     30  C   UNL     1     -14.344  57.429  52.738  0.00  0.00    +0.000 A 
ATOM     31  C   UNL     1     -14.947  58.669  52.522  0.00  0.00    +0.000 A 
ATOM     32  C   UNL     1     -15.606  59.406  53.645  0.00  0.00    +0.000 C 
ENDBRANCH  23  26
ENDBRANCH   1  23
TORSDOF 6
ENDMDL
MODEL 7
REMARK VINA RESULT:      -6.5      3.689      8.064
REMARK  Name = 
REMARK  10 active torsions:
REMARK  status: ('A' for Active; 'I' for Inactive)
REMARK    1  A    between atoms: S_1  and  N_4
REMARK    2  A    between atoms: S_1  and  C_5
REMARK    3  A    between atoms: N_10  and  C_13
REMARK    4  A    between atoms: C_14  and  C_17
REMARK    5  A    between atoms: C_16  and  C_20
REMARK    6  A    between atoms: C_20  and  O_24
REMARK    7  A    between atoms: O_24  and  C_27
REMARK    8  A    between atoms: C_25  and  C_28
REMARK    9  A    between atoms: C_25  and  C_29
REMARK   10  A    between atoms: C_27  and  C_30
REMARK                            x       y       z     vdW  Elec       q    Type
REMARK                         _______ _______ _______ _____ _____    ______ ____
ROOT
ATOM      1  N   UNL     1     -13.017  55.292  49.403  0.00  0.00    +0.000 N 
ATOM      2  C   UNL     1     -11.939  55.074  50.247  0.00  0.00    +0.000 C 
ATOM      3  O   UNL     1     -11.412  55.997  50.853  0.00  0.00    +0.000 OA
ATOM      4  N   UNL     1     -11.480  53.768  50.261  0.00  0.00    +0.000 N 
ATOM      5  H   UNL     1     -13.465  54.518  48.991  0.00  0.00    +0.000 HD
ATOM      6  H   UNL     1     -11.927  53.068  49.733  0.00  0.00    +0.000 HD
ENDROOT
BRANCH   4   7
ATOM      7  C   UNL     1     -10.371  53.478  51.037  0.00  0.00    +0.000 A 
ATOM      8  S   UNL     1     -10.665  53.241  52.696  0.00  0.00    +0.000 S 
ATOM      9  C   UNL     1      -9.044  53.297  50.688  0.00  0.00    +0.000 A 
ATOM     10  C   UNL     1      -9.083  52.638  52.940  0.00  0.00    +0.000 A 
ATOM     11  C   UNL     1      -8.316  52.711  51.789  0.00  0.00    +0.000 A 
ATOM     12  C   UNL     1      -8.603  52.097  54.267  0.00  0.00    +0.000 C 
ATOM     13  C   UNL     1      -6.876  52.287  51.769  0.00  0.00    +0.000 C 
ATOM     14  C   UNL     1      -7.042  52.061  54.325  0.00  0.00    +0.000 C 
ATOM     15  C   UNL     1      -6.491  51.473  53.003  0.00  0.00    +0.000 C 
ATOM     16  C   UNL     1      -6.552  51.158  55.473  0.00  0.00    +0.000 C 
ATOM     17  C   UNL     1      -6.487  53.479  54.570  0.00  0.00    +0.000 C 
BRANCH   9  18
ATOM     18  C   UNL     1      -8.518  53.654  49.369  0.00  0.00    +0.000 C 
ATOM     19  O   UNL     1      -7.974  52.851  48.620  0.00  0.00    +0.000 OA
BRANCH  18  20
ATOM     20  O   UNL     1      -8.710  54.970  49.082  0.00  0.00    +0.000 OA
BRANCH  20  21
ATOM     21  C   UNL     1      -8.658  55.351  47.705  0.00  0.00    +0.000 C 
ATOM     22  C   UNL     1     -10.052  55.310  47.114  0.00  0.00    +0.000 C 
ENDBRANCH  20  21
ENDBRANCH  18  20
ENDBRANCH   9  18
ENDBRANCH   4   7
BRANCH   1  23
ATOM     23  S   UNL     1     -13.585  56.829  49.060  0.00  0.00    +0.000 S 
ATOM     24  O   UNL     1     -14.638  56.720  48.079  0.00  0.00    +0.000 OA
ATOM     25  O   UNL     1     -12.396  57.613  48.750  0.00  0.00    +0.000 OA
BRANCH  23  26
ATOM     26  C   UNL     1     -14.262  57.448  50.598  0.00  0.00    +0.000 A 
ATOM     27  N   UNL     1     -14.876  56.514  51.376  0.00  0.00    +0.000 NA
ATOM     28  C   UNL     1     -14.117  58.785  50.935  0.00  0.00    +0.000 A 
ATOM     29  C   UNL     1     -15.344  56.963  52.568  0.00  0.00    +0.000 A 
ATOM     30  C   UNL     1     -14.630  59.204  52.161  0.00  0.00    +0.000 A 
ATOM     31  C   UNL     1     -15.251  58.284  53.007  0.00  0.00    +0.000 A 
ATOM     32  C   UNL     1     -15.803  58.711  54.330  0.00  0.00    +0.000 C 
ENDBRANCH  23  26
ENDBRANCH   1  23
TORSDOF 6
ENDMDL
MODEL 8
REMARK VINA RESULT:      -6.2      3.725      8.848
REMARK  Name = 
REMARK  10 active torsions:
REMARK  status: ('A' for Active; 'I' for Inactive)
REMARK    1  A    between atoms: S_1  and  N_4
REMARK    2  A    between atoms: S_1  and  C_5
REMARK    3  A    between atoms: N_10  and  C_13
REMARK    4  A    between atoms: C_14  and  C_17
REMARK    5  A    between atoms: C_16  and  C_20
REMARK    6  A    between atoms: C_20  and  O_24
REMARK    7  A    between atoms: O_24  and  C_27
REMARK    8  A    between atoms: C_25  and  C_28
REMARK    9  A    between atoms: C_25  and  C_29
REMARK   10  A    between atoms: C_27  and  C_30
REMARK                            x       y       z     vdW  Elec       q    Type
REMARK                         _______ _______ _______ _____ _____    ______ ____
ROOT
ATOM      1  N   UNL     1     -11.916  57.124  49.209  0.00  0.00    +0.000 N 
ATOM      2  C   UNL     1     -10.986  56.099  49.120  0.00  0.00    +0.000 C 
ATOM      3  O   UNL     1     -11.336  54.940  48.947  0.00  0.00    +0.000 OA
ATOM      4  N   UNL     1      -9.677  56.497  49.331  0.00  0.00    +0.000 N 
ATOM      5  H   UNL     1     -11.597  58.053  49.271  0.00  0.00    +0.000 HD
ATOM      6  H   UNL     1      -9.454  57.442  49.492  0.00  0.00    +0.000 HD
ENDROOT
BRANCH   4   7
ATOM      7  C   UNL     1      -8.693  55.523  49.313  0.00  0.00    +0.000 A 
ATOM      8  S   UNL     1      -8.307  54.882  47.786  0.00  0.00    +0.000 S 
ATOM      9  C   UNL     1      -7.917  55.002  50.334  0.00  0.00    +0.000 A 
ATOM     10  C   UNL     1      -6.927  54.091  48.411  0.00  0.00    +0.000 A 
ATOM     11  C   UNL     1      -6.822  54.238  49.785  0.00  0.00    +0.000 A 
ATOM     12  C   UNL     1      -5.952  53.326  47.546  0.00  0.00    +0.000 C 
ATOM     13  C   UNL     1      -5.718  53.589  50.568  0.00  0.00    +0.000 C 
ATOM     14  C   UNL     1      -5.088  52.348  48.406  0.00  0.00    +0.000 C 
ATOM     15  C   UNL     1      -4.588  53.083  49.674  0.00  0.00    +0.000 C 
ATOM     16  C   UNL     1      -3.847  51.875  47.626  0.00  0.00    +0.000 C 
ATOM     17  C   UNL     1      -5.914  51.101  48.782  0.00  0.00    +0.000 C 
BRANCH   9  18
ATOM     18  C   UNL     1      -8.209  55.240  51.750  0.00  0.00    +0.000 C 
ATOM     19  O   UNL     1      -7.433  55.805  52.511  0.00  0.00    +0.000 OA
BRANCH  18  20
ATOM     20  O   UNL     1      -9.433  54.766  52.105  0.00  0.00    +0.000 OA
BRANCH  20  21
ATOM     21  C   UNL     1      -9.580  53.347  52.197  0.00  0.00    +0.000 C 
ATOM     22  C   UNL     1      -9.858  52.957  53.634  0.00  0.00    +0.000 C 
ENDBRANCH  20  21
ENDBRANCH  18  20
ENDBRANCH   9  18
ENDBRANCH   4   7
BRANCH   1  23
ATOM     23  S   UNL     1     -13.565  56.835  49.213  0.00  0.00    +0.000 S 
ATOM     24  O   UNL     1     -13.779  55.411  49.311  0.00  0.00    +0.000 OA
ATOM     25  O   UNL     1     -14.080  57.559  48.057  0.00  0.00    +0.000 OA
BRANCH  23  26
ATOM     26  C   UNL     1     -14.193  57.638  50.684  0.00  0.00    +0.000 A 
ATOM     27  N   UNL     1     -14.578  58.934  50.516  0.00  0.00    +0.000 NA
ATOM     28  C   UNL     1     -14.287  56.936  51.876  0.00  0.00    +0.000 A 
ATOM     29  C   UNL     1     -15.106  59.534  51.612  0.00  0.00    +0.000 A 
ATOM     30  C   UNL     1     -14.819  57.599  52.980  0.00  0.00    +0.000 A 
ATOM     31  C   UNL     1     -15.248  58.921  52.857  0.00  0.00    +0.000 A 
ATOM     32  C   UNL     1     -15.827  59.650  54.028  0.00  0.00    +0.000 C 
ENDBRANCH  23  26
ENDBRANCH   1  23
TORSDOF 6
ENDMDL
MODEL 9
REMARK VINA RESULT:      -5.9      3.792      5.317
REMARK  Name = 
REMARK  10 active torsions:
REMARK  status: ('A' for Active; 'I' for Inactive)
REMARK    1  A    between atoms: S_1  and  N_4
REMARK    2  A    between atoms: S_1  and  C_5
REMARK    3  A    between atoms: N_10  and  C_13
REMARK    4  A    between atoms: C_14  and  C_17
REMARK    5  A    between atoms: C_16  and  C_20
REMARK    6  A    between atoms: C_20  and  O_24
REMARK    7  A    between atoms: O_24  and  C_27
REMARK    8  A    between atoms: C_25  and  C_28
REMARK    9  A    between atoms: C_25  and  C_29
REMARK   10  A    between atoms: C_27  and  C_30
REMARK                            x       y       z     vdW  Elec       q    Type
REMARK                         _______ _______ _______ _____ _____    ______ ____
ROOT
ATOM      1  N   UNL     1      -8.656  52.111  50.788  0.00  0.00    +0.000 N 
ATOM      2  C   UNL     1      -9.582  53.117  51.020  0.00  0.00    +0.000 C 
ATOM      3  O   UNL     1      -9.750  53.577  52.141  0.00  0.00    +0.000 OA
ATOM      4  N   UNL     1     -10.334  53.467  49.911  0.00  0.00    +0.000 N 
ATOM      5  H   UNL     1      -8.492  51.818  49.862  0.00  0.00    +0.000 HD
ATOM      6  H   UNL     1     -10.173  53.045  49.036  0.00  0.00    +0.000 HD
ENDROOT
BRANCH   4   7
ATOM      7  C   UNL     1     -11.319  54.426  50.072  0.00  0.00    +0.000 A 
ATOM      8  S   UNL     1     -11.963  54.576  51.640  0.00  0.00    +0.000 S 
ATOM      9  C   UNL     1     -11.850  55.336  49.175  0.00  0.00    +0.000 A 
ATOM     10  C   UNL     1     -12.771  56.024  51.222  0.00  0.00    +0.000 A 
ATOM     11  C   UNL     1     -12.627  56.330  49.879  0.00  0.00    +0.000 A 
ATOM     12  C   UNL     1     -13.547  56.852  52.220  0.00  0.00    +0.000 C 
ATOM     13  C   UNL     1     -13.290  57.529  49.265  0.00  0.00    +0.000 C 
ATOM     14  C   UNL     1     -14.536  57.821  51.495  0.00  0.00    +0.000 C 
ATOM     15  C   UNL     1     -13.808  58.510  50.315  0.00  0.00    +0.000 C 
ATOM     16  C   UNL     1     -15.023  58.928  52.448  0.00  0.00    +0.000 C 
ATOM     17  C   UNL     1     -15.773  57.044  51.001  0.00  0.00    +0.000 C 
BRANCH   9  18
ATOM     18  C   UNL     1     -11.609  55.258  47.733  0.00  0.00    +0.000 C 
ATOM     19  O   UNL     1     -12.055  56.070  46.931  0.00  0.00    +0.000 OA
BRANCH  18  20
ATOM     20  O   UNL     1     -10.837  54.189  47.402  0.00  0.00    +0.000 OA
BRANCH  20  21
ATOM     21  C   UNL     1      -9.802  54.405  46.440  0.00  0.00    +0.000 C 
ATOM     22  C   UNL     1      -8.718  55.271  47.047  0.00  0.00    +0.000 C 
ENDBRANCH  20  21
ENDBRANCH  18  20
ENDBRANCH   9  18
ENDBRANCH   4   7
BRANCH   1  23
ATOM     23  S   UNL     1      -7.804  51.378  52.029  0.00  0.00    +0.000 S 
ATOM     24  O   UNL     1      -7.051  50.277  51.480  0.00  0.00    +0.000 OA
ATOM     25  O   UNL     1      -8.794  51.122  53.068  0.00  0.00    +0.000 OA
BRANCH  23  26
ATOM     26  C   UNL     1      -6.678  52.626  52.644  0.00  0.00    +0.000 A 
ATOM     27  N   UNL     1      -6.763  52.873  53.982  0.00  0.00    +0.000 NA
ATOM     28  C   UNL     1      -5.785  53.245  51.784  0.00  0.00    +0.000 A 
ATOM     29  C   UNL     1      -5.875  53.777  54.467  0.00  0.00    +0.000 A 
ATOM     30  C   UNL     1      -4.905  54.181  52.324  0.00  0.00    +0.000 A 
ATOM     31  C   UNL     1      -4.935  54.456  53.691  0.00  0.00    +0.000 A 
ATOM     32  C   UNL     1      -3.996  55.452  54.293  0.00  0.00    +0.000 C 
ENDBRANCH  23  26
ENDBRANCH   1  23
TORSDOF 6
ENDMDL
