REMARK  Name = 
REMARK  3 active torsions:
REMARK  status: ('A' for Active; 'I' for Inactive)
REMARK    1  A    between atoms: C_1  and  N_2
REMARK    2  A    between atoms: C_7  and  C_8
REMARK    3  A    between atoms: C_17  and  C_18
REMARK                            x       y       z     vdW  Elec       q    Type
REMARK                         _______ _______ _______ _____ _____    ______ ____
ROOT
ATOM      1  C   UNL     1       1.013   0.022   0.300  0.00  0.00    +0.129 C 
ATOM      2  N   UNL     1       0.622  -0.823   1.423  0.00  0.00    -0.331 N 
ATOM      3  C   UNL     1       1.207  -0.463   2.728  0.00  0.00    +0.126 C 
ATOM      4  C   UNL     1       0.633  -1.180   3.941  0.00  0.00    +0.141 C 
ATOM      5  N   UNL     1       1.124  -2.546   3.953  0.00  0.00    -0.338 N 
ATOM      6  C   UNL     1       0.832  -3.438   2.946  0.00  0.00    +0.055 A 
ATOM      7  C   UNL     1       1.650  -4.554   3.145  0.00  0.00    -0.011 A 
ATOM      8  C   UNL     1       2.377  -4.330   4.371  0.00  0.00    +0.004 A 
ATOM      9  C   UNL     1       3.320  -5.076   5.111  0.00  0.00    +0.011 A 
ATOM     10  C   UNL     1       3.876  -4.547   6.285  0.00  0.00    +0.010 A 
ATOM     11  C   UNL     1       3.520  -3.277   6.753  0.00  0.00    -0.001 A 
ATOM     12  C   UNL     1       2.579  -2.530   6.024  0.00  0.00    +0.036 A 
ATOM     13  C   UNL     1       2.023  -3.068   4.848  0.00  0.00    +0.050 A 
ATOM     14  C   UNL     1      -0.180  -3.133   1.914  0.00  0.00    +0.020 A 
ATOM     15  C   UNL     1      -1.144  -4.133   1.658  0.00  0.00    +0.012 A 
ATOM     16  C   UNL     1      -2.127  -3.972   0.687  0.00  0.00    +0.001 A 
ATOM     17  C   UNL     1      -2.170  -2.796  -0.042  0.00  0.00    +0.002 A 
ATOM     18  C   UNL     1      -1.241  -1.784   0.219  0.00  0.00    +0.024 A 
ATOM     19  C   UNL     1      -0.232  -1.902   1.204  0.00  0.00    +0.039 A 
ENDROOT
BRANCH   7  20
ATOM     20  C   UNL     1       1.769  -5.756   2.233  0.00  0.00    +0.022 C 
ATOM     21  C   UNL     1       3.188  -5.927   1.662  0.00  0.00    +0.008 C 
ATOM     22  C   UNL     1       3.272  -7.126   0.719  0.00  0.00    +0.001 C 
ATOM     23  C   UNL     1       2.781  -8.405   1.390  0.00  0.00    +0.000 C 
ATOM     24  C   UNL     1       1.371  -8.243   1.949  0.00  0.00    +0.001 C 
ATOM     25  C   UNL     1       1.274  -7.051   2.899  0.00  0.00    +0.008 C 
ENDBRANCH   7  20
BRANCH  11  26
ATOM     26  C   UNL     1       4.140  -2.709   8.017  0.00  0.00    +0.072 C 
ATOM     27  O   UNL     1       3.787  -1.535   8.360  0.00  0.00    -0.545 OA
ATOM     28  O   UNL     1       4.970  -3.445   8.641  0.00  0.00    -0.545 OA
ENDBRANCH  11  26
TORSDOF 2
