
 OpenBabel09132204463D

 28 32  0  0  0  0  0  0  0  0999 V2000
    1.6570   -1.8660    5.4570 C   0  0  0  0  0  1  0  0  0  0  0  0
    2.7410   -2.8370    5.3580 N   0  0  0  0  0  0  0  0  0  0  0  0
    3.3970   -2.9300    4.0400 C   0  0  0  0  0  2  0  0  0  0  0  0
    4.6710   -3.7600    3.9830 C   0  0  0  0  0  2  0  0  0  0  0  0
    4.3170   -5.1660    4.0500 N   0  0  0  0  0  0  0  0  0  0  0  0
    3.6870   -5.7110    5.1450 C   0  0  0  0  0  0  0  0  0  0  0  0
    3.2810   -6.9980    4.7790 C   0  0  0  0  0  0  0  0  0  0  0  0
    3.7810   -7.2340    3.4460 C   0  0  0  0  0  0  0  0  0  0  0  0
    3.7310   -8.3240    2.5510 C   0  0  0  0  0  3  0  0  0  0  0  0
    4.3100   -8.2210    1.2780 C   0  0  0  0  0  3  0  0  0  0  0  0
    4.9470   -7.0470    0.8590 C   0  0  0  0  0  0  0  0  0  0  0  0
    5.0050   -5.9590    1.7460 C   0  0  0  0  0  3  0  0  0  0  0  0
    4.4230   -6.0700    3.0230 C   0  0  0  0  0  0  0  0  0  0  0  0
    3.5370   -4.9550    6.4060 C   0  0  0  0  0  0  0  0  0  0  0  0
    3.9080   -5.6250    7.5930 C   0  0  0  0  0  3  0  0  0  0  0  0
    3.7830   -5.0260    8.8420 C   0  0  0  0  0  3  0  0  0  0  0  0
    3.2910   -3.7340    8.9250 C   0  0  0  0  0  3  0  0  0  0  0  0
    2.9460   -3.0470    7.7570 C   0  0  0  0  0  3  0  0  0  0  0  0
    3.0680   -3.6140    6.4670 C   0  0  0  0  0  0  0  0  0  0  0  0
    2.4530   -7.9510    5.6130 C   0  0  0  0  0  3  0  0  0  0  0  0
    1.1100   -8.3040    4.9490 C   0  0  0  0  0  2  0  0  0  0  0  0
    0.2800   -9.2400    5.8270 C   0  0  0  0  0  2  0  0  0  0  0  0
    1.0610  -10.4930    6.2100 C   0  0  0  0  0  2  0  0  0  0  0  0
    2.3890  -10.1480    6.8770 C   0  0  0  0  0  2  0  0  0  0  0  0
    3.2320   -9.2180    6.0070 C   0  0  0  0  0  2  0  0  0  0  0  0
    5.5570   -6.9420   -0.5270 C   0  0  0  0  0  0  0  0  0  0  0  0
    5.4700   -7.9650   -1.2790 O   0  0  0  0  0  0  0  0  0  0  0  0
    6.1140   -5.8400   -0.8370 O   0  0  0  0  0  1  0  0  0  0  0  0
  2  1  1  0  0  0  0
  2 19  1  0  0  0  0
  3  2  1  0  0  0  0
  4  3  1  0  0  0  0
  4  5  1  0  0  0  0
  5  6  1  0  0  0  0
  6 14  1  0  0  0  0
  7  6  2  0  0  0  0
  7 20  1  0  0  0  0
  8  7  1  0  0  0  0
  9  8  2  0  0  0  0
 10  9  1  0  0  0  0
 11 10  2  0  0  0  0
 11 12  1  0  0  0  0
 12 13  2  0  0  0  0
 13  8  1  0  0  0  0
 13  5  1  0  0  0  0
 14 19  2  0  0  0  0
 14 15  1  0  0  0  0
 15 16  2  0  0  0  0
 16 17  1  0  0  0  0
 18 17  2  0  0  0  0
 19 18  1  0  0  0  0
 20 25  1  0  0  0  0
 21 20  1  0  0  0  0
 21 22  1  0  0  0  0
 22 23  1  0  0  0  0
 23 24  1  0  0  0  0
 25 24  1  0  0  0  0
 26 11  1  0  0  0  0
 27 26  2  0  0  0  0
 28 26  1  0  0  0  0
M  END
>  <minimizedAffinity>
-7.63829041

$$$$
