
 OpenBabel09132204463D

 28 32  0  0  0  0  0  0  0  0999 V2000
    2.1910   -2.4010    8.7060 C   0  0  0  0  0  1  0  0  0  0  0  0
    2.3510   -3.8510    8.6940 N   0  0  0  0  0  0  0  0  0  0  0  0
    3.3650   -4.3750    7.7610 C   0  0  0  0  0  2  0  0  0  0  0  0
    3.7080   -5.8510    7.9030 C   0  0  0  0  0  2  0  0  0  0  0  0
    2.6160   -6.6390    7.3610 N   0  0  0  0  0  0  0  0  0  0  0  0
    1.3490   -6.6010    7.8980 C   0  0  0  0  0  0  0  0  0  0  0  0
    0.5100   -7.2700    7.0010 C   0  0  0  0  0  0  0  0  0  0  0  0
    1.3490   -7.7920    5.9500 C   0  0  0  0  0  0  0  0  0  0  0  0
    1.1150   -8.5620    4.7900 C   0  0  0  0  0  3  0  0  0  0  0  0
    2.1760   -8.8900    3.9330 C   0  0  0  0  0  3  0  0  0  0  0  0
    3.4840   -8.4670    4.1960 C   0  0  0  0  0  0  0  0  0  0  0  0
    3.7250   -7.7040    5.3500 C   0  0  0  0  0  3  0  0  0  0  0  0
    2.6560   -7.3810    6.2080 C   0  0  0  0  0  0  0  0  0  0  0  0
    1.0770   -5.9370    9.1890 C   0  0  0  0  0  0  0  0  0  0  0  0
    0.3250   -6.6720   10.1320 C   0  0  0  0  0  3  0  0  0  0  0  0
   -0.0200   -6.1390   11.3700 C   0  0  0  0  0  3  0  0  0  0  0  0
    0.3930   -4.8580   11.6920 C   0  0  0  0  0  3  0  0  0  0  0  0
    1.1630   -4.1280   10.7820 C   0  0  0  0  0  3  0  0  0  0  0  0
    1.5450   -4.6350    9.5170 C   0  0  0  0  0  0  0  0  0  0  0  0
   -0.9940   -7.3980    7.1020 C   0  0  0  0  0  3  0  0  0  0  0  0
   -1.7140   -6.9340    5.8230 C   0  0  0  0  0  2  0  0  0  0  0  0
   -3.2320   -7.0410    5.9630 C   0  0  0  0  0  2  0  0  0  0  0  0
   -3.6610   -8.4480    6.3680 C   0  0  0  0  0  2  0  0  0  0  0  0
   -2.9570   -8.9080    7.6400 C   0  0  0  0  0  2  0  0  0  0  0  0
   -1.4380   -8.8120    7.5110 C   0  0  0  0  0  2  0  0  0  0  0  0
    4.6210   -8.8160    3.2520 C   0  0  0  0  0  0  0  0  0  0  0  0
    4.3500   -9.5850    2.2750 O   0  0  0  0  0  0  0  0  0  0  0  0
    5.7640   -8.3160    3.5070 O   0  0  0  0  0  1  0  0  0  0  0  0
  2  1  1  0  0  0  0
  2 19  1  0  0  0  0
  3  4  1  0  0  0  0
  3  2  1  0  0  0  0
  5  6  1  0  0  0  0
  5  4  1  0  0  0  0
  6 14  1  0  0  0  0
  7 20  1  0  0  0  0
  7  6  2  0  0  0  0
  8 13  1  0  0  0  0
  8  7  1  0  0  0  0
  9  8  2  0  0  0  0
 10 11  2  0  0  0  0
 10  9  1  0  0  0  0
 11 12  1  0  0  0  0
 12 13  2  0  0  0  0
 13  5  1  0  0  0  0
 14 19  2  0  0  0  0
 14 15  1  0  0  0  0
 15 16  2  0  0  0  0
 16 17  1  0  0  0  0
 18 17  2  0  0  0  0
 19 18  1  0  0  0  0
 20 25  1  0  0  0  0
 21 22  1  0  0  0  0
 21 20  1  0  0  0  0
 22 23  1  0  0  0  0
 23 24  1  0  0  0  0
 25 24  1  0  0  0  0
 26 28  1  0  0  0  0
 26 11  1  0  0  0  0
 27 26  2  0  0  0  0
M  END
>  <minimizedAffinity>
-6.86107063

$$$$
