REMARK  Name = 
REMARK  6 active torsions:
REMARK  status: ('A' for Active; 'I' for Inactive)
REMARK    1  A    between atoms: C_1  and  N_2
REMARK    2  A    between atoms: C_6  and  C_8
REMARK    3  A    between atoms: C_8  and  N_9
REMARK    4  A    between atoms: C_10  and  C_11
REMARK    5  A    between atoms: C_18  and  C_19
REMARK    6  A    between atoms: C_28  and  C_29
REMARK                            x       y       z     vdW  Elec       q    Type
REMARK                         _______ _______ _______ _____ _____    ______ ____
ROOT
ATOM      1  N   UNL     1      -3.245   2.767  -0.455  0.00  0.00    -0.331 N 
ATOM      2  C   UNL     1      -3.684   4.086  -0.394  0.00  0.00    +0.054 A 
ATOM      3  C   UNL     1      -4.074   4.349   0.918  0.00  0.00    -0.011 A 
ATOM      4  C   UNL     1      -3.892   3.137   1.662  0.00  0.00    +0.004 A 
ATOM      5  C   UNL     1      -4.029   2.778   3.025  0.00  0.00    +0.011 A 
ATOM      6  C   UNL     1      -3.687   1.486   3.456  0.00  0.00    +0.010 A 
ATOM      7  C   UNL     1      -3.300   0.512   2.541  0.00  0.00    -0.001 A 
ATOM      8  C   UNL     1      -3.334   0.825   1.176  0.00  0.00    +0.036 A 
ATOM      9  C   UNL     1      -3.495   2.152   0.758  0.00  0.00    +0.051 A 
ENDROOT
BRANCH   2  10
ATOM     10  C   UNL     1      -3.622   5.006  -1.530  0.00  0.00    -0.001 A 
ATOM     11  C   UNL     1      -2.609   5.970  -1.603  0.00  0.00    +0.011 A 
ATOM     12  C   UNL     1      -2.552   6.846  -2.689  0.00  0.00    +0.020 A 
ATOM     13  C   UNL     1      -3.509   6.760  -3.699  0.00  0.00    +0.041 A 
ATOM     14 CL   UNL     1      -3.435   7.839  -5.037  0.00  0.00    -0.084 Cl
ATOM     15  C   UNL     1      -4.525   5.808  -3.632  0.00  0.00    +0.020 A 
ATOM     16  C   UNL     1      -4.582   4.931  -2.546  0.00  0.00    +0.011 A 
ENDBRANCH   2  10
BRANCH   3  17
ATOM     17  C   UNL     1      -4.559   5.685   1.445  0.00  0.00    +0.022 C 
ATOM     18  C   UNL     1      -5.972   5.610   2.045  0.00  0.00    +0.008 C 
ATOM     19  C   UNL     1      -6.440   6.975   2.547  0.00  0.00    +0.001 C 
ATOM     20  C   UNL     1      -5.445   7.585   3.530  0.00  0.00    +0.000 C 
ATOM     21  C   UNL     1      -4.045   7.673   2.931  0.00  0.00    +0.001 C 
ATOM     22  C   UNL     1      -3.560   6.314   2.431  0.00  0.00    +0.008 C 
ENDBRANCH   3  17
BRANCH   7  23
ATOM     23  C   UNL     1      -2.735  -0.820   2.968  0.00  0.00    +0.072 C 
ATOM     24  O   UNL     1      -2.019  -1.431   2.095  0.00  0.00    -0.545 OA
ATOM     25  O   UNL     1      -2.900  -1.203   4.161  0.00  0.00    -0.545 OA
ENDBRANCH   7  23
BRANCH   1  26
ATOM     26  C   UNL     1      -2.337   2.286  -1.514  0.00  0.00    +0.218 C 
BRANCH  26  32
ATOM     27  C   UNL     1       0.777  -2.654   1.599  0.00  0.00    +0.190 C 
ATOM     28  N   UNL     1       0.016  -1.735   0.715  0.00  0.00    +0.235 N 
ATOM     29  C   UNL     1      -0.421  -2.331  -0.581  0.00  0.00    +0.150 C 
ATOM     30  C   UNL     1      -1.468  -1.438  -1.249  0.00  0.00    +0.158 C 
ATOM     31  N   UNL     1      -1.256   0.021  -1.179  0.00  0.00    -0.290 N 
ATOM     32  C   UNL     1      -2.278   0.790  -1.766  0.00  0.00    +0.236 C 
ATOM     33  O   UNL     1      -3.121   0.256  -2.495  0.00  0.00    -0.274 OA
ATOM     34  C   UNL     1      -0.301   0.576  -0.199  0.00  0.00    +0.158 C 
ATOM     35  C   UNL     1       0.653  -0.406   0.502  0.00  0.00    +0.150 C 
ATOM     36  H   UNL     1      -0.881  -1.567   1.274  0.00  0.00    +0.203 HD
ENDBRANCH  26  32
ENDBRANCH   1  26
TORSDOF 5
