
 OpenBabel09132204463D

 36 40  0  0  0  0  0  0  0  0999 V2000
   -1.1280   -1.3170    4.0970 N   0  0  0  0  0  0  0  0  0  0  0  0
   -1.1820   -2.5550    4.7290 C   0  0  0  0  0  0  0  0  0  0  0  0
   -2.4710   -3.0620    4.5710 C   0  0  0  0  0  0  0  0  0  0  0  0
   -3.2240   -2.0810    3.8470 C   0  0  0  0  0  0  0  0  0  0  0  0
   -4.5360   -2.0270    3.3170 C   0  0  0  0  0  3  0  0  0  0  0  0
   -4.9530   -0.9160    2.5670 C   0  0  0  0  0  3  0  0  0  0  0  0
   -4.1220    0.1890    2.4130 C   0  0  0  0  0  0  0  0  0  0  0  0
   -2.8930    0.2010    3.0860 C   0  0  0  0  0  3  0  0  0  0  0  0
   -2.3990   -0.9690    3.6770 C   0  0  0  0  0  0  0  0  0  0  0  0
   -0.0180   -3.1940    5.3440 C   0  0  0  0  0  0  0  0  0  0  0  0
    0.5430   -4.3410    4.7710 C   0  0  0  0  0  3  0  0  0  0  0  0
    1.6540   -4.9480    5.3600 C   0  0  0  0  0  3  0  0  0  0  0  0
    2.2010   -4.4090    6.5230 C   0  0  0  0  0  0  0  0  0  0  0  0
    3.5720   -5.1570    7.2460 Cl  0  0  0  0  0  0  0  0  0  0  0  0
    1.6460   -3.2710    7.1060 C   0  0  0  0  0  3  0  0  0  0  0  0
    0.5340   -2.6630    6.5160 C   0  0  0  0  0  3  0  0  0  0  0  0
   -2.9520   -4.4180    5.0500 C   0  0  0  0  0  3  0  0  0  0  0  0
   -1.8030   -5.4190    5.2510 C   0  0  0  0  0  2  0  0  0  0  0  0
   -2.3220   -6.7800    5.7130 C   0  0  0  0  0  2  0  0  0  0  0  0
   -3.1860   -6.6590    6.9650 C   0  0  0  0  0  2  0  0  0  0  0  0
   -4.3340   -5.6750    6.7620 C   0  0  0  0  0  2  0  0  0  0  0  0
   -3.8310   -4.3070    6.3080 C   0  0  0  0  0  2  0  0  0  0  0  0
   -4.4400    1.3150    1.4600 C   0  0  0  0  0  0  0  0  0  0  0  0
   -5.6650    1.4030    1.0870 O   0  0  0  0  0  0  0  0  0  0  0  0
   -3.5360    2.1500    1.1730 O   0  0  0  0  0  1  0  0  0  0  0  0
    0.1420   -0.7160    3.6460 C   0  0  0  0  0  2  0  0  0  0  0  0
    4.8530   -1.7170    8.1840 C   0  0  0  0  0  1  0  0  0  0  0  0
    3.9550   -1.6430    7.0040 N   0  0  0  0  0  4  0  0  0  0  0  0
    4.5110   -2.2400    5.7550 C   0  0  0  0  0  2  0  0  0  0  0  0
    3.4030   -2.4230    4.7160 C   0  0  0  0  0  2  0  0  0  0  0  0
    2.4030   -1.3440    4.5980 N   0  0  0  0  0  0  0  0  0  0  0  0
    1.3810   -1.5930    3.6620 C   0  0  0  0  0  0  0  0  0  0  0  0
    1.4930   -2.5140    2.8460 O   0  0  0  0  0  0  0  0  0  0  0  0
    2.2710   -0.3460    5.6780 C   0  0  0  0  0  2  0  0  0  0  0  0
    3.3820   -0.2940    6.7400 C   0  0  0  0  0  2  0  0  0  0  0  0
    3.1420   -2.2780    7.2920 H   0  0  0  0  0  0  0  0  0  0  0  0
  1  2  1  0  0  0  0
  2 10  1  0  0  0  0
  3  2  2  0  0  0  0
  3 17  1  0  0  0  0
  4  3  1  0  0  0  0
  5  4  2  0  0  0  0
  6  5  1  0  0  0  0
  7  6  2  0  0  0  0
  7  8  1  0  0  0  0
  8  9  2  0  0  0  0
  9  4  1  0  0  0  0
  9  1  1  0  0  0  0
 10 16  1  0  0  0  0
 11 10  2  0  0  0  0
 11 12  1  0  0  0  0
 12 13  2  0  0  0  0
 13 15  1  0  0  0  0
 13 14  1  0  0  0  0
 16 15  2  0  0  0  0
 17 18  1  0  0  0  0
 17 22  1  0  0  0  0
 18 19  1  0  0  0  0
 19 20  1  0  0  0  0
 21 20  1  0  0  0  0
 22 21  1  0  0  0  0
 23  7  1  0  0  0  0
 24 23  2  0  0  0  0
 25 23  1  0  0  0  0
 26 32  1  0  0  0  0
 26  1  1  0  0  0  0
 28 36  1  0  0  0  0
 28 27  1  0  0  0  0
 29 28  1  0  0  0  0
 30 29  1  0  0  0  0
 31 30  1  0  0  0  0
 31 34  1  0  0  0  0
 32 31  1  0  0  0  0
 33 32  2  0  0  0  0
 34 35  1  0  0  0  0
 35 28  1  0  0  0  0
M  END
>  <minimizedAffinity>
56.8762589

$$$$
