
 OpenBabel09132204463D

 36 40  0  0  0  0  0  0  0  0999 V2000
   -0.3210   -3.1400    3.8230 N   0  0  0  0  0  0  0  0  0  0  0  0
   -1.6790   -3.1680    4.1250 C   0  0  0  0  0  0  0  0  0  0  0  0
   -1.9000   -4.2190    5.0130 C   0  0  0  0  0  0  0  0  0  0  0  0
   -0.6370   -4.8630    5.2260 C   0  0  0  0  0  0  0  0  0  0  0  0
   -0.1870   -5.9180    6.0570 C   0  0  0  0  0  3  0  0  0  0  0  0
    1.1730   -6.2670    6.0870 C   0  0  0  0  0  3  0  0  0  0  0  0
    2.0830   -5.6480    5.2360 C   0  0  0  0  0  0  0  0  0  0  0  0
    1.6010   -4.7280    4.2960 C   0  0  0  0  0  3  0  0  0  0  0  0
    0.2890   -4.2470    4.3850 C   0  0  0  0  0  0  0  0  0  0  0  0
   -2.6310   -2.1710    3.6360 C   0  0  0  0  0  0  0  0  0  0  0  0
   -2.1730   -1.0130    2.9940 C   0  0  0  0  0  3  0  0  0  0  0  0
   -3.0840   -0.0640    2.5270 C   0  0  0  0  0  3  0  0  0  0  0  0
   -4.4510   -0.2700    2.7050 C   0  0  0  0  0  0  0  0  0  0  0  0
   -5.5720    0.9000    2.1260 Cl  0  0  0  0  0  0  0  0  0  0  0  0
   -4.9160   -1.4160    3.3480 C   0  0  0  0  0  3  0  0  0  0  0  0
   -4.0050   -2.3670    3.8150 C   0  0  0  0  0  3  0  0  0  0  0  0
   -3.2290   -4.5720    5.6520 C   0  0  0  0  0  3  0  0  0  0  0  0
   -3.2970   -6.0380    6.1110 C   0  0  0  0  0  2  0  0  0  0  0  0
   -4.6550   -6.3670    6.7290 C   0  0  0  0  0  2  0  0  0  0  0  0
   -5.0050   -5.4080    7.8630 C   0  0  0  0  0  2  0  0  0  0  0  0
   -4.9510   -3.9540    7.4050 C   0  0  0  0  0  2  0  0  0  0  0  0
   -3.5970   -3.6070    6.7910 C   0  0  0  0  0  2  0  0  0  0  0  0
    3.5740   -5.8410    5.3670 C   0  0  0  0  0  0  0  0  0  0  0  0
    4.2470   -5.7660    4.2770 O   0  0  0  0  0  0  0  0  0  0  0  0
    4.0790   -5.9540    6.5200 O   0  0  0  0  0  1  0  0  0  0  0  0
    0.3510   -1.9250    3.3230 C   0  0  0  0  0  2  0  0  0  0  0  0
    4.8420   -1.8250    8.1820 C   0  0  0  0  0  1  0  0  0  0  0  0
    3.7540   -1.6090    7.1950 N   0  0  0  0  0  4  0  0  0  0  0  0
    2.8870   -0.4260    7.4680 C   0  0  0  0  0  2  0  0  0  0  0  0
    2.0380   -0.0960    6.2390 C   0  0  0  0  0  2  0  0  0  0  0  0
    1.4680   -1.2310    5.4870 N   0  0  0  0  0  0  0  0  0  0  0  0
    0.7410   -0.8660    4.3380 C   0  0  0  0  0  0  0  0  0  0  0  0
    0.4070    0.3100    4.1580 O   0  0  0  0  0  0  0  0  0  0  0  0
    2.0050   -2.5910    5.6940 C   0  0  0  0  0  2  0  0  0  0  0  0
    2.9320   -2.8150    6.9010 C   0  0  0  0  0  2  0  0  0  0  0  0
    4.2950   -1.3730    6.3030 H   0  0  0  0  0  0  0  0  0  0  0  0
  1  2  1  0  0  0  0
  1  9  1  0  0  0  0
  2  3  2  0  0  0  0
  3  4  1  0  0  0  0
  3 17  1  0  0  0  0
  4  5  1  0  0  0  0
  5  6  2  0  0  0  0
  7 23  1  0  0  0  0
  7  6  1  0  0  0  0
  8  9  1  0  0  0  0
  8  7  2  0  0  0  0
  9  4  2  0  0  0  0
 10 16  1  0  0  0  0
 10  2  1  0  0  0  0
 11 10  2  0  0  0  0
 12 13  2  0  0  0  0
 12 11  1  0  0  0  0
 13 15  1  0  0  0  0
 14 13  1  0  0  0  0
 15 16  2  0  0  0  0
 17 18  1  0  0  0  0
 17 22  1  0  0  0  0
 18 19  1  0  0  0  0
 19 20  1  0  0  0  0
 21 20  1  0  0  0  0
 22 21  1  0  0  0  0
 23 25  1  0  0  0  0
 24 23  2  0  0  0  0
 26  1  1  0  0  0  0
 26 32  1  0  0  0  0
 28 29  1  0  0  0  0
 28 27  1  0  0  0  0
 30 29  1  0  0  0  0
 31 34  1  0  0  0  0
 31 30  1  0  0  0  0
 32 31  1  0  0  0  0
 33 32  2  0  0  0  0
 34 35  1  0  0  0  0
 35 28  1  0  0  0  0
 36 28  1  0  0  0  0
M  END
>  <minimizedAffinity>
59.3232079

$$$$
