
 OpenBabel09122222493D

 36 40  0  0  0  0  0  0  0  0999 V2000
   -1.1280   -1.3170    4.0970 N   0  0  0  0  0  0  0  0  0  0  0  0
   -1.1820   -2.5550    4.7290 C   0  0  0  0  0  0  0  0  0  0  0  0
   -2.4710   -3.0620    4.5710 C   0  0  0  0  0  0  0  0  0  0  0  0
   -3.2240   -2.0810    3.8470 C   0  0  0  0  0  0  0  0  0  0  0  0
   -4.5360   -2.0270    3.3170 C   0  0  0  0  0  3  0  0  0  0  0  0
   -4.9530   -0.9160    2.5670 C   0  0  0  0  0  3  0  0  0  0  0  0
   -4.1220    0.1890    2.4130 C   0  0  0  0  0  0  0  0  0  0  0  0
   -2.8930    0.2010    3.0860 C   0  0  0  0  0  3  0  0  0  0  0  0
   -2.3990   -0.9690    3.6770 C   0  0  0  0  0  0  0  0  0  0  0  0
   -0.0180   -3.1940    5.3440 C   0  0  0  0  0  0  0  0  0  0  0  0
    0.5430   -4.3410    4.7710 C   0  0  0  0  0  3  0  0  0  0  0  0
    1.6540   -4.9480    5.3600 C   0  0  0  0  0  3  0  0  0  0  0  0
    2.2010   -4.4090    6.5230 C   0  0  0  0  0  0  0  0  0  0  0  0
    3.5720   -5.1570    7.2460 Cl  0  0  0  0  0  0  0  0  0  0  0  0
    1.6460   -3.2710    7.1060 C   0  0  0  0  0  3  0  0  0  0  0  0
    0.5340   -2.6630    6.5160 C   0  0  0  0  0  3  0  0  0  0  0  0
   -2.9520   -4.4180    5.0500 C   0  0  0  0  0  3  0  0  0  0  0  0
   -1.8030   -5.4190    5.2510 C   0  0  0  0  0  2  0  0  0  0  0  0
   -2.3220   -6.7800    5.7130 C   0  0  0  0  0  2  0  0  0  0  0  0
   -3.1860   -6.6590    6.9650 C   0  0  0  0  0  2  0  0  0  0  0  0
   -4.3340   -5.6750    6.7620 C   0  0  0  0  0  2  0  0  0  0  0  0
   -3.8310   -4.3070    6.3080 C   0  0  0  0  0  2  0  0  0  0  0  0
   -4.4400    1.3150    1.4600 C   0  0  0  0  0  0  0  0  0  0  0  0
   -5.6650    1.4030    1.0870 O   0  0  0  0  0  0  0  0  0  0  0  0
   -3.5360    2.1500    1.1730 O   0  0  0  0  0  1  0  0  0  0  0  0
    0.1420   -0.7160    3.6460 C   0  0  0  0  0  2  0  0  0  0  0  0
    4.8530   -1.7170    8.1840 C   0  0  0  0  0  1  0  0  0  0  0  0
    3.9550   -1.6430    7.0040 N   0  0  0  0  0  4  0  0  0  0  0  0
    4.5110   -2.2400    5.7550 C   0  0  0  0  0  2  0  0  0  0  0  0
    3.4030   -2.4230    4.7160 C   0  0  0  0  0  2  0  0  0  0  0  0
    2.4030   -1.3440    4.5980 N   0  0  0  0  0  0  0  0  0  0  0  0
    1.3810   -1.5930    3.6620 C   0  0  0  0  0  0  0  0  0  0  0  0
    1.4930   -2.5140    2.8460 O   0  0  0  0  0  0  0  0  0  0  0  0
    2.2710   -0.3460    5.6780 C   0  0  0  0  0  2  0  0  0  0  0  0
    3.3820   -0.2940    6.7400 C   0  0  0  0  0  2  0  0  0  0  0  0
    3.1420   -2.2780    7.2920 H   0  0  0  0  0  0  0  0  0  0  0  0
  1  2  1  0  0  0  0
  2 10  1  0  0  0  0
  3  2  2  0  0  0  0
  3 17  1  0  0  0  0
  4  3  1  0  0  0  0
  5  4  2  0  0  0  0
  6  5  1  0  0  0  0
  7  6  2  0  0  0  0
  7  8  1  0  0  0  0
  8  9  2  0  0  0  0
  9  4  1  0  0  0  0
  9  1  1  0  0  0  0
 10 16  1  0  0  0  0
 11 10  2  0  0  0  0
 11 12  1  0  0  0  0
 12 13  2  0  0  0  0
 13 15  1  0  0  0  0
 13 14  1  0  0  0  0
 16 15  2  0  0  0  0
 17 18  1  0  0  0  0
 17 22  1  0  0  0  0
 18 19  1  0  0  0  0
 19 20  1  0  0  0  0
 21 20  1  0  0  0  0
 22 21  1  0  0  0  0
 23  7  1  0  0  0  0
 24 23  2  0  0  0  0
 25 23  1  0  0  0  0
 26 32  1  0  0  0  0
 26  1  1  0  0  0  0
 28 36  1  0  0  0  0
 28 27  1  0  0  0  0
 29 28  1  0  0  0  0
 30 29  1  0  0  0  0
 31 30  1  0  0  0  0
 31 34  1  0  0  0  0
 32 31  1  0  0  0  0
 33 32  2  0  0  0  0
 34 35  1  0  0  0  0
 35 28  1  0  0  0  0
M  END
>  <minimizedAffinity>
56.8762589

$$$$

 OpenBabel09122222493D

 36 40  0  0  0  0  0  0  0  0999 V2000
   -0.3450   -3.9730    5.5970 N   0  0  0  0  0  0  0  0  0  0  0  0
   -1.6360   -3.4900    5.4110 C   0  0  0  0  0  0  0  0  0  0  0  0
   -1.5590   -2.3530    4.6090 C   0  0  0  0  0  0  0  0  0  0  0  0
   -0.1700   -2.1290    4.3300 C   0  0  0  0  0  0  0  0  0  0  0  0
    0.5460   -1.2060    3.5300 C   0  0  0  0  0  3  0  0  0  0  0  0
    1.9410   -1.3070    3.4070 C   0  0  0  0  0  3  0  0  0  0  0  0
    2.6510   -2.2510    4.1410 C   0  0  0  0  0  0  0  0  0  0  0  0
    1.9550   -3.0450    5.0620 C   0  0  0  0  0  3  0  0  0  0  0  0
    0.5550   -3.0750    5.0540 C   0  0  0  0  0  0  0  0  0  0  0  0
   -2.8280   -4.1710    5.9180 C   0  0  0  0  0  0  0  0  0  0  0  0
   -3.0320   -5.5300    5.6520 C   0  0  0  0  0  3  0  0  0  0  0  0
   -4.1700   -6.1770    6.1380 C   0  0  0  0  0  3  0  0  0  0  0  0
   -5.1050   -5.4640    6.8860 C   0  0  0  0  0  0  0  0  0  0  0  0
   -6.5060   -6.2630    7.4860 Cl  0  0  0  0  0  0  0  0  0  0  0  0
   -4.9150   -4.1080    7.1510 C   0  0  0  0  0  3  0  0  0  0  0  0
   -3.7760   -3.4610    6.6650 C   0  0  0  0  0  3  0  0  0  0  0  0
   -2.7380   -1.5450    4.1050 C   0  0  0  0  0  3  0  0  0  0  0  0
   -2.3610   -0.5970    2.9550 C   0  0  0  0  0  2  0  0  0  0  0  0
   -3.5650    0.2180    2.4850 C   0  0  0  0  0  2  0  0  0  0  0  0
   -4.7410   -0.6790    2.1100 C   0  0  0  0  0  2  0  0  0  0  0  0
   -5.1250   -1.6100    3.2560 C   0  0  0  0  0  2  0  0  0  0  0  0
   -3.9330   -2.4380    3.7320 C   0  0  0  0  0  2  0  0  0  0  0  0
    4.1140   -2.5310    3.8980 C   0  0  0  0  0  0  0  0  0  0  0  0
    4.8550   -2.5910    4.9450 O   0  0  0  0  0  1  0  0  0  0  0  0
    4.5020   -2.7920    2.7240 O   0  0  0  0  0  0  0  0  0  0  0  0
   -0.0720   -5.3760    5.9670 C   0  0  0  0  0  2  0  0  0  0  0  0
    4.8470   -6.2410    1.6260 C   0  0  0  0  0  1  0  0  0  0  0  0
    3.9170   -6.1520    2.7810 N   0  0  0  0  0  4  0  0  0  0  0  0
    4.4170   -6.7820    4.0370 C   0  0  0  0  0  2  0  0  0  0  0  0
    3.5620   -6.3430    5.2270 C   0  0  0  0  0  2  0  0  0  0  0  0
    2.1040   -6.2510    5.0150 N   0  0  0  0  0  0  0  0  0  0  0  0
    1.3780   -5.7930    6.1300 C   0  0  0  0  0  0  0  0  0  0  0  0
    1.9120   -5.7390    7.2430 O   0  0  0  0  0  0  0  0  0  0  0  0
    1.5650   -6.2160    3.6410 C   0  0  0  0  0  2  0  0  0  0  0  0
    2.5200   -6.5770    2.4910 C   0  0  0  0  0  2  0  0  0  0  0  0
    3.8910   -5.1000    2.9750 H   0  0  0  0  0  0  0  0  0  0  0  0
  1 26  1  0  0  0  0
  2  1  1  0  0  0  0
  2 10  1  0  0  0  0
  3  2  2  0  0  0  0
  4  3  1  0  0  0  0
  4  9  1  0  0  0  0
  5  4  2  0  0  0  0
  6  5  1  0  0  0  0
  6  7  2  0  0  0  0
  7  8  1  0  0  0  0
  9  8  2  0  0  0  0
  9  1  1  0  0  0  0
 10 16  1  0  0  0  0
 11 10  2  0  0  0  0
 11 12  1  0  0  0  0
 12 13  2  0  0  0  0
 13 15  1  0  0  0  0
 13 14  1  0  0  0  0
 16 15  2  0  0  0  0
 17  3  1  0  0  0  0
 18 17  1  0  0  0  0
 19 18  1  0  0  0  0
 20 19  1  0  0  0  0
 20 21  1  0  0  0  0
 21 22  1  0  0  0  0
 22 17  1  0  0  0  0
 23  7  1  0  0  0  0
 23 24  1  0  0  0  0
 25 23  2  0  0  0  0
 26 32  1  0  0  0  0
 27 28  1  0  0  0  0
 28 36  1  0  0  0  0
 28 29  1  0  0  0  0
 29 30  1  0  0  0  0
 31 30  1  0  0  0  0
 31 32  1  0  0  0  0
 32 33  2  0  0  0  0
 34 31  1  0  0  0  0
 35 28  1  0  0  0  0
 35 34  1  0  0  0  0
M  END
>  <minimizedAffinity>
58.3209686

$$$$

 OpenBabel09122222493D

 36 40  0  0  0  0  0  0  0  0999 V2000
   -0.3210   -3.1400    3.8230 N   0  0  0  0  0  0  0  0  0  0  0  0
   -1.6790   -3.1680    4.1250 C   0  0  0  0  0  0  0  0  0  0  0  0
   -1.9000   -4.2190    5.0130 C   0  0  0  0  0  0  0  0  0  0  0  0
   -0.6370   -4.8630    5.2260 C   0  0  0  0  0  0  0  0  0  0  0  0
   -0.1870   -5.9180    6.0570 C   0  0  0  0  0  3  0  0  0  0  0  0
    1.1730   -6.2670    6.0870 C   0  0  0  0  0  3  0  0  0  0  0  0
    2.0830   -5.6480    5.2360 C   0  0  0  0  0  0  0  0  0  0  0  0
    1.6010   -4.7280    4.2960 C   0  0  0  0  0  3  0  0  0  0  0  0
    0.2890   -4.2470    4.3850 C   0  0  0  0  0  0  0  0  0  0  0  0
   -2.6310   -2.1710    3.6360 C   0  0  0  0  0  0  0  0  0  0  0  0
   -2.1730   -1.0130    2.9940 C   0  0  0  0  0  3  0  0  0  0  0  0
   -3.0840   -0.0640    2.5270 C   0  0  0  0  0  3  0  0  0  0  0  0
   -4.4510   -0.2700    2.7050 C   0  0  0  0  0  0  0  0  0  0  0  0
   -5.5720    0.9000    2.1260 Cl  0  0  0  0  0  0  0  0  0  0  0  0
   -4.9160   -1.4160    3.3480 C   0  0  0  0  0  3  0  0  0  0  0  0
   -4.0050   -2.3670    3.8150 C   0  0  0  0  0  3  0  0  0  0  0  0
   -3.2290   -4.5720    5.6520 C   0  0  0  0  0  3  0  0  0  0  0  0
   -3.2970   -6.0380    6.1110 C   0  0  0  0  0  2  0  0  0  0  0  0
   -4.6550   -6.3670    6.7290 C   0  0  0  0  0  2  0  0  0  0  0  0
   -5.0050   -5.4080    7.8630 C   0  0  0  0  0  2  0  0  0  0  0  0
   -4.9510   -3.9540    7.4050 C   0  0  0  0  0  2  0  0  0  0  0  0
   -3.5970   -3.6070    6.7910 C   0  0  0  0  0  2  0  0  0  0  0  0
    3.5740   -5.8410    5.3670 C   0  0  0  0  0  0  0  0  0  0  0  0
    4.2470   -5.7660    4.2770 O   0  0  0  0  0  0  0  0  0  0  0  0
    4.0790   -5.9540    6.5200 O   0  0  0  0  0  1  0  0  0  0  0  0
    0.3510   -1.9250    3.3230 C   0  0  0  0  0  2  0  0  0  0  0  0
    4.8420   -1.8250    8.1820 C   0  0  0  0  0  1  0  0  0  0  0  0
    3.7540   -1.6090    7.1950 N   0  0  0  0  0  4  0  0  0  0  0  0
    2.8870   -0.4260    7.4680 C   0  0  0  0  0  2  0  0  0  0  0  0
    2.0380   -0.0960    6.2390 C   0  0  0  0  0  2  0  0  0  0  0  0
    1.4680   -1.2310    5.4870 N   0  0  0  0  0  0  0  0  0  0  0  0
    0.7410   -0.8660    4.3380 C   0  0  0  0  0  0  0  0  0  0  0  0
    0.4070    0.3100    4.1580 O   0  0  0  0  0  0  0  0  0  0  0  0
    2.0050   -2.5910    5.6940 C   0  0  0  0  0  2  0  0  0  0  0  0
    2.9320   -2.8150    6.9010 C   0  0  0  0  0  2  0  0  0  0  0  0
    4.2950   -1.3730    6.3030 H   0  0  0  0  0  0  0  0  0  0  0  0
  1  2  1  0  0  0  0
  1  9  1  0  0  0  0
  2  3  2  0  0  0  0
  3  4  1  0  0  0  0
  3 17  1  0  0  0  0
  4  5  1  0  0  0  0
  5  6  2  0  0  0  0
  7 23  1  0  0  0  0
  7  6  1  0  0  0  0
  8  9  1  0  0  0  0
  8  7  2  0  0  0  0
  9  4  2  0  0  0  0
 10 16  1  0  0  0  0
 10  2  1  0  0  0  0
 11 10  2  0  0  0  0
 12 13  2  0  0  0  0
 12 11  1  0  0  0  0
 13 15  1  0  0  0  0
 14 13  1  0  0  0  0
 15 16  2  0  0  0  0
 17 18  1  0  0  0  0
 17 22  1  0  0  0  0
 18 19  1  0  0  0  0
 19 20  1  0  0  0  0
 21 20  1  0  0  0  0
 22 21  1  0  0  0  0
 23 25  1  0  0  0  0
 24 23  2  0  0  0  0
 26  1  1  0  0  0  0
 26 32  1  0  0  0  0
 28 29  1  0  0  0  0
 28 27  1  0  0  0  0
 30 29  1  0  0  0  0
 31 34  1  0  0  0  0
 31 30  1  0  0  0  0
 32 31  1  0  0  0  0
 33 32  2  0  0  0  0
 34 35  1  0  0  0  0
 35 28  1  0  0  0  0
 36 28  1  0  0  0  0
M  END
>  <minimizedAffinity>
59.3232079

$$$$
