
 OpenBabel09132204463D

 36 40  0  0  0  0  0  0  0  0999 V2000
   -0.3450   -3.9730    5.5970 N   0  0  0  0  0  0  0  0  0  0  0  0
   -1.6360   -3.4900    5.4110 C   0  0  0  0  0  0  0  0  0  0  0  0
   -1.5590   -2.3530    4.6090 C   0  0  0  0  0  0  0  0  0  0  0  0
   -0.1700   -2.1290    4.3300 C   0  0  0  0  0  0  0  0  0  0  0  0
    0.5460   -1.2060    3.5300 C   0  0  0  0  0  3  0  0  0  0  0  0
    1.9410   -1.3070    3.4070 C   0  0  0  0  0  3  0  0  0  0  0  0
    2.6510   -2.2510    4.1410 C   0  0  0  0  0  0  0  0  0  0  0  0
    1.9550   -3.0450    5.0620 C   0  0  0  0  0  3  0  0  0  0  0  0
    0.5550   -3.0750    5.0540 C   0  0  0  0  0  0  0  0  0  0  0  0
   -2.8280   -4.1710    5.9180 C   0  0  0  0  0  0  0  0  0  0  0  0
   -3.0320   -5.5300    5.6520 C   0  0  0  0  0  3  0  0  0  0  0  0
   -4.1700   -6.1770    6.1380 C   0  0  0  0  0  3  0  0  0  0  0  0
   -5.1050   -5.4640    6.8860 C   0  0  0  0  0  0  0  0  0  0  0  0
   -6.5060   -6.2630    7.4860 Cl  0  0  0  0  0  0  0  0  0  0  0  0
   -4.9150   -4.1080    7.1510 C   0  0  0  0  0  3  0  0  0  0  0  0
   -3.7760   -3.4610    6.6650 C   0  0  0  0  0  3  0  0  0  0  0  0
   -2.7380   -1.5450    4.1050 C   0  0  0  0  0  3  0  0  0  0  0  0
   -2.3610   -0.5970    2.9550 C   0  0  0  0  0  2  0  0  0  0  0  0
   -3.5650    0.2180    2.4850 C   0  0  0  0  0  2  0  0  0  0  0  0
   -4.7410   -0.6790    2.1100 C   0  0  0  0  0  2  0  0  0  0  0  0
   -5.1250   -1.6100    3.2560 C   0  0  0  0  0  2  0  0  0  0  0  0
   -3.9330   -2.4380    3.7320 C   0  0  0  0  0  2  0  0  0  0  0  0
    4.1140   -2.5310    3.8980 C   0  0  0  0  0  0  0  0  0  0  0  0
    4.8550   -2.5910    4.9450 O   0  0  0  0  0  1  0  0  0  0  0  0
    4.5020   -2.7920    2.7240 O   0  0  0  0  0  0  0  0  0  0  0  0
   -0.0720   -5.3760    5.9670 C   0  0  0  0  0  2  0  0  0  0  0  0
    4.8470   -6.2410    1.6260 C   0  0  0  0  0  1  0  0  0  0  0  0
    3.9170   -6.1520    2.7810 N   0  0  0  0  0  4  0  0  0  0  0  0
    4.4170   -6.7820    4.0370 C   0  0  0  0  0  2  0  0  0  0  0  0
    3.5620   -6.3430    5.2270 C   0  0  0  0  0  2  0  0  0  0  0  0
    2.1040   -6.2510    5.0150 N   0  0  0  0  0  0  0  0  0  0  0  0
    1.3780   -5.7930    6.1300 C   0  0  0  0  0  0  0  0  0  0  0  0
    1.9120   -5.7390    7.2430 O   0  0  0  0  0  0  0  0  0  0  0  0
    1.5650   -6.2160    3.6410 C   0  0  0  0  0  2  0  0  0  0  0  0
    2.5200   -6.5770    2.4910 C   0  0  0  0  0  2  0  0  0  0  0  0
    3.8910   -5.1000    2.9750 H   0  0  0  0  0  0  0  0  0  0  0  0
  1 26  1  0  0  0  0
  2  1  1  0  0  0  0
  2 10  1  0  0  0  0
  3  2  2  0  0  0  0
  4  3  1  0  0  0  0
  4  9  1  0  0  0  0
  5  4  2  0  0  0  0
  6  5  1  0  0  0  0
  6  7  2  0  0  0  0
  7  8  1  0  0  0  0
  9  8  2  0  0  0  0
  9  1  1  0  0  0  0
 10 16  1  0  0  0  0
 11 10  2  0  0  0  0
 11 12  1  0  0  0  0
 12 13  2  0  0  0  0
 13 15  1  0  0  0  0
 13 14  1  0  0  0  0
 16 15  2  0  0  0  0
 17  3  1  0  0  0  0
 18 17  1  0  0  0  0
 19 18  1  0  0  0  0
 20 19  1  0  0  0  0
 20 21  1  0  0  0  0
 21 22  1  0  0  0  0
 22 17  1  0  0  0  0
 23  7  1  0  0  0  0
 23 24  1  0  0  0  0
 25 23  2  0  0  0  0
 26 32  1  0  0  0  0
 27 28  1  0  0  0  0
 28 36  1  0  0  0  0
 28 29  1  0  0  0  0
 29 30  1  0  0  0  0
 31 30  1  0  0  0  0
 31 32  1  0  0  0  0
 32 33  2  0  0  0  0
 34 31  1  0  0  0  0
 35 28  1  0  0  0  0
 35 34  1  0  0  0  0
M  END
>  <minimizedAffinity>
58.3209686

$$$$
