REMARK  Name = 
REMARK  5 active torsions:
REMARK  status: ('A' for Active; 'I' for Inactive)
REMARK    1  A    between atoms: C_2  and  C_4
REMARK    2  A    between atoms: N_8  and  C_24
REMARK    3  A    between atoms: C_9  and  C_11
REMARK    4  A    between atoms: C_14  and  O_15
REMARK    5  A    between atoms: O_15  and  C_16
REMARK                            x       y       z     vdW  Elec       q    Type
REMARK                         _______ _______ _______ _____ _____    ______ ____
ROOT
ATOM      1  C   UNL     1       3.436  -0.388  -0.498  0.00  0.00    +0.056 A 
ATOM      2  C   UNL     1       2.696  -0.780  -1.590  0.00  0.00    +0.130 A 
ATOM      3  N   UNL     1       3.331  -1.661  -2.454  0.00  0.00    -0.232 NA
ATOM      4  C   UNL     1       4.512  -1.975  -1.971  0.00  0.00    +0.168 A 
ATOM      5  N   UNL     1       5.393  -2.865  -2.593  0.00  0.00    -0.243 N 
ATOM      6  C   UNL     1       6.399  -3.541  -1.871  0.00  0.00    +0.253 C 
ATOM      7  O   UNL     1       7.438  -3.959  -2.386  0.00  0.00    -0.270 OA
ATOM      8  S   UNL     1       4.996  -1.064  -0.597  0.00  0.00    -0.051 S 
ENDROOT
BRANCH   5   9
ATOM      9  C   UNL     1       5.321  -3.138  -4.045  0.00  0.00    +0.087 C 
ATOM     10  C   UNL     1       5.543  -1.893  -4.930  0.00  0.00    +0.045 C 
ATOM     11  C   UNL     1       4.303  -1.134  -5.374  0.00  0.00    +0.167 C 
ATOM     12  S   UNL     1       3.123  -2.211  -6.145  0.00  0.00    -0.031 S 
ATOM     13  O   UNL     1       1.887  -1.481  -6.349  0.00  0.00    -0.174 OA
ATOM     14  O   UNL     1       3.777  -2.863  -7.266  0.00  0.00    -0.174 OA
ATOM     15  C   UNL     1       2.857  -3.434  -4.889  0.00  0.00    +0.167 C 
ATOM     16  C   UNL     1       4.160  -4.077  -4.441  0.00  0.00    +0.045 C 
ENDBRANCH   5   9
BRANCH   6  17
ATOM     17  C   UNL     1       6.179  -3.919  -0.449  0.00  0.00    +0.038 A 
ATOM     18  C   UNL     1       7.221  -3.724   0.468  0.00  0.00    +0.016 A 
ATOM     19  C   UNL     1       7.006  -3.977   1.822  0.00  0.00    +0.047 A 
ATOM     20  C   UNL     1       5.755  -4.424   2.248  0.00  0.00    +0.128 A 
ATOM     21  C   UNL     1       4.744  -4.712   1.327  0.00  0.00    +0.047 A 
ATOM     22  C   UNL     1       4.956  -4.460  -0.028  0.00  0.00    +0.016 A 
BRANCH  20  23
ATOM     23  O   UNL     1       5.557  -4.594   3.598  0.00  0.00    -0.456 OA
BRANCH  23  24
ATOM     24  C   UNL     1       4.555  -3.839   4.176  0.00  0.00    +0.128 A 
ATOM     25  C   UNL     1       4.212  -2.547   3.764  0.00  0.00    +0.046 A 
ATOM     26  C   UNL     1       3.186  -1.857   4.412  0.00  0.00    +0.004 A 
ATOM     27  C   UNL     1       2.516  -2.446   5.483  0.00  0.00    +0.000 A 
ATOM     28  C   UNL     1       2.874  -3.724   5.913  0.00  0.00    +0.004 A 
ATOM     29  C   UNL     1       3.896  -4.419   5.263  0.00  0.00    +0.046 A 
ENDBRANCH  23  24
ENDBRANCH  20  23
ENDBRANCH   6  17
BRANCH   1  31
ATOM     30  O   UNL     1       1.748   0.917   0.440  0.00  0.00    -0.544 OA
ATOM     31  C   UNL     1       2.934   0.487   0.575  0.00  0.00    +0.080 C 
ATOM     32  O   UNL     1       3.716   0.722   1.546  0.00  0.00    -0.544 OA
ENDBRANCH   1  31
TORSDOF 5
