
 OpenBabel09122222393D

 32 35  0  0  0  0  0  0  0  0999 V2000
    2.6220   -6.9250    7.3540 C   0  0  0  0  0  0  0  0  0  0  0  0
    3.2000   -7.8890    6.5600 C   0  0  0  0  0  3  0  0  0  0  0  0
    3.6510   -7.4490    5.3230 N   0  0  0  0  0  0  0  0  0  0  0  0
    3.4710   -6.1510    5.2260 C   0  0  0  0  0  0  0  0  0  0  0  0
    3.8460   -5.3970    4.1100 N   0  0  0  0  0  0  0  0  0  0  0  0
    4.0860   -4.0100    4.1970 C   0  0  0  0  0  0  0  0  0  0  0  0
    3.9770   -3.2420    3.2390 O   0  0  0  0  0  0  0  0  0  0  0  0
    2.5580   -5.4510    6.5030 S   0  0  0  0  0  0  0  0  0  0  0  0
    4.0020   -6.0150    2.7750 C   0  0  0  0  0  3  0  0  0  0  0  0
    4.1930   -7.5460    2.8100 C   0  0  0  0  0  2  0  0  0  0  0  0
    5.6230   -8.0620    2.8210 C   0  0  0  0  0  2  0  0  0  0  0  0
    6.5720   -7.3730    1.4910 S   0  0  0  0  0  0  0  0  0  0  0  0
    7.9660   -7.7270    1.6780 O   0  0  0  0  0  0  0  0  0  0  0  0
    5.9000   -7.6980    0.2450 O   0  0  0  0  0  0  0  0  0  0  0  0
    6.3890   -5.6300    1.7650 C   0  0  0  0  0  2  0  0  0  0  0  0
    4.9270   -5.2180    1.8290 C   0  0  0  0  0  2  0  0  0  0  0  0
    4.6380   -3.4190    5.4460 C   0  0  0  0  0  0  0  0  0  0  0  0
    5.8390   -3.9290    5.9570 C   0  0  0  0  0  3  0  0  0  0  0  0
    6.4280   -3.3270    7.0690 C   0  0  0  0  0  3  0  0  0  0  0  0
    5.8110   -2.2240    7.6610 C   0  0  0  0  0  0  0  0  0  0  0  0
    4.5660   -1.7730    7.2140 C   0  0  0  0  0  3  0  0  0  0  0  0
    3.9750   -2.3730    6.1030 C   0  0  0  0  0  3  0  0  0  0  0  0
    6.4560   -1.6120    8.7090 O   0  0  0  0  0  0  0  0  0  0  0  0
    7.7700   -1.2430    8.4970 C   0  0  0  0  0  0  0  0  0  0  0  0
    8.8670   -1.8900    9.0750 C   0  0  0  0  0  3  0  0  0  0  0  0
   10.1620   -1.4430    8.8060 C   0  0  0  0  0  3  0  0  0  0  0  0
   10.3620   -0.3400    7.9780 C   0  0  0  0  0  3  0  0  0  0  0  0
    9.2680    0.3240    7.4220 C   0  0  0  0  0  3  0  0  0  0  0  0
    7.9720   -0.1250    7.6850 C   0  0  0  0  0  3  0  0  0  0  0  0
    2.6860   -8.1100    9.3600 O   0  0  0  0  0  1  0  0  0  0  0  0
    2.1370   -7.1590    8.7250 C   0  0  0  0  0  0  0  0  0  0  0  0
    1.2310   -6.3850    9.1600 O   0  0  0  0  0  0  0  0  0  0  0  0
  1 31  1  0  0  0  0
  2  1  2  0  0  0  0
  3  2  1  0  0  0  0
  4  3  2  0  0  0  0
  4  8  1  0  0  0  0
  5  6  1  0  0  0  0
  5  4  1  0  0  0  0
  6 17  1  0  0  0  0
  7  6  2  0  0  0  0
  8  1  1  0  0  0  0
  9 10  1  0  0  0  0
  9  5  1  0  0  0  0
 10 11  1  0  0  0  0
 12 13  2  0  0  0  0
 12 15  1  0  0  0  0
 12 11  1  0  0  0  0
 14 12  2  0  0  0  0
 15 16  1  0  0  0  0
 16  9  1  0  0  0  0
 17 18  2  0  0  0  0
 17 22  1  0  0  0  0
 18 19  1  0  0  0  0
 19 20  2  0  0  0  0
 20 23  1  0  0  0  0
 21 20  1  0  0  0  0
 22 21  2  0  0  0  0
 24 23  1  0  0  0  0
 24 25  1  0  0  0  0
 26 25  2  0  0  0  0
 27 26  1  0  0  0  0
 28 29  1  0  0  0  0
 28 27  2  0  0  0  0
 29 24  2  0  0  0  0
 31 32  2  0  0  0  0
 31 30  1  0  0  0  0
M  END
>  <minimizedAffinity>
-6.34864044

$$$$
