
 OpenBabel09122221313D

 32 35  0  0  0  0  0  0  0  0999 V2000
    6.0710   -2.0750    7.0570 C   0  0  0  0  0  0  0  0  0  0  0  0
    5.8010   -0.8170    7.5450 C   0  0  0  0  0  3  0  0  0  0  0  0
    6.9110   -0.0190    7.7800 N   0  0  0  0  0  0  0  0  0  0  0  0
    7.9970   -0.6570    7.4040 C   0  0  0  0  0  0  0  0  0  0  0  0
    9.2830   -0.1140    7.4860 N   0  0  0  0  0  0  0  0  0  0  0  0
   10.3400   -0.5800    6.6760 C   0  0  0  0  0  0  0  0  0  0  0  0
   11.5280   -0.4810    6.9880 O   0  0  0  0  0  0  0  0  0  0  0  0
    7.7560   -2.3020    6.9730 S   0  0  0  0  0  0  0  0  0  0  0  0
    9.6050    0.9750    8.4340 C   0  0  0  0  0  3  0  0  0  0  0  0
    8.5680    1.1520    9.5630 C   0  0  0  0  0  2  0  0  0  0  0  0
    7.4610    2.1670    9.3290 C   0  0  0  0  0  2  0  0  0  0  0  0
    8.1170    3.7500    8.8680 S   0  0  0  0  0  0  0  0  0  0  0  0
    7.0240    4.6060    8.4520 O   0  0  0  0  0  0  0  0  0  0  0  0
    9.0210    4.1830    9.9200 O   0  0  0  0  0  0  0  0  0  0  0  0
    9.0960    3.3490    7.4450 C   0  0  0  0  0  2  0  0  0  0  0  0
   10.1150    2.2620    7.7480 C   0  0  0  0  0  2  0  0  0  0  0  0
   10.0670   -1.0950    5.3070 C   0  0  0  0  0  0  0  0  0  0  0  0
   10.2320   -2.4640    5.0570 C   0  0  0  0  0  3  0  0  0  0  0  0
    9.8870   -2.9860    3.8110 C   0  0  0  0  0  3  0  0  0  0  0  0
    9.3840   -2.1360    2.8250 C   0  0  0  0  0  0  0  0  0  0  0  0
    9.3090   -0.7570    3.0370 C   0  0  0  0  0  3  0  0  0  0  0  0
    9.6530   -0.2320    4.2820 C   0  0  0  0  0  3  0  0  0  0  0  0
    8.9880   -2.6960    1.6340 O   0  0  0  0  0  0  0  0  0  0  0  0
    9.8410   -2.5330    0.5600 C   0  0  0  0  0  0  0  0  0  0  0  0
   10.6980   -3.5300    0.0840 C   0  0  0  0  0  3  0  0  0  0  0  0
   11.5300   -3.2730   -1.0080 C   0  0  0  0  0  3  0  0  0  0  0  0
   11.5220   -2.0170   -1.6110 C   0  0  0  0  0  3  0  0  0  0  0  0
   10.6870   -1.0120   -1.1210 C   0  0  0  0  0  3  0  0  0  0  0  0
    9.8500   -1.2680   -0.0340 C   0  0  0  0  0  3  0  0  0  0  0  0
    5.2960   -4.2710    6.9470 O   0  0  0  0  0  1  0  0  0  0  0  0
    5.0410   -3.0580    6.6770 C   0  0  0  0  0  0  0  0  0  0  0  0
    3.9860   -2.6120    6.1330 O   0  0  0  0  0  0  0  0  0  0  0  0
  1  2  2  0  0  0  0
  2  3  1  0  0  0  0
  4  5  1  0  0  0  0
  4  3  2  0  0  0  0
  5  9  1  0  0  0  0
  6  7  2  0  0  0  0
  6  5  1  0  0  0  0
  8  1  1  0  0  0  0
  8  4  1  0  0  0  0
  9 10  1  0  0  0  0
 11 10  1  0  0  0  0
 12 11  1  0  0  0  0
 12 14  2  0  0  0  0
 13 12  2  0  0  0  0
 15 16  1  0  0  0  0
 15 12  1  0  0  0  0
 16  9  1  0  0  0  0
 17  6  1  0  0  0  0
 18 17  1  0  0  0  0
 19 18  2  0  0  0  0
 20 21  2  0  0  0  0
 20 19  1  0  0  0  0
 21 22  1  0  0  0  0
 22 17  2  0  0  0  0
 23 20  1  0  0  0  0
 24 23  1  0  0  0  0
 25 24  1  0  0  0  0
 26 25  2  0  0  0  0
 27 28  2  0  0  0  0
 27 26  1  0  0  0  0
 28 29  1  0  0  0  0
 29 24  2  0  0  0  0
 31 30  1  0  0  0  0
 31  1  1  0  0  0  0
 32 31  2  0  0  0  0
M  END
>  <minimizedAffinity>
-7.15124655

$$$$

 OpenBabel09122221313D

 32 35  0  0  0  0  0  0  0  0999 V2000
    5.9960   -1.8870    7.1840 C   0  0  0  0  0  0  0  0  0  0  0  0
    5.7910   -0.5820    7.5700 C   0  0  0  0  0  3  0  0  0  0  0  0
    6.9410    0.1730    7.7500 N   0  0  0  0  0  0  0  0  0  0  0  0
    7.9930   -0.5470    7.4340 C   0  0  0  0  0  0  0  0  0  0  0  0
    9.3050   -0.0660    7.4830 N   0  0  0  0  0  0  0  0  0  0  0  0
   10.3390   -0.6500    6.7200 C   0  0  0  0  0  0  0  0  0  0  0  0
   11.5300   -0.5870    7.0320 O   0  0  0  0  0  0  0  0  0  0  0  0
    7.6680   -2.2070    7.1310 S   0  0  0  0  0  0  0  0  0  0  0  0
    9.6800    1.0760    8.3440 C   0  0  0  0  0  3  0  0  0  0  0  0
    8.7560    1.2720    9.5650 C   0  0  0  0  0  2  0  0  0  0  0  0
    7.5940    2.2380    9.4010 C   0  0  0  0  0  2  0  0  0  0  0  0
    8.1410    3.8180    8.8080 S   0  0  0  0  0  0  0  0  0  0  0  0
    6.9800    4.6170    8.4690 O   0  0  0  0  0  0  0  0  0  0  0  0
    9.1300    4.3290    9.7410 O   0  0  0  0  0  0  0  0  0  0  0  0
    8.9850    3.3830    7.3110 C   0  0  0  0  0  2  0  0  0  0  0  0
   10.0700    2.3450    7.5550 C   0  0  0  0  0  2  0  0  0  0  0  0
   10.0450   -1.2550    5.3930 C   0  0  0  0  0  0  0  0  0  0  0  0
   10.1650   -2.6440    5.2470 C   0  0  0  0  0  3  0  0  0  0  0  0
    9.7990   -3.2460    4.0430 C   0  0  0  0  0  3  0  0  0  0  0  0
    9.3190   -2.4570    2.9980 C   0  0  0  0  0  0  0  0  0  0  0  0
    9.2890   -1.0640    3.1060 C   0  0  0  0  0  3  0  0  0  0  0  0
    9.6540   -0.4590    4.3080 C   0  0  0  0  0  3  0  0  0  0  0  0
    8.9000   -3.0910    1.8520 O   0  0  0  0  0  0  0  0  0  0  0  0
    7.8040   -3.9230    1.9710 C   0  0  0  0  0  0  0  0  0  0  0  0
    6.7470   -3.7010    2.8590 C   0  0  0  0  0  3  0  0  0  0  0  0
    5.6800   -4.6010    2.9130 C   0  0  0  0  0  3  0  0  0  0  0  0
    5.6780   -5.7300    2.0970 C   0  0  0  0  0  3  0  0  0  0  0  0
    6.7440   -5.9680    1.2290 C   0  0  0  0  0  3  0  0  0  0  0  0
    7.8090   -5.0670    1.1690 C   0  0  0  0  0  3  0  0  0  0  0  0
    4.2390   -2.6030    5.8310 O   0  0  0  0  0  0  0  0  0  0  0  0
    4.9180   -2.8420    6.8750 C   0  0  0  0  0  0  0  0  0  0  0  0
    4.7710   -3.8250    7.6630 O   0  0  0  0  0  1  0  0  0  0  0  0
  1  2  2  0  0  0  0
  2  3  1  0  0  0  0
  4  5  1  0  0  0  0
  4  3  2  0  0  0  0
  5  9  1  0  0  0  0
  6  7  2  0  0  0  0
  6  5  1  0  0  0  0
  8  1  1  0  0  0  0
  8  4  1  0  0  0  0
  9 10  1  0  0  0  0
 11 10  1  0  0  0  0
 12 11  1  0  0  0  0
 12 14  2  0  0  0  0
 13 12  2  0  0  0  0
 15 16  1  0  0  0  0
 15 12  1  0  0  0  0
 16  9  1  0  0  0  0
 17  6  1  0  0  0  0
 18 17  1  0  0  0  0
 19 18  2  0  0  0  0
 20 21  2  0  0  0  0
 20 19  1  0  0  0  0
 21 22  1  0  0  0  0
 22 17  2  0  0  0  0
 23 24  1  0  0  0  0
 23 20  1  0  0  0  0
 24 25  1  0  0  0  0
 25 26  2  0  0  0  0
 27 26  1  0  0  0  0
 28 27  2  0  0  0  0
 29 28  1  0  0  0  0
 29 24  2  0  0  0  0
 30 31  2  0  0  0  0
 31  1  1  0  0  0  0
 31 32  1  0  0  0  0
M  END
>  <minimizedAffinity>
-6.85165215

$$$$

 OpenBabel09122221313D

 32 35  0  0  0  0  0  0  0  0999 V2000
    8.8420   -2.0790    3.5360 C   0  0  0  0  0  0  0  0  0  0  0  0
    8.8550   -2.1530    2.1620 C   0  0  0  0  0  3  0  0  0  0  0  0
    8.1060   -3.1850    1.6140 N   0  0  0  0  0  0  0  0  0  0  0  0
    7.4850   -3.8330    2.5730 C   0  0  0  0  0  0  0  0  0  0  0  0
    6.6270   -4.9140    2.3490 N   0  0  0  0  0  0  0  0  0  0  0  0
    5.6340   -5.2800    3.2820 C   0  0  0  0  0  0  0  0  0  0  0  0
    5.1740   -6.4210    3.3700 O   0  0  0  0  0  0  0  0  0  0  0  0
    7.9460   -3.3830    4.1660 S   0  0  0  0  0  0  0  0  0  0  0  0
    6.7220   -5.7370    1.1240 C   0  0  0  0  0  3  0  0  0  0  0  0
    5.6120   -5.4540    0.0890 C   0  0  0  0  0  2  0  0  0  0  0  0
    4.3720   -6.3310    0.1520 C   0  0  0  0  0  2  0  0  0  0  0  0
    4.7920   -8.0540    0.1190 S   0  0  0  0  0  0  0  0  0  0  0  0
    3.6000   -8.8310    0.3970 O   0  0  0  0  0  0  0  0  0  0  0  0
    5.5600   -8.3050   -1.0880 O   0  0  0  0  0  0  0  0  0  0  0  0
    5.8950   -8.1960    1.5000 C   0  0  0  0  0  2  0  0  0  0  0  0
    7.0570   -7.2200    1.3990 C   0  0  0  0  0  2  0  0  0  0  0  0
    4.9750   -4.2460    4.1240 C   0  0  0  0  0  0  0  0  0  0  0  0
    4.0920   -3.3440    3.5140 C   0  0  0  0  0  3  0  0  0  0  0  0
    3.3880   -2.4310    4.2970 C   0  0  0  0  0  3  0  0  0  0  0  0
    3.5720   -2.4240    5.6800 C   0  0  0  0  0  0  0  0  0  0  0  0
    4.5220   -3.2540    6.2810 C   0  0  0  0  0  3  0  0  0  0  0  0
    5.2290   -4.1680    5.5010 C   0  0  0  0  0  3  0  0  0  0  0  0
    2.8080   -1.5590    6.4270 O   0  0  0  0  0  0  0  0  0  0  0  0
    3.3310   -1.1650    7.6440 C   0  0  0  0  0  0  0  0  0  0  0  0
    2.5880   -1.0880    8.8270 C   0  0  0  0  0  3  0  0  0  0  0  0
    3.2020   -0.6740   10.0100 C   0  0  0  0  0  3  0  0  0  0  0  0
    4.5490   -0.3180   10.0110 C   0  0  0  0  0  3  0  0  0  0  0  0
    5.2860   -0.3680    8.8270 C   0  0  0  0  0  3  0  0  0  0  0  0
    4.6760   -0.7870    7.6420 C   0  0  0  0  0  3  0  0  0  0  0  0
    9.6030    0.1120    3.7650 O   0  0  0  0  0  0  0  0  0  0  0  0
    9.5130   -1.0270    4.3180 C   0  0  0  0  0  0  0  0  0  0  0  0
    9.9260   -1.3380    5.4760 O   0  0  0  0  0  1  0  0  0  0  0  0
  1  8  1  0  0  0  0
  1 31  1  0  0  0  0
  2  1  2  0  0  0  0
  3  2  1  0  0  0  0
  3  4  2  0  0  0  0
  4  8  1  0  0  0  0
  5  4  1  0  0  0  0
  5  6  1  0  0  0  0
  6  7  2  0  0  0  0
  6 17  1  0  0  0  0
  9 16  1  0  0  0  0
  9  5  1  0  0  0  0
 10 11  1  0  0  0  0
 10  9  1  0  0  0  0
 12 11  1  0  0  0  0
 12 13  2  0  0  0  0
 12 15  1  0  0  0  0
 14 12  2  0  0  0  0
 16 15  1  0  0  0  0
 17 22  1  0  0  0  0
 18 17  2  0  0  0  0
 18 19  1  0  0  0  0
 19 20  2  0  0  0  0
 20 21  1  0  0  0  0
 20 23  1  0  0  0  0
 22 21  2  0  0  0  0
 23 24  1  0  0  0  0
 24 25  1  0  0  0  0
 25 26  2  0  0  0  0
 26 27  1  0  0  0  0
 28 27  2  0  0  0  0
 29 24  2  0  0  0  0
 29 28  1  0  0  0  0
 30 31  2  0  0  0  0
 31 32  1  0  0  0  0
M  END
>  <minimizedAffinity>
-6.79896498

$$$$

 OpenBabel09122221313D

 32 35  0  0  0  0  0  0  0  0999 V2000
   10.5010    2.7820    1.6600 C   0  0  0  0  0  0  0  0  0  0  0  0
   11.5290    3.1640    2.4910 C   0  0  0  0  0  3  0  0  0  0  0  0
   11.5260    2.5800    3.7500 N   0  0  0  0  0  0  0  0  0  0  0  0
   10.5380    1.7180    3.8310 C   0  0  0  0  0  0  0  0  0  0  0  0
   10.2770    0.9410    4.9640 N   0  0  0  0  0  0  0  0  0  0  0  0
    9.5570   -0.2690    4.8850 C   0  0  0  0  0  0  0  0  0  0  0  0
    8.9280   -0.7470    5.8320 O   0  0  0  0  0  0  0  0  0  0  0  0
    9.4510    1.7370    2.5000 S   0  0  0  0  0  0  0  0  0  0  0  0
   10.7350    1.3550    6.3080 C   0  0  0  0  0  3  0  0  0  0  0  0
   11.5300    0.2680    7.0630 C   0  0  0  0  0  2  0  0  0  0  0  0
   10.7440   -0.6340    8.0000 C   0  0  0  0  0  2  0  0  0  0  0  0
    9.7810    0.3090    9.1530 S   0  0  0  0  0  0  0  0  0  0  0  0
    8.8970   -0.5910    9.8700 O   0  0  0  0  0  0  0  0  0  0  0  0
   10.6840    1.1790    9.8860 O   0  0  0  0  0  0  0  0  0  0  0  0
    8.8030    1.3260    8.0800 C   0  0  0  0  0  2  0  0  0  0  0  0
    9.6670    2.1250    7.1160 C   0  0  0  0  0  2  0  0  0  0  0  0
    9.6480   -1.1210    3.6690 C   0  0  0  0  0  0  0  0  0  0  0  0
   10.5140   -2.2230    3.6820 C   0  0  0  0  0  3  0  0  0  0  0  0
   10.5430   -3.0920    2.5920 C   0  0  0  0  0  3  0  0  0  0  0  0
    9.7100   -2.8520    1.4990 C   0  0  0  0  0  0  0  0  0  0  0  0
    8.9170   -1.7030    1.4400 C   0  0  0  0  0  3  0  0  0  0  0  0
    8.8860   -0.8320    2.5280 C   0  0  0  0  0  3  0  0  0  0  0  0
    9.7130   -3.7690    0.4740 O   0  0  0  0  0  0  0  0  0  0  0  0
    8.5570   -4.5060    0.3010 C   0  0  0  0  0  0  0  0  0  0  0  0
    7.8310   -5.0800    1.3490 C   0  0  0  0  0  3  0  0  0  0  0  0
    6.6750   -5.8130    1.0780 C   0  0  0  0  0  3  0  0  0  0  0  0
    6.2540   -5.9920   -0.2390 C   0  0  0  0  0  3  0  0  0  0  0  0
    6.9920   -5.4430   -1.2880 C   0  0  0  0  0  3  0  0  0  0  0  0
    8.1450   -4.7040   -1.0190 C   0  0  0  0  0  3  0  0  0  0  0  0
    9.6110    4.2400    0.0740 O   0  0  0  0  0  1  0  0  0  0  0  0
   10.3510    3.2270    0.2640 C   0  0  0  0  0  0  0  0  0  0  0  0
   10.9830    2.5780   -0.6230 O   0  0  0  0  0  0  0  0  0  0  0  0
  1  2  2  0  0  0  0
  1  8  1  0  0  0  0
  2  3  1  0  0  0  0
  3  4  2  0  0  0  0
  4  5  1  0  0  0  0
  5  9  1  0  0  0  0
  6  5  1  0  0  0  0
  6  7  2  0  0  0  0
  8  4  1  0  0  0  0
  9 10  1  0  0  0  0
  9 16  1  0  0  0  0
 10 11  1  0  0  0  0
 11 12  1  0  0  0  0
 12 13  2  0  0  0  0
 12 14  2  0  0  0  0
 15 12  1  0  0  0  0
 16 15  1  0  0  0  0
 17 18  1  0  0  0  0
 17  6  1  0  0  0  0
 19 18  2  0  0  0  0
 20 19  1  0  0  0  0
 21 20  2  0  0  0  0
 21 22  1  0  0  0  0
 22 17  2  0  0  0  0
 23 20  1  0  0  0  0
 24 23  1  0  0  0  0
 24 25  1  0  0  0  0
 26 25  2  0  0  0  0
 27 26  1  0  0  0  0
 28 29  1  0  0  0  0
 28 27  2  0  0  0  0
 29 24  2  0  0  0  0
 30 31  1  0  0  0  0
 31  1  1  0  0  0  0
 32 31  2  0  0  0  0
M  END
>  <minimizedAffinity>
-6.67698336

$$$$

 OpenBabel09122221313D

 32 35  0  0  0  0  0  0  0  0999 V2000
    5.2000   -3.8310    5.1450 C   0  0  0  0  0  0  0  0  0  0  0  0
    6.5140   -3.5870    5.4730 C   0  0  0  0  0  3  0  0  0  0  0  0
    6.7110   -2.8520    6.6330 N   0  0  0  0  0  0  0  0  0  0  0  0
    5.5510   -2.6100    7.2020 C   0  0  0  0  0  0  0  0  0  0  0  0
    5.4080   -1.9110    8.4040 N   0  0  0  0  0  0  0  0  0  0  0  0
    4.2680   -2.0640    9.2210 C   0  0  0  0  0  0  0  0  0  0  0  0
    3.8780   -1.2010   10.0100 O   0  0  0  0  0  0  0  0  0  0  0  0
    4.1810   -3.0490    6.2630 S   0  0  0  0  0  0  0  0  0  0  0  0
    6.4420   -0.9660    8.8790 C   0  0  0  0  0  3  0  0  0  0  0  0
    7.0950   -0.1330    7.7560 C   0  0  0  0  0  2  0  0  0  0  0  0
    8.3790   -0.6780    7.1520 C   0  0  0  0  0  2  0  0  0  0  0  0
    9.5840   -1.0390    8.4030 S   0  0  0  0  0  0  0  0  0  0  0  0
   10.6910   -1.7500    7.7940 O   0  0  0  0  0  0  0  0  0  0  0  0
    9.8260    0.1780    9.1570 O   0  0  0  0  0  0  0  0  0  0  0  0
    8.7030   -2.1610    9.4560 C   0  0  0  0  0  2  0  0  0  0  0  0
    7.3900   -1.5680    9.9410 C   0  0  0  0  0  2  0  0  0  0  0  0
    3.5520   -3.3670    9.2760 C   0  0  0  0  0  0  0  0  0  0  0  0
    2.1500   -3.3640    9.3010 C   0  0  0  0  0  3  0  0  0  0  0  0
    1.4560   -4.5720    9.2520 C   0  0  0  0  0  3  0  0  0  0  0  0
    2.1650   -5.7710    9.1810 C   0  0  0  0  0  0  0  0  0  0  0  0
    3.5610   -5.7840    9.2530 C   0  0  0  0  0  3  0  0  0  0  0  0
    4.2590   -4.5780    9.3020 C   0  0  0  0  0  3  0  0  0  0  0  0
    1.4480   -6.9380    9.0610 O   0  0  0  0  0  0  0  0  0  0  0  0
    0.6650   -7.0690    7.9300 C   0  0  0  0  0  0  0  0  0  0  0  0
    1.1460   -6.9280    6.6240 C   0  0  0  0  0  3  0  0  0  0  0  0
    0.2780   -7.0740    5.5410 C   0  0  0  0  0  3  0  0  0  0  0  0
   -1.0730   -7.3400    5.7600 C   0  0  0  0  0  3  0  0  0  0  0  0
   -1.5600   -7.4550    7.0620 C   0  0  0  0  0  3  0  0  0  0  0  0
   -0.6930   -7.3150    8.1470 C   0  0  0  0  0  3  0  0  0  0  0  0
    4.0600   -4.0520    3.1240 O   0  0  0  0  0  0  0  0  0  0  0  0
    4.7670   -4.6440    3.9960 C   0  0  0  0  0  0  0  0  0  0  0  0
    5.1500   -5.8530    3.9630 O   0  0  0  0  0  1  0  0  0  0  0  0
  1  2  2  0  0  0  0
  1  8  1  0  0  0  0
  2  3  1  0  0  0  0
  3  4  2  0  0  0  0
  4  5  1  0  0  0  0
  5  9  1  0  0  0  0
  5  6  1  0  0  0  0
  6 17  1  0  0  0  0
  6  7  2  0  0  0  0
  8  4  1  0  0  0  0
  9 16  1  0  0  0  0
 10  9  1  0  0  0  0
 11 10  1  0  0  0  0
 11 12  1  0  0  0  0
 12 14  2  0  0  0  0
 12 15  1  0  0  0  0
 13 12  2  0  0  0  0
 15 16  1  0  0  0  0
 17 18  2  0  0  0  0
 17 22  1  0  0  0  0
 19 18  1  0  0  0  0
 20 19  2  0  0  0  0
 20 21  1  0  0  0  0
 21 22  2  0  0  0  0
 23 20  1  0  0  0  0
 24 29  1  0  0  0  0
 24 23  1  0  0  0  0
 25 24  2  0  0  0  0
 26 27  2  0  0  0  0
 26 25  1  0  0  0  0
 27 28  1  0  0  0  0
 28 29  2  0  0  0  0
 30 31  2  0  0  0  0
 31  1  1  0  0  0  0
 32 31  1  0  0  0  0
M  END
>  <minimizedAffinity>
-6.54232311

$$$$

 OpenBabel09122221313D

 32 35  0  0  0  0  0  0  0  0999 V2000
    5.2200   -3.7530    5.1980 C   0  0  0  0  0  0  0  0  0  0  0  0
    6.5440   -3.5750    5.5310 C   0  0  0  0  0  3  0  0  0  0  0  0
    6.7740   -2.8330    6.6810 N   0  0  0  0  0  0  0  0  0  0  0  0
    5.6260   -2.5190    7.2370 C   0  0  0  0  0  0  0  0  0  0  0  0
    5.5130   -1.7940    8.4280 N   0  0  0  0  0  0  0  0  0  0  0  0
    4.3620   -1.8710    9.2390 C   0  0  0  0  0  0  0  0  0  0  0  0
    4.0150   -0.9750   10.0110 O   0  0  0  0  0  0  0  0  0  0  0  0
    4.2390   -2.8980    6.2960 S   0  0  0  0  0  0  0  0  0  0  0  0
    6.5950   -0.9000    8.8950 C   0  0  0  0  0  3  0  0  0  0  0  0
    7.2170   -0.0310    7.7810 C   0  0  0  0  0  2  0  0  0  0  0  0
    8.4560   -0.5800    7.0910 C   0  0  0  0  0  2  0  0  0  0  0  0
    9.7070   -1.0310    8.2640 S   0  0  0  0  0  0  0  0  0  0  0  0
   10.7650   -1.7400    7.5710 O   0  0  0  0  0  0  0  0  0  0  0  0
   10.0180    0.1430    9.0610 O   0  0  0  0  0  0  0  0  0  0  0  0
    8.8460   -2.1780    9.3070 C   0  0  0  0  0  2  0  0  0  0  0  0
    7.5740   -1.5750    9.8810 C   0  0  0  0  0  2  0  0  0  0  0  0
    3.5750   -3.1320    9.3090 C   0  0  0  0  0  0  0  0  0  0  0  0
    4.2620   -4.3480    9.4250 C   0  0  0  0  0  3  0  0  0  0  0  0
    3.5460   -5.5330    9.5920 C   0  0  0  0  0  3  0  0  0  0  0  0
    2.1520   -5.4930    9.6400 C   0  0  0  0  0  0  0  0  0  0  0  0
    1.4610   -4.2970    9.4290 C   0  0  0  0  0  3  0  0  0  0  0  0
    2.1740   -3.1110    9.2610 C   0  0  0  0  0  3  0  0  0  0  0  0
    1.4820   -6.6700    9.8790 O   0  0  0  0  0  0  0  0  0  0  0  0
    0.4990   -7.0170    8.9720 C   0  0  0  0  0  0  0  0  0  0  0  0
   -0.8070   -7.3660    9.3300 C   0  0  0  0  0  3  0  0  0  0  0  0
   -1.7340   -7.7070    8.3430 C   0  0  0  0  0  3  0  0  0  0  0  0
   -1.3530   -7.7190    7.0020 C   0  0  0  0  0  3  0  0  0  0  0  0
   -0.0430   -7.3970    6.6450 C   0  0  0  0  0  3  0  0  0  0  0  0
    0.8840   -7.0500    7.6300 C   0  0  0  0  0  3  0  0  0  0  0  0
    5.1680   -5.7570    4.0090 O   0  0  0  0  0  1  0  0  0  0  0  0
    4.7510   -4.5590    4.0580 C   0  0  0  0  0  0  0  0  0  0  0  0
    3.9620   -4.0000    3.2370 O   0  0  0  0  0  0  0  0  0  0  0  0
  1  2  2  0  0  0  0
  1  8  1  0  0  0  0
  2  3  1  0  0  0  0
  3  4  2  0  0  0  0
  4  5  1  0  0  0  0
  5  9  1  0  0  0  0
  5  6  1  0  0  0  0
  6 17  1  0  0  0  0
  6  7  2  0  0  0  0
  8  4  1  0  0  0  0
  9 16  1  0  0  0  0
 10  9  1  0  0  0  0
 11 10  1  0  0  0  0
 11 12  1  0  0  0  0
 12 14  2  0  0  0  0
 12 15  1  0  0  0  0
 13 12  2  0  0  0  0
 15 16  1  0  0  0  0
 17 18  1  0  0  0  0
 18 19  2  0  0  0  0
 19 20  1  0  0  0  0
 20 23  1  0  0  0  0
 21 20  2  0  0  0  0
 22 17  2  0  0  0  0
 22 21  1  0  0  0  0
 24 25  1  0  0  0  0
 24 23  1  0  0  0  0
 26 25  2  0  0  0  0
 27 26  1  0  0  0  0
 28 27  2  0  0  0  0
 28 29  1  0  0  0  0
 29 24  2  0  0  0  0
 30 31  1  0  0  0  0
 31  1  1  0  0  0  0
 32 31  2  0  0  0  0
M  END
>  <minimizedAffinity>
-6.43726778

$$$$

 OpenBabel09122221313D

 32 35  0  0  0  0  0  0  0  0999 V2000
    2.3190   -7.5660    6.3950 C   0  0  0  0  0  0  0  0  0  0  0  0
    3.1760   -8.5500    5.9580 C   0  0  0  0  0  3  0  0  0  0  0  0
    3.8670   -8.2630    4.7890 N   0  0  0  0  0  0  0  0  0  0  0  0
    3.5750   -7.0430    4.3960 C   0  0  0  0  0  0  0  0  0  0  0  0
    4.1280   -6.4410    3.2620 N   0  0  0  0  0  0  0  0  0  0  0  0
    4.1870   -5.0380    3.1200 C   0  0  0  0  0  0  0  0  0  0  0  0
    4.2340   -4.4690    2.0270 O   0  0  0  0  0  0  0  0  0  0  0  0
    2.3060   -6.2850    5.2720 S   0  0  0  0  0  0  0  0  0  0  0  0
    4.6740   -7.2440    2.1470 C   0  0  0  0  0  3  0  0  0  0  0  0
    6.2150   -7.2370    2.0630 C   0  0  0  0  0  2  0  0  0  0  0  0
    6.8510   -6.1990    1.1530 C   0  0  0  0  0  2  0  0  0  0  0  0
    6.1650   -6.2600   -0.4820 S   0  0  0  0  0  0  0  0  0  0  0  0
    6.6480   -5.1190   -1.2350 O   0  0  0  0  0  0  0  0  0  0  0  0
    6.3540   -7.6050   -0.9970 O   0  0  0  0  0  0  0  0  0  0  0  0
    4.4340   -6.0400   -0.1690 C   0  0  0  0  0  2  0  0  0  0  0  0
    3.9030   -7.0650    0.8200 C   0  0  0  0  0  2  0  0  0  0  0  0
    4.3480   -4.1670    4.3150 C   0  0  0  0  0  0  0  0  0  0  0  0
    3.4010   -3.1600    4.5460 C   0  0  0  0  0  3  0  0  0  0  0  0
    3.4740   -2.3960    5.7100 C   0  0  0  0  0  3  0  0  0  0  0  0
    4.4920   -2.6430    6.6320 C   0  0  0  0  0  0  0  0  0  0  0  0
    5.4930   -3.5800    6.3610 C   0  0  0  0  0  3  0  0  0  0  0  0
    5.4230   -4.3450    5.1970 C   0  0  0  0  0  3  0  0  0  0  0  0
    4.4900   -1.9210    7.8010 O   0  0  0  0  0  0  0  0  0  0  0  0
    5.7250   -1.5790    8.3180 C   0  0  0  0  0  0  0  0  0  0  0  0
    6.3150   -2.2110    9.4180 C   0  0  0  0  0  3  0  0  0  0  0  0
    7.5670   -1.7940    9.8740 C   0  0  0  0  0  3  0  0  0  0  0  0
    8.2210   -0.7350    9.2470 C   0  0  0  0  0  3  0  0  0  0  0  0
    7.6230   -0.0850    8.1670 C   0  0  0  0  0  3  0  0  0  0  0  0
    6.3730   -0.5040    7.7050 C   0  0  0  0  0  3  0  0  0  0  0  0
    1.5270   -8.7590    8.2340 O   0  0  0  0  0  1  0  0  0  0  0  0
    1.5410   -7.6360    7.6430 C   0  0  0  0  0  0  0  0  0  0  0  0
    0.9670   -6.5730    8.0300 O   0  0  0  0  0  0  0  0  0  0  0  0
  1 31  1  0  0  0  0
  2  1  2  0  0  0  0
  3  2  1  0  0  0  0
  4  3  2  0  0  0  0
  4  8  1  0  0  0  0
  5  4  1  0  0  0  0
  6  5  1  0  0  0  0
  6 17  1  0  0  0  0
  7  6  2  0  0  0  0
  8  1  1  0  0  0  0
  9  5  1  0  0  0  0
 10  9  1  0  0  0  0
 11 10  1  0  0  0  0
 12 15  1  0  0  0  0
 12 11  1  0  0  0  0
 13 12  2  0  0  0  0
 14 12  2  0  0  0  0
 15 16  1  0  0  0  0
 16  9  1  0  0  0  0
 17 18  2  0  0  0  0
 17 22  1  0  0  0  0
 18 19  1  0  0  0  0
 19 20  2  0  0  0  0
 20 23  1  0  0  0  0
 21 20  1  0  0  0  0
 22 21  2  0  0  0  0
 23 24  1  0  0  0  0
 24 25  1  0  0  0  0
 25 26  2  0  0  0  0
 27 26  1  0  0  0  0
 28 27  2  0  0  0  0
 29 28  1  0  0  0  0
 29 24  2  0  0  0  0
 31 32  2  0  0  0  0
 31 30  1  0  0  0  0
M  END
>  <minimizedAffinity>
-6.41595745

$$$$

 OpenBabel09122221313D

 32 35  0  0  0  0  0  0  0  0999 V2000
    4.9090   -3.7650    4.4340 C   0  0  0  0  0  0  0  0  0  0  0  0
    4.8640   -5.1220    4.2140 C   0  0  0  0  0  3  0  0  0  0  0  0
    5.6470   -5.5810    3.1640 N   0  0  0  0  0  0  0  0  0  0  0  0
    6.3220   -4.5790    2.6490 C   0  0  0  0  0  0  0  0  0  0  0  0
    7.2240   -4.7140    1.5890 N   0  0  0  0  0  0  0  0  0  0  0  0
    8.2570   -3.7790    1.3680 C   0  0  0  0  0  0  0  0  0  0  0  0
    8.7720   -3.5860    0.2650 O   0  0  0  0  0  0  0  0  0  0  0  0
    5.8810   -3.0290    3.2450 S   0  0  0  0  0  0  0  0  0  0  0  0
    7.1370   -5.8430    0.6380 C   0  0  0  0  0  3  0  0  0  0  0  0
    6.1130   -5.6300   -0.4980 C   0  0  0  0  0  2  0  0  0  0  0  0
    4.7130   -6.1770   -0.2730 C   0  0  0  0  0  2  0  0  0  0  0  0
    4.7500   -7.8910    0.1820 S   0  0  0  0  0  0  0  0  0  0  0  0
    3.4190   -8.2960    0.5890 O   0  0  0  0  0  0  0  0  0  0  0  0
    5.4440   -8.6190   -0.8670 O   0  0  0  0  0  0  0  0  0  0  0  0
    5.7990   -7.8750    1.6120 C   0  0  0  0  0  2  0  0  0  0  0  0
    7.1440   -7.2290    1.3200 C   0  0  0  0  0  2  0  0  0  0  0  0
    8.8880   -3.0700    2.5150 C   0  0  0  0  0  0  0  0  0  0  0  0
    9.0120   -1.6750    2.4580 C   0  0  0  0  0  3  0  0  0  0  0  0
    9.5080   -0.9800    3.5600 C   0  0  0  0  0  3  0  0  0  0  0  0
    9.8770   -1.6830    4.7070 C   0  0  0  0  0  0  0  0  0  0  0  0
    9.8460   -3.0800    4.7330 C   0  0  0  0  0  3  0  0  0  0  0  0
    9.3510   -3.7780    3.6330 C   0  0  0  0  0  3  0  0  0  0  0  0
   10.2940   -0.9590    5.7990 O   0  0  0  0  0  0  0  0  0  0  0  0
    9.3070   -0.4980    6.6480 C   0  0  0  0  0  0  0  0  0  0  0  0
    8.1430   -1.2100    6.9560 C   0  0  0  0  0  3  0  0  0  0  0  0
    7.1970   -0.6610    7.8230 C   0  0  0  0  0  3  0  0  0  0  0  0
    7.4000    0.6060    8.3670 C   0  0  0  0  0  3  0  0  0  0  0  0
    8.5470    1.3300    8.0400 C   0  0  0  0  0  3  0  0  0  0  0  0
    9.4980    0.7810    7.1780 C   0  0  0  0  0  3  0  0  0  0  0  0
    4.7450   -3.1630    6.6800 O   0  0  0  0  0  1  0  0  0  0  0  0
    4.2100   -3.0770    5.5330 C   0  0  0  0  0  0  0  0  0  0  0  0
    3.1490   -2.4470    5.2410 O   0  0  0  0  0  0  0  0  0  0  0  0
  1 31  1  0  0  0  0
  2  1  2  0  0  0  0
  3  2  1  0  0  0  0
  4  3  2  0  0  0  0
  4  8  1  0  0  0  0
  5  4  1  0  0  0  0
  6  5  1  0  0  0  0
  6 17  1  0  0  0  0
  7  6  2  0  0  0  0
  8  1  1  0  0  0  0
  9 16  1  0  0  0  0
  9  5  1  0  0  0  0
 10 11  1  0  0  0  0
 10  9  1  0  0  0  0
 11 12  1  0  0  0  0
 12 13  2  0  0  0  0
 12 15  1  0  0  0  0
 14 12  2  0  0  0  0
 16 15  1  0  0  0  0
 17 22  1  0  0  0  0
 18 17  2  0  0  0  0
 18 19  1  0  0  0  0
 19 20  2  0  0  0  0
 20 21  1  0  0  0  0
 20 23  1  0  0  0  0
 22 21  2  0  0  0  0
 23 24  1  0  0  0  0
 24 25  2  0  0  0  0
 24 29  1  0  0  0  0
 25 26  1  0  0  0  0
 26 27  2  0  0  0  0
 28 27  1  0  0  0  0
 29 28  2  0  0  0  0
 31 30  1  0  0  0  0
 32 31  2  0  0  0  0
M  END
>  <minimizedAffinity>
-6.40495825

$$$$

 OpenBabel09122221313D

 32 35  0  0  0  0  0  0  0  0999 V2000
    2.6220   -6.9250    7.3540 C   0  0  0  0  0  0  0  0  0  0  0  0
    3.2000   -7.8890    6.5600 C   0  0  0  0  0  3  0  0  0  0  0  0
    3.6510   -7.4490    5.3230 N   0  0  0  0  0  0  0  0  0  0  0  0
    3.4710   -6.1510    5.2260 C   0  0  0  0  0  0  0  0  0  0  0  0
    3.8460   -5.3970    4.1100 N   0  0  0  0  0  0  0  0  0  0  0  0
    4.0860   -4.0100    4.1970 C   0  0  0  0  0  0  0  0  0  0  0  0
    3.9770   -3.2420    3.2390 O   0  0  0  0  0  0  0  0  0  0  0  0
    2.5580   -5.4510    6.5030 S   0  0  0  0  0  0  0  0  0  0  0  0
    4.0020   -6.0150    2.7750 C   0  0  0  0  0  3  0  0  0  0  0  0
    4.1930   -7.5460    2.8100 C   0  0  0  0  0  2  0  0  0  0  0  0
    5.6230   -8.0620    2.8210 C   0  0  0  0  0  2  0  0  0  0  0  0
    6.5720   -7.3730    1.4910 S   0  0  0  0  0  0  0  0  0  0  0  0
    7.9660   -7.7270    1.6780 O   0  0  0  0  0  0  0  0  0  0  0  0
    5.9000   -7.6980    0.2450 O   0  0  0  0  0  0  0  0  0  0  0  0
    6.3890   -5.6300    1.7650 C   0  0  0  0  0  2  0  0  0  0  0  0
    4.9270   -5.2180    1.8290 C   0  0  0  0  0  2  0  0  0  0  0  0
    4.6380   -3.4190    5.4460 C   0  0  0  0  0  0  0  0  0  0  0  0
    5.8390   -3.9290    5.9570 C   0  0  0  0  0  3  0  0  0  0  0  0
    6.4280   -3.3270    7.0690 C   0  0  0  0  0  3  0  0  0  0  0  0
    5.8110   -2.2240    7.6610 C   0  0  0  0  0  0  0  0  0  0  0  0
    4.5660   -1.7730    7.2140 C   0  0  0  0  0  3  0  0  0  0  0  0
    3.9750   -2.3730    6.1030 C   0  0  0  0  0  3  0  0  0  0  0  0
    6.4560   -1.6120    8.7090 O   0  0  0  0  0  0  0  0  0  0  0  0
    7.7700   -1.2430    8.4970 C   0  0  0  0  0  0  0  0  0  0  0  0
    8.8670   -1.8900    9.0750 C   0  0  0  0  0  3  0  0  0  0  0  0
   10.1620   -1.4430    8.8060 C   0  0  0  0  0  3  0  0  0  0  0  0
   10.3620   -0.3400    7.9780 C   0  0  0  0  0  3  0  0  0  0  0  0
    9.2680    0.3240    7.4220 C   0  0  0  0  0  3  0  0  0  0  0  0
    7.9720   -0.1250    7.6850 C   0  0  0  0  0  3  0  0  0  0  0  0
    2.6860   -8.1100    9.3600 O   0  0  0  0  0  1  0  0  0  0  0  0
    2.1370   -7.1590    8.7250 C   0  0  0  0  0  0  0  0  0  0  0  0
    1.2310   -6.3850    9.1600 O   0  0  0  0  0  0  0  0  0  0  0  0
  1 31  1  0  0  0  0
  2  1  2  0  0  0  0
  3  2  1  0  0  0  0
  4  3  2  0  0  0  0
  4  8  1  0  0  0  0
  5  6  1  0  0  0  0
  5  4  1  0  0  0  0
  6 17  1  0  0  0  0
  7  6  2  0  0  0  0
  8  1  1  0  0  0  0
  9 10  1  0  0  0  0
  9  5  1  0  0  0  0
 10 11  1  0  0  0  0
 12 13  2  0  0  0  0
 12 15  1  0  0  0  0
 12 11  1  0  0  0  0
 14 12  2  0  0  0  0
 15 16  1  0  0  0  0
 16  9  1  0  0  0  0
 17 18  2  0  0  0  0
 17 22  1  0  0  0  0
 18 19  1  0  0  0  0
 19 20  2  0  0  0  0
 20 23  1  0  0  0  0
 21 20  1  0  0  0  0
 22 21  2  0  0  0  0
 24 23  1  0  0  0  0
 24 25  1  0  0  0  0
 26 25  2  0  0  0  0
 27 26  1  0  0  0  0
 28 29  1  0  0  0  0
 28 27  2  0  0  0  0
 29 24  2  0  0  0  0
 31 32  2  0  0  0  0
 31 30  1  0  0  0  0
M  END
>  <minimizedAffinity>
-6.34864044

$$$$

 OpenBabel09122221313D

 32 35  0  0  0  0  0  0  0  0999 V2000
    7.4160   -3.1960    4.3940 C   0  0  0  0  0  0  0  0  0  0  0  0
    7.4650   -3.3660    3.0290 C   0  0  0  0  0  3  0  0  0  0  0  0
    6.5670   -4.2890    2.5110 N   0  0  0  0  0  0  0  0  0  0  0  0
    5.8090   -4.7550    3.4790 C   0  0  0  0  0  0  0  0  0  0  0  0
    4.7850   -5.6860    3.2820 N   0  0  0  0  0  0  0  0  0  0  0  0
    3.7110   -5.8120    4.1890 C   0  0  0  0  0  0  0  0  0  0  0  0
    3.0580   -6.8480    4.3250 O   0  0  0  0  0  0  0  0  0  0  0  0
    6.2850   -4.2810    5.0600 S   0  0  0  0  0  0  0  0  0  0  0  0
    4.7790   -6.5950    2.1160 C   0  0  0  0  0  3  0  0  0  0  0  0
    6.1440   -7.2560    1.8270 C   0  0  0  0  0  2  0  0  0  0  0  0
    7.0480   -6.5560    0.8250 C   0  0  0  0  0  2  0  0  0  0  0  0
    6.2040   -6.2390   -0.7030 S   0  0  0  0  0  0  0  0  0  0  0  0
    7.0370   -5.3880   -1.5300 O   0  0  0  0  0  0  0  0  0  0  0  0
    5.7200   -7.5070   -1.2190 O   0  0  0  0  0  0  0  0  0  0  0  0
    4.7980   -5.3020   -0.1640 C   0  0  0  0  0  2  0  0  0  0  0  0
    4.0020   -6.0390    0.9020 C   0  0  0  0  0  2  0  0  0  0  0  0
    3.2130   -4.6240    4.9330 C   0  0  0  0  0  0  0  0  0  0  0  0
    3.1780   -4.6740    6.3340 C   0  0  0  0  0  3  0  0  0  0  0  0
    2.8100   -3.5400    7.0560 C   0  0  0  0  0  3  0  0  0  0  0  0
    2.4780   -2.3680    6.3750 C   0  0  0  0  0  0  0  0  0  0  0  0
    2.4170   -2.3420    4.9790 C   0  0  0  0  0  3  0  0  0  0  0  0
    2.7850   -3.4750    4.2540 C   0  0  0  0  0  3  0  0  0  0  0  0
    2.1890   -1.2490    7.1210 O   0  0  0  0  0  0  0  0  0  0  0  0
    3.1810   -0.8010    7.9720 C   0  0  0  0  0  0  0  0  0  0  0  0
    2.9370   -0.2160    9.2180 C   0  0  0  0  0  3  0  0  0  0  0  0
    4.0040    0.2130   10.0100 C   0  0  0  0  0  3  0  0  0  0  0  0
    5.3130    0.0760    9.5500 C   0  0  0  0  0  3  0  0  0  0  0  0
    5.5580   -0.4830    8.2960 C   0  0  0  0  0  3  0  0  0  0  0  0
    4.4930   -0.9180    7.5050 C   0  0  0  0  0  3  0  0  0  0  0  0
    8.0910   -2.2220    6.4000 O   0  0  0  0  0  1  0  0  0  0  0  0
    8.2310   -2.2230    5.1390 C   0  0  0  0  0  0  0  0  0  0  0  0
    9.0130   -1.4840    4.4670 O   0  0  0  0  0  0  0  0  0  0  0  0
  1  8  1  0  0  0  0
  1 31  1  0  0  0  0
  2  1  2  0  0  0  0
  3  2  1  0  0  0  0
  3  4  2  0  0  0  0
  4  8  1  0  0  0  0
  5  4  1  0  0  0  0
  5  6  1  0  0  0  0
  6  7  2  0  0  0  0
  6 17  1  0  0  0  0
  9  5  1  0  0  0  0
 10  9  1  0  0  0  0
 11 10  1  0  0  0  0
 12 15  1  0  0  0  0
 12 11  1  0  0  0  0
 13 12  2  0  0  0  0
 14 12  2  0  0  0  0
 15 16  1  0  0  0  0
 16  9  1  0  0  0  0
 17 18  1  0  0  0  0
 18 19  2  0  0  0  0
 20 19  1  0  0  0  0
 20 23  1  0  0  0  0
 21 20  2  0  0  0  0
 22 17  2  0  0  0  0
 22 21  1  0  0  0  0
 23 24  1  0  0  0  0
 24 25  1  0  0  0  0
 25 26  2  0  0  0  0
 27 26  1  0  0  0  0
 28 27  2  0  0  0  0
 29 24  2  0  0  0  0
 29 28  1  0  0  0  0
 31 30  1  0  0  0  0
 32 31  2  0  0  0  0
M  END
>  <minimizedAffinity>
-6.30790663

$$$$
