
 OpenBabel09122222393D

 32 35  0  0  0  0  0  0  0  0999 V2000
    8.8420   -2.0790    3.5360 C   0  0  0  0  0  0  0  0  0  0  0  0
    8.8550   -2.1530    2.1620 C   0  0  0  0  0  3  0  0  0  0  0  0
    8.1060   -3.1850    1.6140 N   0  0  0  0  0  0  0  0  0  0  0  0
    7.4850   -3.8330    2.5730 C   0  0  0  0  0  0  0  0  0  0  0  0
    6.6270   -4.9140    2.3490 N   0  0  0  0  0  0  0  0  0  0  0  0
    5.6340   -5.2800    3.2820 C   0  0  0  0  0  0  0  0  0  0  0  0
    5.1740   -6.4210    3.3700 O   0  0  0  0  0  0  0  0  0  0  0  0
    7.9460   -3.3830    4.1660 S   0  0  0  0  0  0  0  0  0  0  0  0
    6.7220   -5.7370    1.1240 C   0  0  0  0  0  3  0  0  0  0  0  0
    5.6120   -5.4540    0.0890 C   0  0  0  0  0  2  0  0  0  0  0  0
    4.3720   -6.3310    0.1520 C   0  0  0  0  0  2  0  0  0  0  0  0
    4.7920   -8.0540    0.1190 S   0  0  0  0  0  0  0  0  0  0  0  0
    3.6000   -8.8310    0.3970 O   0  0  0  0  0  0  0  0  0  0  0  0
    5.5600   -8.3050   -1.0880 O   0  0  0  0  0  0  0  0  0  0  0  0
    5.8950   -8.1960    1.5000 C   0  0  0  0  0  2  0  0  0  0  0  0
    7.0570   -7.2200    1.3990 C   0  0  0  0  0  2  0  0  0  0  0  0
    4.9750   -4.2460    4.1240 C   0  0  0  0  0  0  0  0  0  0  0  0
    4.0920   -3.3440    3.5140 C   0  0  0  0  0  3  0  0  0  0  0  0
    3.3880   -2.4310    4.2970 C   0  0  0  0  0  3  0  0  0  0  0  0
    3.5720   -2.4240    5.6800 C   0  0  0  0  0  0  0  0  0  0  0  0
    4.5220   -3.2540    6.2810 C   0  0  0  0  0  3  0  0  0  0  0  0
    5.2290   -4.1680    5.5010 C   0  0  0  0  0  3  0  0  0  0  0  0
    2.8080   -1.5590    6.4270 O   0  0  0  0  0  0  0  0  0  0  0  0
    3.3310   -1.1650    7.6440 C   0  0  0  0  0  0  0  0  0  0  0  0
    2.5880   -1.0880    8.8270 C   0  0  0  0  0  3  0  0  0  0  0  0
    3.2020   -0.6740   10.0100 C   0  0  0  0  0  3  0  0  0  0  0  0
    4.5490   -0.3180   10.0110 C   0  0  0  0  0  3  0  0  0  0  0  0
    5.2860   -0.3680    8.8270 C   0  0  0  0  0  3  0  0  0  0  0  0
    4.6760   -0.7870    7.6420 C   0  0  0  0  0  3  0  0  0  0  0  0
    9.6030    0.1120    3.7650 O   0  0  0  0  0  0  0  0  0  0  0  0
    9.5130   -1.0270    4.3180 C   0  0  0  0  0  0  0  0  0  0  0  0
    9.9260   -1.3380    5.4760 O   0  0  0  0  0  1  0  0  0  0  0  0
  1  8  1  0  0  0  0
  1 31  1  0  0  0  0
  2  1  2  0  0  0  0
  3  2  1  0  0  0  0
  3  4  2  0  0  0  0
  4  8  1  0  0  0  0
  5  4  1  0  0  0  0
  5  6  1  0  0  0  0
  6  7  2  0  0  0  0
  6 17  1  0  0  0  0
  9 16  1  0  0  0  0
  9  5  1  0  0  0  0
 10 11  1  0  0  0  0
 10  9  1  0  0  0  0
 12 11  1  0  0  0  0
 12 13  2  0  0  0  0
 12 15  1  0  0  0  0
 14 12  2  0  0  0  0
 16 15  1  0  0  0  0
 17 22  1  0  0  0  0
 18 17  2  0  0  0  0
 18 19  1  0  0  0  0
 19 20  2  0  0  0  0
 20 21  1  0  0  0  0
 20 23  1  0  0  0  0
 22 21  2  0  0  0  0
 23 24  1  0  0  0  0
 24 25  1  0  0  0  0
 25 26  2  0  0  0  0
 26 27  1  0  0  0  0
 28 27  2  0  0  0  0
 29 24  2  0  0  0  0
 29 28  1  0  0  0  0
 30 31  2  0  0  0  0
 31 32  1  0  0  0  0
M  END
>  <minimizedAffinity>
-6.79896498

$$$$
