
 OpenBabel09122222393D

 32 35  0  0  0  0  0  0  0  0999 V2000
    5.9960   -1.8870    7.1840 C   0  0  0  0  0  0  0  0  0  0  0  0
    5.7910   -0.5820    7.5700 C   0  0  0  0  0  3  0  0  0  0  0  0
    6.9410    0.1730    7.7500 N   0  0  0  0  0  0  0  0  0  0  0  0
    7.9930   -0.5470    7.4340 C   0  0  0  0  0  0  0  0  0  0  0  0
    9.3050   -0.0660    7.4830 N   0  0  0  0  0  0  0  0  0  0  0  0
   10.3390   -0.6500    6.7200 C   0  0  0  0  0  0  0  0  0  0  0  0
   11.5300   -0.5870    7.0320 O   0  0  0  0  0  0  0  0  0  0  0  0
    7.6680   -2.2070    7.1310 S   0  0  0  0  0  0  0  0  0  0  0  0
    9.6800    1.0760    8.3440 C   0  0  0  0  0  3  0  0  0  0  0  0
    8.7560    1.2720    9.5650 C   0  0  0  0  0  2  0  0  0  0  0  0
    7.5940    2.2380    9.4010 C   0  0  0  0  0  2  0  0  0  0  0  0
    8.1410    3.8180    8.8080 S   0  0  0  0  0  0  0  0  0  0  0  0
    6.9800    4.6170    8.4690 O   0  0  0  0  0  0  0  0  0  0  0  0
    9.1300    4.3290    9.7410 O   0  0  0  0  0  0  0  0  0  0  0  0
    8.9850    3.3830    7.3110 C   0  0  0  0  0  2  0  0  0  0  0  0
   10.0700    2.3450    7.5550 C   0  0  0  0  0  2  0  0  0  0  0  0
   10.0450   -1.2550    5.3930 C   0  0  0  0  0  0  0  0  0  0  0  0
   10.1650   -2.6440    5.2470 C   0  0  0  0  0  3  0  0  0  0  0  0
    9.7990   -3.2460    4.0430 C   0  0  0  0  0  3  0  0  0  0  0  0
    9.3190   -2.4570    2.9980 C   0  0  0  0  0  0  0  0  0  0  0  0
    9.2890   -1.0640    3.1060 C   0  0  0  0  0  3  0  0  0  0  0  0
    9.6540   -0.4590    4.3080 C   0  0  0  0  0  3  0  0  0  0  0  0
    8.9000   -3.0910    1.8520 O   0  0  0  0  0  0  0  0  0  0  0  0
    7.8040   -3.9230    1.9710 C   0  0  0  0  0  0  0  0  0  0  0  0
    6.7470   -3.7010    2.8590 C   0  0  0  0  0  3  0  0  0  0  0  0
    5.6800   -4.6010    2.9130 C   0  0  0  0  0  3  0  0  0  0  0  0
    5.6780   -5.7300    2.0970 C   0  0  0  0  0  3  0  0  0  0  0  0
    6.7440   -5.9680    1.2290 C   0  0  0  0  0  3  0  0  0  0  0  0
    7.8090   -5.0670    1.1690 C   0  0  0  0  0  3  0  0  0  0  0  0
    4.2390   -2.6030    5.8310 O   0  0  0  0  0  0  0  0  0  0  0  0
    4.9180   -2.8420    6.8750 C   0  0  0  0  0  0  0  0  0  0  0  0
    4.7710   -3.8250    7.6630 O   0  0  0  0  0  1  0  0  0  0  0  0
  1  2  2  0  0  0  0
  2  3  1  0  0  0  0
  4  5  1  0  0  0  0
  4  3  2  0  0  0  0
  5  9  1  0  0  0  0
  6  7  2  0  0  0  0
  6  5  1  0  0  0  0
  8  1  1  0  0  0  0
  8  4  1  0  0  0  0
  9 10  1  0  0  0  0
 11 10  1  0  0  0  0
 12 11  1  0  0  0  0
 12 14  2  0  0  0  0
 13 12  2  0  0  0  0
 15 16  1  0  0  0  0
 15 12  1  0  0  0  0
 16  9  1  0  0  0  0
 17  6  1  0  0  0  0
 18 17  1  0  0  0  0
 19 18  2  0  0  0  0
 20 21  2  0  0  0  0
 20 19  1  0  0  0  0
 21 22  1  0  0  0  0
 22 17  2  0  0  0  0
 23 24  1  0  0  0  0
 23 20  1  0  0  0  0
 24 25  1  0  0  0  0
 25 26  2  0  0  0  0
 27 26  1  0  0  0  0
 28 27  2  0  0  0  0
 29 28  1  0  0  0  0
 29 24  2  0  0  0  0
 30 31  2  0  0  0  0
 31  1  1  0  0  0  0
 31 32  1  0  0  0  0
M  END
>  <minimizedAffinity>
-6.85165215

$$$$
