
 OpenBabel09122222393D

 32 35  0  0  0  0  0  0  0  0999 V2000
    5.2000   -3.8310    5.1450 C   0  0  0  0  0  0  0  0  0  0  0  0
    6.5140   -3.5870    5.4730 C   0  0  0  0  0  3  0  0  0  0  0  0
    6.7110   -2.8520    6.6330 N   0  0  0  0  0  0  0  0  0  0  0  0
    5.5510   -2.6100    7.2020 C   0  0  0  0  0  0  0  0  0  0  0  0
    5.4080   -1.9110    8.4040 N   0  0  0  0  0  0  0  0  0  0  0  0
    4.2680   -2.0640    9.2210 C   0  0  0  0  0  0  0  0  0  0  0  0
    3.8780   -1.2010   10.0100 O   0  0  0  0  0  0  0  0  0  0  0  0
    4.1810   -3.0490    6.2630 S   0  0  0  0  0  0  0  0  0  0  0  0
    6.4420   -0.9660    8.8790 C   0  0  0  0  0  3  0  0  0  0  0  0
    7.0950   -0.1330    7.7560 C   0  0  0  0  0  2  0  0  0  0  0  0
    8.3790   -0.6780    7.1520 C   0  0  0  0  0  2  0  0  0  0  0  0
    9.5840   -1.0390    8.4030 S   0  0  0  0  0  0  0  0  0  0  0  0
   10.6910   -1.7500    7.7940 O   0  0  0  0  0  0  0  0  0  0  0  0
    9.8260    0.1780    9.1570 O   0  0  0  0  0  0  0  0  0  0  0  0
    8.7030   -2.1610    9.4560 C   0  0  0  0  0  2  0  0  0  0  0  0
    7.3900   -1.5680    9.9410 C   0  0  0  0  0  2  0  0  0  0  0  0
    3.5520   -3.3670    9.2760 C   0  0  0  0  0  0  0  0  0  0  0  0
    2.1500   -3.3640    9.3010 C   0  0  0  0  0  3  0  0  0  0  0  0
    1.4560   -4.5720    9.2520 C   0  0  0  0  0  3  0  0  0  0  0  0
    2.1650   -5.7710    9.1810 C   0  0  0  0  0  0  0  0  0  0  0  0
    3.5610   -5.7840    9.2530 C   0  0  0  0  0  3  0  0  0  0  0  0
    4.2590   -4.5780    9.3020 C   0  0  0  0  0  3  0  0  0  0  0  0
    1.4480   -6.9380    9.0610 O   0  0  0  0  0  0  0  0  0  0  0  0
    0.6650   -7.0690    7.9300 C   0  0  0  0  0  0  0  0  0  0  0  0
    1.1460   -6.9280    6.6240 C   0  0  0  0  0  3  0  0  0  0  0  0
    0.2780   -7.0740    5.5410 C   0  0  0  0  0  3  0  0  0  0  0  0
   -1.0730   -7.3400    5.7600 C   0  0  0  0  0  3  0  0  0  0  0  0
   -1.5600   -7.4550    7.0620 C   0  0  0  0  0  3  0  0  0  0  0  0
   -0.6930   -7.3150    8.1470 C   0  0  0  0  0  3  0  0  0  0  0  0
    4.0600   -4.0520    3.1240 O   0  0  0  0  0  0  0  0  0  0  0  0
    4.7670   -4.6440    3.9960 C   0  0  0  0  0  0  0  0  0  0  0  0
    5.1500   -5.8530    3.9630 O   0  0  0  0  0  1  0  0  0  0  0  0
  1  2  2  0  0  0  0
  1  8  1  0  0  0  0
  2  3  1  0  0  0  0
  3  4  2  0  0  0  0
  4  5  1  0  0  0  0
  5  9  1  0  0  0  0
  5  6  1  0  0  0  0
  6 17  1  0  0  0  0
  6  7  2  0  0  0  0
  8  4  1  0  0  0  0
  9 16  1  0  0  0  0
 10  9  1  0  0  0  0
 11 10  1  0  0  0  0
 11 12  1  0  0  0  0
 12 14  2  0  0  0  0
 12 15  1  0  0  0  0
 13 12  2  0  0  0  0
 15 16  1  0  0  0  0
 17 18  2  0  0  0  0
 17 22  1  0  0  0  0
 19 18  1  0  0  0  0
 20 19  2  0  0  0  0
 20 21  1  0  0  0  0
 21 22  2  0  0  0  0
 23 20  1  0  0  0  0
 24 29  1  0  0  0  0
 24 23  1  0  0  0  0
 25 24  2  0  0  0  0
 26 27  2  0  0  0  0
 26 25  1  0  0  0  0
 27 28  1  0  0  0  0
 28 29  2  0  0  0  0
 30 31  2  0  0  0  0
 31  1  1  0  0  0  0
 32 31  1  0  0  0  0
M  END
>  <minimizedAffinity>
-6.54232311

$$$$
