
 OpenBabel09122222393D

 32 35  0  0  0  0  0  0  0  0999 V2000
    7.4160   -3.1960    4.3940 C   0  0  0  0  0  0  0  0  0  0  0  0
    7.4650   -3.3660    3.0290 C   0  0  0  0  0  3  0  0  0  0  0  0
    6.5670   -4.2890    2.5110 N   0  0  0  0  0  0  0  0  0  0  0  0
    5.8090   -4.7550    3.4790 C   0  0  0  0  0  0  0  0  0  0  0  0
    4.7850   -5.6860    3.2820 N   0  0  0  0  0  0  0  0  0  0  0  0
    3.7110   -5.8120    4.1890 C   0  0  0  0  0  0  0  0  0  0  0  0
    3.0580   -6.8480    4.3250 O   0  0  0  0  0  0  0  0  0  0  0  0
    6.2850   -4.2810    5.0600 S   0  0  0  0  0  0  0  0  0  0  0  0
    4.7790   -6.5950    2.1160 C   0  0  0  0  0  3  0  0  0  0  0  0
    6.1440   -7.2560    1.8270 C   0  0  0  0  0  2  0  0  0  0  0  0
    7.0480   -6.5560    0.8250 C   0  0  0  0  0  2  0  0  0  0  0  0
    6.2040   -6.2390   -0.7030 S   0  0  0  0  0  0  0  0  0  0  0  0
    7.0370   -5.3880   -1.5300 O   0  0  0  0  0  0  0  0  0  0  0  0
    5.7200   -7.5070   -1.2190 O   0  0  0  0  0  0  0  0  0  0  0  0
    4.7980   -5.3020   -0.1640 C   0  0  0  0  0  2  0  0  0  0  0  0
    4.0020   -6.0390    0.9020 C   0  0  0  0  0  2  0  0  0  0  0  0
    3.2130   -4.6240    4.9330 C   0  0  0  0  0  0  0  0  0  0  0  0
    3.1780   -4.6740    6.3340 C   0  0  0  0  0  3  0  0  0  0  0  0
    2.8100   -3.5400    7.0560 C   0  0  0  0  0  3  0  0  0  0  0  0
    2.4780   -2.3680    6.3750 C   0  0  0  0  0  0  0  0  0  0  0  0
    2.4170   -2.3420    4.9790 C   0  0  0  0  0  3  0  0  0  0  0  0
    2.7850   -3.4750    4.2540 C   0  0  0  0  0  3  0  0  0  0  0  0
    2.1890   -1.2490    7.1210 O   0  0  0  0  0  0  0  0  0  0  0  0
    3.1810   -0.8010    7.9720 C   0  0  0  0  0  0  0  0  0  0  0  0
    2.9370   -0.2160    9.2180 C   0  0  0  0  0  3  0  0  0  0  0  0
    4.0040    0.2130   10.0100 C   0  0  0  0  0  3  0  0  0  0  0  0
    5.3130    0.0760    9.5500 C   0  0  0  0  0  3  0  0  0  0  0  0
    5.5580   -0.4830    8.2960 C   0  0  0  0  0  3  0  0  0  0  0  0
    4.4930   -0.9180    7.5050 C   0  0  0  0  0  3  0  0  0  0  0  0
    8.0910   -2.2220    6.4000 O   0  0  0  0  0  1  0  0  0  0  0  0
    8.2310   -2.2230    5.1390 C   0  0  0  0  0  0  0  0  0  0  0  0
    9.0130   -1.4840    4.4670 O   0  0  0  0  0  0  0  0  0  0  0  0
  1  8  1  0  0  0  0
  1 31  1  0  0  0  0
  2  1  2  0  0  0  0
  3  2  1  0  0  0  0
  3  4  2  0  0  0  0
  4  8  1  0  0  0  0
  5  4  1  0  0  0  0
  5  6  1  0  0  0  0
  6  7  2  0  0  0  0
  6 17  1  0  0  0  0
  9  5  1  0  0  0  0
 10  9  1  0  0  0  0
 11 10  1  0  0  0  0
 12 15  1  0  0  0  0
 12 11  1  0  0  0  0
 13 12  2  0  0  0  0
 14 12  2  0  0  0  0
 15 16  1  0  0  0  0
 16  9  1  0  0  0  0
 17 18  1  0  0  0  0
 18 19  2  0  0  0  0
 20 19  1  0  0  0  0
 20 23  1  0  0  0  0
 21 20  2  0  0  0  0
 22 17  2  0  0  0  0
 22 21  1  0  0  0  0
 23 24  1  0  0  0  0
 24 25  1  0  0  0  0
 25 26  2  0  0  0  0
 27 26  1  0  0  0  0
 28 27  2  0  0  0  0
 29 24  2  0  0  0  0
 29 28  1  0  0  0  0
 31 30  1  0  0  0  0
 32 31  2  0  0  0  0
M  END
>  <minimizedAffinity>
-6.30790663

$$$$
