
 OpenBabel09092210413D

 19 20  0  0  0  0  0  0  0  0999 V2000
    1.4660    3.5610    0.4810 N   0  0  0  0  0  0  0  0  0  0  0  0
    2.4790    2.7800    0.9840 C   0  0  0  0  0  0  0  0  0  0  0  0
    2.3240    1.9800    2.0430 N   0  0  0  0  0  0  0  0  0  0  0  0
    3.5990    2.9970    0.3470 N   0  0  0  0  0  0  0  0  0  0  0  0
    3.2820    3.8230   -0.6990 C   0  0  0  0  0  0  0  0  0  0  0  0
    4.1020    4.3270   -1.7190 C   0  0  0  0  0  3  0  0  0  0  0  0
    3.5370    5.1700   -2.6820 C   0  0  0  0  0  3  0  0  0  0  0  0
    2.1820    5.5010   -2.6350 C   0  0  0  0  0  3  0  0  0  0  0  0
    1.3490    5.0150   -1.6210 C   0  0  0  0  0  3  0  0  0  0  0  0
    1.9360    4.1800   -0.6600 C   0  0  0  0  0  0  0  0  0  0  0  0
    3.1290    1.4220    2.3250 H   0  0  0  0  0  0  0  0  0  0  0  0
    1.4360    1.6130    2.3650 H   0  0  0  0  0  0  0  0  0  0  0  0
    0.2140    3.8610    1.1400 C   0  0  0  0  0  2  0  0  0  0  0  0
    0.1940    5.1970    1.9010 C   0  0  0  0  0  2  0  0  0  0  0  0
    1.1800    5.3710    3.0610 C   0  0  0  0  0  2  0  0  0  0  0  0
    2.0110    4.1210    5.0920 C   0  0  0  0  0  1  0  0  0  0  0  0
    0.8240    4.5730    4.2940 N   0  0  0  0  0  4  0  0  0  0  0  0
   -0.1560    5.3340    5.1570 C   0  0  0  0  0  1  0  0  0  0  0  0
    0.3000    3.7390    4.0060 H   0  0  0  0  0  0  0  0  0  0  0  0
  1  2  1  0  0  0  0
  1 13  1  0  0  0  0
  2  3  1  0  0  0  0
  3 11  1  0  0  0  0
  3 12  1  0  0  0  0
  4  2  2  0  0  0  0
  5 10  1  0  0  0  0
  5  4  1  0  0  0  0
  6  5  2  0  0  0  0
  7  8  2  0  0  0  0
  7  6  1  0  0  0  0
  8  9  1  0  0  0  0
  9 10  2  0  0  0  0
 10  1  1  0  0  0  0
 13 14  1  0  0  0  0
 14 15  1  0  0  0  0
 15 17  1  0  0  0  0
 17 16  1  0  0  0  0
 17 18  1  0  0  0  0
 19 17  1  0  0  0  0
M  END
>  <minimizedAffinity>
-1.94912529

$$$$
