
 OpenBabel09092210413D

 19 20  0  0  0  0  0  0  0  0999 V2000
    2.8160    4.7760   -0.8050 N   0  0  0  0  0  0  0  0  0  0  0  0
    3.6390    4.1640   -1.7200 C   0  0  0  0  0  0  0  0  0  0  0  0
    4.9360    3.9340   -1.4930 N   0  0  0  0  0  0  0  0  0  0  0  0
    3.0030    3.9280   -2.8370 N   0  0  0  0  0  0  0  0  0  0  0  0
    1.6930    4.2500   -2.5980 C   0  0  0  0  0  0  0  0  0  0  0  0
    0.5800    4.1440   -3.4440 C   0  0  0  0  0  3  0  0  0  0  0  0
   -0.6700    4.5510   -2.9660 C   0  0  0  0  0  3  0  0  0  0  0  0
   -0.8120    5.0490   -1.6710 C   0  0  0  0  0  3  0  0  0  0  0  0
    0.2890    5.1710   -0.8130 C   0  0  0  0  0  3  0  0  0  0  0  0
    1.5340    4.7670   -1.3150 C   0  0  0  0  0  0  0  0  0  0  0  0
    5.4550    3.4510   -2.2250 H   0  0  0  0  0  0  0  0  0  0  0  0
    5.3600    3.8680   -0.5760 H   0  0  0  0  0  0  0  0  0  0  0  0
    3.2430    5.5010    0.3730 C   0  0  0  0  0  2  0  0  0  0  0  0
    3.2460    4.6750    1.6690 C   0  0  0  0  0  2  0  0  0  0  0  0
    3.0070    3.1650    1.5530 C   0  0  0  0  0  2  0  0  0  0  0  0
    0.8250    3.8250    2.6410 C   0  0  0  0  0  1  0  0  0  0  0  0
    1.6720    2.7120    2.0960 N   0  0  0  0  0  4  0  0  0  0  0  0
    0.9180    1.9100    1.0600 C   0  0  0  0  0  1  0  0  0  0  0  0
    1.8360    2.0390    2.8540 H   0  0  0  0  0  0  0  0  0  0  0  0
  1 13  1  0  0  0  0
  2  3  1  0  0  0  0
  2  1  1  0  0  0  0
  3 12  1  0  0  0  0
  4  5  1  0  0  0  0
  4  2  2  0  0  0  0
  5 10  1  0  0  0  0
  6  7  1  0  0  0  0
  6  5  2  0  0  0  0
  7  8  2  0  0  0  0
  8  9  1  0  0  0  0
 10  9  2  0  0  0  0
 10  1  1  0  0  0  0
 11  3  1  0  0  0  0
 13 14  1  0  0  0  0
 15 14  1  0  0  0  0
 15 17  1  0  0  0  0
 17 16  1  0  0  0  0
 17 19  1  0  0  0  0
 18 17  1  0  0  0  0
M  END
>  <minimizedAffinity>
-2.1178937

$$$$
