
 OpenBabel09092210413D

 19 20  0  0  0  0  0  0  0  0999 V2000
    2.2480    4.4810    0.0860 N   0  0  0  0  0  0  0  0  0  0  0  0
    3.3230    3.6570   -0.1500 C   0  0  0  0  0  0  0  0  0  0  0  0
    4.1630    3.8320   -1.1750 N   0  0  0  0  0  0  0  0  0  0  0  0
    3.3460    2.6640    0.6990 N   0  0  0  0  0  0  0  0  0  0  0  0
    2.3570    2.9250    1.6090 C   0  0  0  0  0  0  0  0  0  0  0  0
    1.9830    2.2040    2.7520 C   0  0  0  0  0  3  0  0  0  0  0  0
    0.9190    2.6760    3.5280 C   0  0  0  0  0  3  0  0  0  0  0  0
    0.2430    3.8450    3.1770 C   0  0  0  0  0  3  0  0  0  0  0  0
    0.5950    4.5750    2.0360 C   0  0  0  0  0  3  0  0  0  0  0  0
    1.6570    4.0790    1.2660 C   0  0  0  0  0  0  0  0  0  0  0  0
    4.9440    3.1810   -1.2490 H   0  0  0  0  0  0  0  0  0  0  0  0
    4.3110    4.7090   -1.6580 H   0  0  0  0  0  0  0  0  0  0  0  0
    1.6960    5.4460   -0.8400 C   0  0  0  0  0  2  0  0  0  0  0  0
    0.4720    4.9530   -1.6280 C   0  0  0  0  0  2  0  0  0  0  0  0
    0.6990    3.8840   -2.7020 C   0  0  0  0  0  2  0  0  0  0  0  0
   -0.6050    2.4640   -1.0700 C   0  0  0  0  0  1  0  0  0  0  0  0
    0.2780    2.4940   -2.2830 N   0  0  0  0  0  4  0  0  0  0  0  0
   -0.3590    1.7580   -3.4400 C   0  0  0  0  0  1  0  0  0  0  0  0
    1.1190    1.9430   -2.0760 H   0  0  0  0  0  0  0  0  0  0  0  0
  1 10  1  0  0  0  0
  2  1  1  0  0  0  0
  2  4  2  0  0  0  0
  3  2  1  0  0  0  0
  4  5  1  0  0  0  0
  5  6  1  0  0  0  0
  6  7  2  0  0  0  0
  8  7  1  0  0  0  0
  9  8  2  0  0  0  0
 10  5  2  0  0  0  0
 10  9  1  0  0  0  0
 11  3  1  0  0  0  0
 12  3  1  0  0  0  0
 13  1  1  0  0  0  0
 14 13  1  0  0  0  0
 15 17  1  0  0  0  0
 15 14  1  0  0  0  0
 17 19  1  0  0  0  0
 17 16  1  0  0  0  0
 18 17  1  0  0  0  0
M  END
>  <minimizedAffinity>
-2.27758718

$$$$
