
 OpenBabel09092210413D

 19 20  0  0  0  0  0  0  0  0999 V2000
    2.8790    4.7260   -0.6990 N   0  0  0  0  0  0  0  0  0  0  0  0
    3.6770    4.1630   -1.6640 C   0  0  0  0  0  0  0  0  0  0  0  0
    4.9780    3.9170   -1.4800 N   0  0  0  0  0  0  0  0  0  0  0  0
    3.0160    3.9890   -2.7770 N   0  0  0  0  0  0  0  0  0  0  0  0
    1.7130    4.3010   -2.4920 C   0  0  0  0  0  0  0  0  0  0  0  0
    0.5800    4.2440   -3.3160 C   0  0  0  0  0  3  0  0  0  0  0  0
   -0.6570    4.6280   -2.7880 C   0  0  0  0  0  3  0  0  0  0  0  0
   -0.7670    5.0560   -1.4640 C   0  0  0  0  0  3  0  0  0  0  0  0
    0.3530    5.1280   -0.6270 C   0  0  0  0  0  3  0  0  0  0  0  0
    1.5850    4.7490   -1.1790 C   0  0  0  0  0  0  0  0  0  0  0  0
    5.4790    3.4730   -2.2500 H   0  0  0  0  0  0  0  0  0  0  0  0
    5.4230    3.8000   -0.5780 H   0  0  0  0  0  0  0  0  0  0  0  0
    3.3350    5.3850    0.5060 C   0  0  0  0  0  2  0  0  0  0  0  0
    3.3370    4.4980    1.7620 C   0  0  0  0  0  2  0  0  0  0  0  0
    4.0800    5.0160    2.9990 C   0  0  0  0  0  2  0  0  0  0  0  0
    5.1950    4.3640    5.1690 C   0  0  0  0  0  1  0  0  0  0  0  0
    4.7760    3.9360    3.7930 N   0  0  0  0  0  4  0  0  0  0  0  0
    3.9300    2.6830    3.8450 C   0  0  0  0  0  1  0  0  0  0  0  0
    5.6170    3.6420    3.2840 H   0  0  0  0  0  0  0  0  0  0  0  0
  1 13  1  0  0  0  0
  2  3  1  0  0  0  0
  2  1  1  0  0  0  0
  3 12  1  0  0  0  0
  4  5  1  0  0  0  0
  4  2  2  0  0  0  0
  5 10  1  0  0  0  0
  6  7  1  0  0  0  0
  6  5  2  0  0  0  0
  7  8  2  0  0  0  0
  8  9  1  0  0  0  0
 10  1  1  0  0  0  0
 10  9  2  0  0  0  0
 11  3  1  0  0  0  0
 13 14  1  0  0  0  0
 14 15  1  0  0  0  0
 15 17  1  0  0  0  0
 17 18  1  0  0  0  0
 17 16  1  0  0  0  0
 19 17  1  0  0  0  0
M  END
>  <minimizedAffinity>
-2.02440333

$$$$
