
 OpenBabel09092210413D

 19 20  0  0  0  0  0  0  0  0999 V2000
    2.2780    1.4900    2.2480 N   0  0  0  0  0  0  0  0  0  0  0  0
    2.0220    0.4330    1.4070 C   0  0  0  0  0  0  0  0  0  0  0  0
    1.1340    0.4960    0.4100 N   0  0  0  0  0  0  0  0  0  0  0  0
    2.6890   -0.6290    1.7720 N   0  0  0  0  0  0  0  0  0  0  0  0
    3.5220   -0.2200    2.7810 C   0  0  0  0  0  0  0  0  0  0  0  0
    4.4820   -0.9500    3.4960 C   0  0  0  0  0  3  0  0  0  0  0  0
    5.2110   -0.3020    4.4990 C   0  0  0  0  0  3  0  0  0  0  0  0
    4.9920    1.0470    4.7830 C   0  0  0  0  0  3  0  0  0  0  0  0
    4.0320    1.7910    4.0860 C   0  0  0  0  0  3  0  0  0  0  0  0
    3.3060    1.1200    3.0910 C   0  0  0  0  0  0  0  0  0  0  0  0
    1.0340   -0.3340   -0.1740 H   0  0  0  0  0  0  0  0  0  0  0  0
    0.8230    1.3510   -0.0350 H   0  0  0  0  0  0  0  0  0  0  0  0
    1.4750    2.6860    2.3820 C   0  0  0  0  0  2  0  0  0  0  0  0
    1.9990    3.9030    1.6040 C   0  0  0  0  0  2  0  0  0  0  0  0
    3.2500    3.7110    0.7390 C   0  0  0  0  0  2  0  0  0  0  0  0
    1.6460    4.2220   -1.1430 C   0  0  0  0  0  1  0  0  0  0  0  0
    2.9650    3.6310   -0.7420 N   0  0  0  0  0  4  0  0  0  0  0  0
    4.0990    4.2360   -1.5370 C   0  0  0  0  0  1  0  0  0  0  0  0
    2.9680    2.6440   -1.0250 H   0  0  0  0  0  0  0  0  0  0  0  0
  1 13  1  0  0  0  0
  1 10  1  0  0  0  0
  2  4  2  0  0  0  0
  2  1  1  0  0  0  0
  3  2  1  0  0  0  0
  4  5  1  0  0  0  0
  5 10  2  0  0  0  0
  5  6  1  0  0  0  0
  6  7  2  0  0  0  0
  7  8  1  0  0  0  0
  9  8  2  0  0  0  0
 10  9  1  0  0  0  0
 11  3  1  0  0  0  0
 12  3  1  0  0  0  0
 14 13  1  0  0  0  0
 15 14  1  0  0  0  0
 16 17  1  0  0  0  0
 17 15  1  0  0  0  0
 18 17  1  0  0  0  0
 19 17  1  0  0  0  0
M  END
>  <minimizedAffinity>
-1.87880313

$$$$
