
 OpenBabel09092210413D

 19 20  0  0  0  0  0  0  0  0999 V2000
    1.1230    3.5870    0.1210 N   0  0  0  0  0  0  0  0  0  0  0  0
   -0.0810    3.9280   -0.4470 C   0  0  0  0  0  0  0  0  0  0  0  0
   -1.2510    3.7780    0.1820 N   0  0  0  0  0  0  0  0  0  0  0  0
    0.0790    4.3250   -1.6820 N   0  0  0  0  0  0  0  0  0  0  0  0
    1.4320    4.3960   -1.8810 C   0  0  0  0  0  0  0  0  0  0  0  0
    2.1470    4.8090   -3.0140 C   0  0  0  0  0  3  0  0  0  0  0  0
    3.5460    4.7830   -2.9740 C   0  0  0  0  0  3  0  0  0  0  0  0
    4.2200    4.3590   -1.8290 C   0  0  0  0  0  3  0  0  0  0  0  0
    3.5240    3.9350   -0.6900 C   0  0  0  0  0  3  0  0  0  0  0  0
    2.1240    3.9590   -0.7530 C   0  0  0  0  0  0  0  0  0  0  0  0
   -2.0870    4.0840   -0.3160 H   0  0  0  0  0  0  0  0  0  0  0  0
   -1.3650    3.7290    1.1870 H   0  0  0  0  0  0  0  0  0  0  0  0
    1.3070    2.7830    1.3090 C   0  0  0  0  0  2  0  0  0  0  0  0
    1.9200    3.5310    2.5030 C   0  0  0  0  0  2  0  0  0  0  0  0
    3.2890    3.0630    3.0120 C   0  0  0  0  0  2  0  0  0  0  0  0
    3.8420    5.5010    2.6590 C   0  0  0  0  0  1  0  0  0  0  0  0
    4.3620    4.1240    2.9510 N   0  0  0  0  0  4  0  0  0  0  0  0
    5.1980    4.1110    4.2100 C   0  0  0  0  0  1  0  0  0  0  0  0
    5.0300    3.8750    2.2120 H   0  0  0  0  0  0  0  0  0  0  0  0
  1 13  1  0  0  0  0
  2  1  1  0  0  0  0
  2  3  1  0  0  0  0
  3 12  1  0  0  0  0
  4  2  2  0  0  0  0
  5  4  1  0  0  0  0
  5 10  1  0  0  0  0
  6  7  1  0  0  0  0
  6  5  2  0  0  0  0
  7  8  2  0  0  0  0
  8  9  1  0  0  0  0
 10  9  2  0  0  0  0
 10  1  1  0  0  0  0
 11  3  1  0  0  0  0
 13 14  1  0  0  0  0
 14 15  1  0  0  0  0
 16 17  1  0  0  0  0
 17 15  1  0  0  0  0
 17 18  1  0  0  0  0
 19 17  1  0  0  0  0
M  END
>  <minimizedAffinity>
-2.07598448

$$$$
