
 OpenBabel09082221143D

 19 20  0  0  0  0  0  0  0  0999 V2000
    1.3530    3.4670    0.3380 N   0  0  0  0  0  0  0  0  0  0  0  0
    2.4150    2.8040    0.9050 C   0  0  0  0  0  0  0  0  0  0  0  0
    2.2850    1.9830    1.9520 N   0  0  0  0  0  0  0  0  0  0  0  0
    3.5400    3.1530    0.3410 N   0  0  0  0  0  0  0  0  0  0  0  0
    3.1970    3.9440   -0.7230 C   0  0  0  0  0  0  0  0  0  0  0  0
    4.0160    4.5470   -1.6890 C   0  0  0  0  0  3  0  0  0  0  0  0
    3.4210    5.3270   -2.6860 C   0  0  0  0  0  3  0  0  0  0  0  0
    2.0370    5.5010   -2.7250 C   0  0  0  0  0  3  0  0  0  0  0  0
    1.2020    4.9140   -1.7660 C   0  0  0  0  0  3  0  0  0  0  0  0
    1.8190    4.1450   -0.7690 C   0  0  0  0  0  0  0  0  0  0  0  0
    3.1300    1.5190    2.2840 H   0  0  0  0  0  0  0  0  0  0  0  0
    1.4270    1.5140    2.2170 H   0  0  0  0  0  0  0  0  0  0  0  0
    0.0350    3.6180    0.9170 C   0  0  0  0  0  2  0  0  0  0  0  0
   -1.0570    2.7600    0.2600 C   0  0  0  0  0  2  0  0  0  0  0  0
   -0.8040    1.2520    0.1420 C   0  0  0  0  0  2  0  0  0  0  0  0
   -0.5330   -0.6080   -1.5450 C   0  0  0  0  0  1  0  0  0  0  0  0
   -0.2560    0.8260   -1.2010 N   0  0  0  0  0  4  0  0  0  0  0  0
   -0.7390    1.7520   -2.2930 C   0  0  0  0  0  1  0  0  0  0  0  0
    0.7620    0.9600   -1.1990 H   0  0  0  0  0  0  0  0  0  0  0  0
  1  2  1  0  0  0  0
  1 13  1  0  0  0  0
  2  3  1  0  0  0  0
  3 12  1  0  0  0  0
  3 11  1  0  0  0  0
  4  2  2  0  0  0  0
  5  4  1  0  0  0  0
  6  5  2  0  0  0  0
  7  6  1  0  0  0  0
  8  7  2  0  0  0  0
  8  9  1  0  0  0  0
  9 10  2  0  0  0  0
 10  5  1  0  0  0  0
 10  1  1  0  0  0  0
 14 13  1  0  0  0  0
 15 14  1  0  0  0  0
 16 17  1  0  0  0  0
 17 19  1  0  0  0  0
 17 15  1  0  0  0  0
 18 17  1  0  0  0  0
M  END
>  <minimizedAffinity>
-2.28654218

$$$$

 OpenBabel09082221143D

 19 20  0  0  0  0  0  0  0  0999 V2000
    2.2480    4.4810    0.0860 N   0  0  0  0  0  0  0  0  0  0  0  0
    3.3230    3.6570   -0.1500 C   0  0  0  0  0  0  0  0  0  0  0  0
    4.1630    3.8320   -1.1750 N   0  0  0  0  0  0  0  0  0  0  0  0
    3.3460    2.6640    0.6990 N   0  0  0  0  0  0  0  0  0  0  0  0
    2.3570    2.9250    1.6090 C   0  0  0  0  0  0  0  0  0  0  0  0
    1.9830    2.2040    2.7520 C   0  0  0  0  0  3  0  0  0  0  0  0
    0.9190    2.6760    3.5280 C   0  0  0  0  0  3  0  0  0  0  0  0
    0.2430    3.8450    3.1770 C   0  0  0  0  0  3  0  0  0  0  0  0
    0.5950    4.5750    2.0360 C   0  0  0  0  0  3  0  0  0  0  0  0
    1.6570    4.0790    1.2660 C   0  0  0  0  0  0  0  0  0  0  0  0
    4.9440    3.1810   -1.2490 H   0  0  0  0  0  0  0  0  0  0  0  0
    4.3110    4.7090   -1.6580 H   0  0  0  0  0  0  0  0  0  0  0  0
    1.6960    5.4460   -0.8400 C   0  0  0  0  0  2  0  0  0  0  0  0
    0.4720    4.9530   -1.6280 C   0  0  0  0  0  2  0  0  0  0  0  0
    0.6990    3.8840   -2.7020 C   0  0  0  0  0  2  0  0  0  0  0  0
   -0.6050    2.4640   -1.0700 C   0  0  0  0  0  1  0  0  0  0  0  0
    0.2780    2.4940   -2.2830 N   0  0  0  0  0  4  0  0  0  0  0  0
   -0.3590    1.7580   -3.4400 C   0  0  0  0  0  1  0  0  0  0  0  0
    1.1190    1.9430   -2.0760 H   0  0  0  0  0  0  0  0  0  0  0  0
  1 10  1  0  0  0  0
  2  1  1  0  0  0  0
  2  4  2  0  0  0  0
  3  2  1  0  0  0  0
  4  5  1  0  0  0  0
  5  6  1  0  0  0  0
  6  7  2  0  0  0  0
  8  7  1  0  0  0  0
  9  8  2  0  0  0  0
 10  5  2  0  0  0  0
 10  9  1  0  0  0  0
 11  3  1  0  0  0  0
 12  3  1  0  0  0  0
 13  1  1  0  0  0  0
 14 13  1  0  0  0  0
 15 17  1  0  0  0  0
 15 14  1  0  0  0  0
 17 19  1  0  0  0  0
 17 16  1  0  0  0  0
 18 17  1  0  0  0  0
M  END
>  <minimizedAffinity>
-2.27758718

$$$$

 OpenBabel09082221143D

 19 20  0  0  0  0  0  0  0  0999 V2000
    2.5140    4.3230   -0.5770 N   0  0  0  0  0  0  0  0  0  0  0  0
    3.4150    4.1450   -1.5990 C   0  0  0  0  0  0  0  0  0  0  0  0
    4.7370    4.1060   -1.4060 N   0  0  0  0  0  0  0  0  0  0  0  0
    2.8100    4.1070   -2.7570 N   0  0  0  0  0  0  0  0  0  0  0  0
    1.4680    4.1040   -2.4790 C   0  0  0  0  0  0  0  0  0  0  0  0
    0.3750    4.0270   -3.3540 C   0  0  0  0  0  3  0  0  0  0  0  0
   -0.9180    4.0510   -2.8200 C   0  0  0  0  0  3  0  0  0  0  0  0
   -1.1200    4.1450   -1.4430 C   0  0  0  0  0  3  0  0  0  0  0  0
   -0.0430    4.2310   -0.5530 C   0  0  0  0  0  3  0  0  0  0  0  0
    1.2450    4.2160   -1.1080 C   0  0  0  0  0  0  0  0  0  0  0  0
    5.3200    3.9440   -2.2260 H   0  0  0  0  0  0  0  0  0  0  0  0
    5.1860    3.8720   -0.5280 H   0  0  0  0  0  0  0  0  0  0  0  0
    2.8240    4.7670    0.7640 C   0  0  0  0  0  2  0  0  0  0  0  0
    3.2120    3.6440    1.7390 C   0  0  0  0  0  2  0  0  0  0  0  0
    2.1420    2.6030    2.0890 C   0  0  0  0  0  2  0  0  0  0  0  0
    3.0310    0.2610    1.7700 C   0  0  0  0  0  1  0  0  0  0  0  0
    2.1810    1.3680    1.2200 N   0  0  0  0  0  4  0  0  0  0  0  0
    0.7810    0.8820    0.9190 C   0  0  0  0  0  1  0  0  0  0  0  0
    2.5530    1.6250    0.2980 H   0  0  0  0  0  0  0  0  0  0  0  0
  1 13  1  0  0  0  0
  2  3  1  0  0  0  0
  2  1  1  0  0  0  0
  3 12  1  0  0  0  0
  4  5  1  0  0  0  0
  4  2  2  0  0  0  0
  5 10  1  0  0  0  0
  6  7  1  0  0  0  0
  6  5  2  0  0  0  0
  7  8  2  0  0  0  0
  8  9  1  0  0  0  0
 10  1  1  0  0  0  0
 10  9  2  0  0  0  0
 11  3  1  0  0  0  0
 13 14  1  0  0  0  0
 14 15  1  0  0  0  0
 17 16  1  0  0  0  0
 17 15  1  0  0  0  0
 18 17  1  0  0  0  0
 19 17  1  0  0  0  0
M  END
>  <minimizedAffinity>
-2.16917276

$$$$

 OpenBabel09082221143D

 19 20  0  0  0  0  0  0  0  0999 V2000
    2.9070    3.8290    1.9390 N   0  0  0  0  0  0  0  0  0  0  0  0
    3.8800    3.5460    2.8680 C   0  0  0  0  0  0  0  0  0  0  0  0
    4.6830    4.4790    3.3880 N   0  0  0  0  0  0  0  0  0  0  0  0
    3.9550    2.2600    3.0910 N   0  0  0  0  0  0  0  0  0  0  0  0
    2.9050    1.7000    2.4130 C   0  0  0  0  0  0  0  0  0  0  0  0
    2.4960    0.3600    2.3500 C   0  0  0  0  0  3  0  0  0  0  0  0
    1.3810    0.0320    1.5710 C   0  0  0  0  0  3  0  0  0  0  0  0
    0.6840    1.0180    0.8710 C   0  0  0  0  0  3  0  0  0  0  0  0
    1.0810    2.3600    0.9140 C   0  0  0  0  0  3  0  0  0  0  0  0
    2.2060    2.6660    1.6920 C   0  0  0  0  0  0  0  0  0  0  0  0
    5.3570    4.1710    4.0890 H   0  0  0  0  0  0  0  0  0  0  0  0
    4.4700    5.4680    3.4280 H   0  0  0  0  0  0  0  0  0  0  0  0
    2.7800    5.0580    1.1870 C   0  0  0  0  0  2  0  0  0  0  0  0
    3.5500    5.0800   -0.1430 C   0  0  0  0  0  2  0  0  0  0  0  0
    2.7490    5.3340   -1.4260 C   0  0  0  0  0  2  0  0  0  0  0  0
    1.1410    3.9030   -2.7450 C   0  0  0  0  0  1  0  0  0  0  0  0
    2.5530    4.1040   -2.2810 N   0  0  0  0  0  4  0  0  0  0  0  0
    3.5170    4.1050   -3.4460 C   0  0  0  0  0  1  0  0  0  0  0  0
    2.8290    3.2780   -1.7370 H   0  0  0  0  0  0  0  0  0  0  0  0
  1  2  1  0  0  0  0
  2  4  2  0  0  0  0
  2  3  1  0  0  0  0
  3 12  1  0  0  0  0
  3 11  1  0  0  0  0
  5  4  1  0  0  0  0
  6  5  1  0  0  0  0
  7  6  2  0  0  0  0
  8  9  2  0  0  0  0
  8  7  1  0  0  0  0
  9 10  1  0  0  0  0
 10  1  1  0  0  0  0
 10  5  2  0  0  0  0
 13  1  1  0  0  0  0
 14 13  1  0  0  0  0
 15 14  1  0  0  0  0
 16 17  1  0  0  0  0
 17 19  1  0  0  0  0
 17 15  1  0  0  0  0
 18 17  1  0  0  0  0
M  END
>  <minimizedAffinity>
-2.15603852

$$$$

 OpenBabel09082221143D

 19 20  0  0  0  0  0  0  0  0999 V2000
    2.8160    4.7760   -0.8050 N   0  0  0  0  0  0  0  0  0  0  0  0
    3.6390    4.1640   -1.7200 C   0  0  0  0  0  0  0  0  0  0  0  0
    4.9360    3.9340   -1.4930 N   0  0  0  0  0  0  0  0  0  0  0  0
    3.0030    3.9280   -2.8370 N   0  0  0  0  0  0  0  0  0  0  0  0
    1.6930    4.2500   -2.5980 C   0  0  0  0  0  0  0  0  0  0  0  0
    0.5800    4.1440   -3.4440 C   0  0  0  0  0  3  0  0  0  0  0  0
   -0.6700    4.5510   -2.9660 C   0  0  0  0  0  3  0  0  0  0  0  0
   -0.8120    5.0490   -1.6710 C   0  0  0  0  0  3  0  0  0  0  0  0
    0.2890    5.1710   -0.8130 C   0  0  0  0  0  3  0  0  0  0  0  0
    1.5340    4.7670   -1.3150 C   0  0  0  0  0  0  0  0  0  0  0  0
    5.4550    3.4510   -2.2250 H   0  0  0  0  0  0  0  0  0  0  0  0
    5.3600    3.8680   -0.5760 H   0  0  0  0  0  0  0  0  0  0  0  0
    3.2430    5.5010    0.3730 C   0  0  0  0  0  2  0  0  0  0  0  0
    3.2460    4.6750    1.6690 C   0  0  0  0  0  2  0  0  0  0  0  0
    3.0070    3.1650    1.5530 C   0  0  0  0  0  2  0  0  0  0  0  0
    0.8250    3.8250    2.6410 C   0  0  0  0  0  1  0  0  0  0  0  0
    1.6720    2.7120    2.0960 N   0  0  0  0  0  4  0  0  0  0  0  0
    0.9180    1.9100    1.0600 C   0  0  0  0  0  1  0  0  0  0  0  0
    1.8360    2.0390    2.8540 H   0  0  0  0  0  0  0  0  0  0  0  0
  1 13  1  0  0  0  0
  2  3  1  0  0  0  0
  2  1  1  0  0  0  0
  3 12  1  0  0  0  0
  4  5  1  0  0  0  0
  4  2  2  0  0  0  0
  5 10  1  0  0  0  0
  6  7  1  0  0  0  0
  6  5  2  0  0  0  0
  7  8  2  0  0  0  0
  8  9  1  0  0  0  0
 10  9  2  0  0  0  0
 10  1  1  0  0  0  0
 11  3  1  0  0  0  0
 13 14  1  0  0  0  0
 15 14  1  0  0  0  0
 15 17  1  0  0  0  0
 17 16  1  0  0  0  0
 17 19  1  0  0  0  0
 18 17  1  0  0  0  0
M  END
>  <minimizedAffinity>
-2.1178937

$$$$

 OpenBabel09082221143D

 19 20  0  0  0  0  0  0  0  0999 V2000
    1.5930    3.9040    0.4810 N   0  0  0  0  0  0  0  0  0  0  0  0
    0.2550    4.0130    0.1880 C   0  0  0  0  0  0  0  0  0  0  0  0
   -0.7020    3.9470    1.1180 N   0  0  0  0  0  0  0  0  0  0  0  0
    0.0640    4.1020   -1.1020 N   0  0  0  0  0  0  0  0  0  0  0  0
    1.3110    4.2100   -1.6590 C   0  0  0  0  0  0  0  0  0  0  0  0
    1.6770    4.3760   -3.0030 C   0  0  0  0  0  3  0  0  0  0  0  0
    3.0360    4.4530   -3.3260 C   0  0  0  0  0  3  0  0  0  0  0  0
    4.0120    4.3710   -2.3330 C   0  0  0  0  0  3  0  0  0  0  0  0
    3.6680    4.1980   -0.9870 C   0  0  0  0  0  3  0  0  0  0  0  0
    2.3010    4.1130   -0.6850 C   0  0  0  0  0  0  0  0  0  0  0  0
   -1.6640    4.0650    0.8020 H   0  0  0  0  0  0  0  0  0  0  0  0
   -0.5660    4.1410    2.1030 H   0  0  0  0  0  0  0  0  0  0  0  0
    2.1560    3.4330    1.7280 C   0  0  0  0  0  2  0  0  0  0  0  0
    2.6040    1.9630    1.7160 C   0  0  0  0  0  2  0  0  0  0  0  0
    1.5200    0.8860    1.8430 C   0  0  0  0  0  2  0  0  0  0  0  0
    1.5020   -1.3280    0.6290 C   0  0  0  0  0  1  0  0  0  0  0  0
    1.2360    0.1460    0.5560 N   0  0  0  0  0  4  0  0  0  0  0  0
   -0.1720    0.4250    0.0810 C   0  0  0  0  0  1  0  0  0  0  0  0
    1.8270    0.5380   -0.1860 H   0  0  0  0  0  0  0  0  0  0  0  0
  1 13  1  0  0  0  0
  2  1  1  0  0  0  0
  2  3  1  0  0  0  0
  3 12  1  0  0  0  0
  4  2  2  0  0  0  0
  5  4  1  0  0  0  0
  5 10  1  0  0  0  0
  6  5  2  0  0  0  0
  7  6  1  0  0  0  0
  7  8  2  0  0  0  0
  8  9  1  0  0  0  0
  9 10  2  0  0  0  0
 10  1  1  0  0  0  0
 11  3  1  0  0  0  0
 14 13  1  0  0  0  0
 14 15  1  0  0  0  0
 17 16  1  0  0  0  0
 17 15  1  0  0  0  0
 18 17  1  0  0  0  0
 19 17  1  0  0  0  0
M  END
>  <minimizedAffinity>
-2.0957303

$$$$

 OpenBabel09082221143D

 19 20  0  0  0  0  0  0  0  0999 V2000
    1.1230    3.5870    0.1210 N   0  0  0  0  0  0  0  0  0  0  0  0
   -0.0810    3.9280   -0.4470 C   0  0  0  0  0  0  0  0  0  0  0  0
   -1.2510    3.7780    0.1820 N   0  0  0  0  0  0  0  0  0  0  0  0
    0.0790    4.3250   -1.6820 N   0  0  0  0  0  0  0  0  0  0  0  0
    1.4320    4.3960   -1.8810 C   0  0  0  0  0  0  0  0  0  0  0  0
    2.1470    4.8090   -3.0140 C   0  0  0  0  0  3  0  0  0  0  0  0
    3.5460    4.7830   -2.9740 C   0  0  0  0  0  3  0  0  0  0  0  0
    4.2200    4.3590   -1.8290 C   0  0  0  0  0  3  0  0  0  0  0  0
    3.5240    3.9350   -0.6900 C   0  0  0  0  0  3  0  0  0  0  0  0
    2.1240    3.9590   -0.7530 C   0  0  0  0  0  0  0  0  0  0  0  0
   -2.0870    4.0840   -0.3160 H   0  0  0  0  0  0  0  0  0  0  0  0
   -1.3650    3.7290    1.1870 H   0  0  0  0  0  0  0  0  0  0  0  0
    1.3070    2.7830    1.3090 C   0  0  0  0  0  2  0  0  0  0  0  0
    1.9200    3.5310    2.5030 C   0  0  0  0  0  2  0  0  0  0  0  0
    3.2890    3.0630    3.0120 C   0  0  0  0  0  2  0  0  0  0  0  0
    3.8420    5.5010    2.6590 C   0  0  0  0  0  1  0  0  0  0  0  0
    4.3620    4.1240    2.9510 N   0  0  0  0  0  4  0  0  0  0  0  0
    5.1980    4.1110    4.2100 C   0  0  0  0  0  1  0  0  0  0  0  0
    5.0300    3.8750    2.2120 H   0  0  0  0  0  0  0  0  0  0  0  0
  1 13  1  0  0  0  0
  2  1  1  0  0  0  0
  2  3  1  0  0  0  0
  3 12  1  0  0  0  0
  4  2  2  0  0  0  0
  5  4  1  0  0  0  0
  5 10  1  0  0  0  0
  6  7  1  0  0  0  0
  6  5  2  0  0  0  0
  7  8  2  0  0  0  0
  8  9  1  0  0  0  0
 10  9  2  0  0  0  0
 10  1  1  0  0  0  0
 11  3  1  0  0  0  0
 13 14  1  0  0  0  0
 14 15  1  0  0  0  0
 16 17  1  0  0  0  0
 17 15  1  0  0  0  0
 17 18  1  0  0  0  0
 19 17  1  0  0  0  0
M  END
>  <minimizedAffinity>
-2.07598448

$$$$

 OpenBabel09082221143D

 19 20  0  0  0  0  0  0  0  0999 V2000
    2.8790    4.7260   -0.6990 N   0  0  0  0  0  0  0  0  0  0  0  0
    3.6770    4.1630   -1.6640 C   0  0  0  0  0  0  0  0  0  0  0  0
    4.9780    3.9170   -1.4800 N   0  0  0  0  0  0  0  0  0  0  0  0
    3.0160    3.9890   -2.7770 N   0  0  0  0  0  0  0  0  0  0  0  0
    1.7130    4.3010   -2.4920 C   0  0  0  0  0  0  0  0  0  0  0  0
    0.5800    4.2440   -3.3160 C   0  0  0  0  0  3  0  0  0  0  0  0
   -0.6570    4.6280   -2.7880 C   0  0  0  0  0  3  0  0  0  0  0  0
   -0.7670    5.0560   -1.4640 C   0  0  0  0  0  3  0  0  0  0  0  0
    0.3530    5.1280   -0.6270 C   0  0  0  0  0  3  0  0  0  0  0  0
    1.5850    4.7490   -1.1790 C   0  0  0  0  0  0  0  0  0  0  0  0
    5.4790    3.4730   -2.2500 H   0  0  0  0  0  0  0  0  0  0  0  0
    5.4230    3.8000   -0.5780 H   0  0  0  0  0  0  0  0  0  0  0  0
    3.3350    5.3850    0.5060 C   0  0  0  0  0  2  0  0  0  0  0  0
    3.3370    4.4980    1.7620 C   0  0  0  0  0  2  0  0  0  0  0  0
    4.0800    5.0160    2.9990 C   0  0  0  0  0  2  0  0  0  0  0  0
    5.1950    4.3640    5.1690 C   0  0  0  0  0  1  0  0  0  0  0  0
    4.7760    3.9360    3.7930 N   0  0  0  0  0  4  0  0  0  0  0  0
    3.9300    2.6830    3.8450 C   0  0  0  0  0  1  0  0  0  0  0  0
    5.6170    3.6420    3.2840 H   0  0  0  0  0  0  0  0  0  0  0  0
  1 13  1  0  0  0  0
  2  3  1  0  0  0  0
  2  1  1  0  0  0  0
  3 12  1  0  0  0  0
  4  5  1  0  0  0  0
  4  2  2  0  0  0  0
  5 10  1  0  0  0  0
  6  7  1  0  0  0  0
  6  5  2  0  0  0  0
  7  8  2  0  0  0  0
  8  9  1  0  0  0  0
 10  1  1  0  0  0  0
 10  9  2  0  0  0  0
 11  3  1  0  0  0  0
 13 14  1  0  0  0  0
 14 15  1  0  0  0  0
 15 17  1  0  0  0  0
 17 18  1  0  0  0  0
 17 16  1  0  0  0  0
 19 17  1  0  0  0  0
M  END
>  <minimizedAffinity>
-2.02440333

$$$$

 OpenBabel09082221143D

 19 20  0  0  0  0  0  0  0  0999 V2000
    1.4660    3.5610    0.4810 N   0  0  0  0  0  0  0  0  0  0  0  0
    2.4790    2.7800    0.9840 C   0  0  0  0  0  0  0  0  0  0  0  0
    2.3240    1.9800    2.0430 N   0  0  0  0  0  0  0  0  0  0  0  0
    3.5990    2.9970    0.3470 N   0  0  0  0  0  0  0  0  0  0  0  0
    3.2820    3.8230   -0.6990 C   0  0  0  0  0  0  0  0  0  0  0  0
    4.1020    4.3270   -1.7190 C   0  0  0  0  0  3  0  0  0  0  0  0
    3.5370    5.1700   -2.6820 C   0  0  0  0  0  3  0  0  0  0  0  0
    2.1820    5.5010   -2.6350 C   0  0  0  0  0  3  0  0  0  0  0  0
    1.3490    5.0150   -1.6210 C   0  0  0  0  0  3  0  0  0  0  0  0
    1.9360    4.1800   -0.6600 C   0  0  0  0  0  0  0  0  0  0  0  0
    3.1290    1.4220    2.3250 H   0  0  0  0  0  0  0  0  0  0  0  0
    1.4360    1.6130    2.3650 H   0  0  0  0  0  0  0  0  0  0  0  0
    0.2140    3.8610    1.1400 C   0  0  0  0  0  2  0  0  0  0  0  0
    0.1940    5.1970    1.9010 C   0  0  0  0  0  2  0  0  0  0  0  0
    1.1800    5.3710    3.0610 C   0  0  0  0  0  2  0  0  0  0  0  0
    2.0110    4.1210    5.0920 C   0  0  0  0  0  1  0  0  0  0  0  0
    0.8240    4.5730    4.2940 N   0  0  0  0  0  4  0  0  0  0  0  0
   -0.1560    5.3340    5.1570 C   0  0  0  0  0  1  0  0  0  0  0  0
    0.3000    3.7390    4.0060 H   0  0  0  0  0  0  0  0  0  0  0  0
  1  2  1  0  0  0  0
  1 13  1  0  0  0  0
  2  3  1  0  0  0  0
  3 11  1  0  0  0  0
  3 12  1  0  0  0  0
  4  2  2  0  0  0  0
  5 10  1  0  0  0  0
  5  4  1  0  0  0  0
  6  5  2  0  0  0  0
  7  8  2  0  0  0  0
  7  6  1  0  0  0  0
  8  9  1  0  0  0  0
  9 10  2  0  0  0  0
 10  1  1  0  0  0  0
 13 14  1  0  0  0  0
 14 15  1  0  0  0  0
 15 17  1  0  0  0  0
 17 16  1  0  0  0  0
 17 18  1  0  0  0  0
 19 17  1  0  0  0  0
M  END
>  <minimizedAffinity>
-1.94912529

$$$$

 OpenBabel09082221143D

 19 20  0  0  0  0  0  0  0  0999 V2000
    2.2780    1.4900    2.2480 N   0  0  0  0  0  0  0  0  0  0  0  0
    2.0220    0.4330    1.4070 C   0  0  0  0  0  0  0  0  0  0  0  0
    1.1340    0.4960    0.4100 N   0  0  0  0  0  0  0  0  0  0  0  0
    2.6890   -0.6290    1.7720 N   0  0  0  0  0  0  0  0  0  0  0  0
    3.5220   -0.2200    2.7810 C   0  0  0  0  0  0  0  0  0  0  0  0
    4.4820   -0.9500    3.4960 C   0  0  0  0  0  3  0  0  0  0  0  0
    5.2110   -0.3020    4.4990 C   0  0  0  0  0  3  0  0  0  0  0  0
    4.9920    1.0470    4.7830 C   0  0  0  0  0  3  0  0  0  0  0  0
    4.0320    1.7910    4.0860 C   0  0  0  0  0  3  0  0  0  0  0  0
    3.3060    1.1200    3.0910 C   0  0  0  0  0  0  0  0  0  0  0  0
    1.0340   -0.3340   -0.1740 H   0  0  0  0  0  0  0  0  0  0  0  0
    0.8230    1.3510   -0.0350 H   0  0  0  0  0  0  0  0  0  0  0  0
    1.4750    2.6860    2.3820 C   0  0  0  0  0  2  0  0  0  0  0  0
    1.9990    3.9030    1.6040 C   0  0  0  0  0  2  0  0  0  0  0  0
    3.2500    3.7110    0.7390 C   0  0  0  0  0  2  0  0  0  0  0  0
    1.6460    4.2220   -1.1430 C   0  0  0  0  0  1  0  0  0  0  0  0
    2.9650    3.6310   -0.7420 N   0  0  0  0  0  4  0  0  0  0  0  0
    4.0990    4.2360   -1.5370 C   0  0  0  0  0  1  0  0  0  0  0  0
    2.9680    2.6440   -1.0250 H   0  0  0  0  0  0  0  0  0  0  0  0
  1 13  1  0  0  0  0
  1 10  1  0  0  0  0
  2  4  2  0  0  0  0
  2  1  1  0  0  0  0
  3  2  1  0  0  0  0
  4  5  1  0  0  0  0
  5 10  2  0  0  0  0
  5  6  1  0  0  0  0
  6  7  2  0  0  0  0
  7  8  1  0  0  0  0
  9  8  2  0  0  0  0
 10  9  1  0  0  0  0
 11  3  1  0  0  0  0
 12  3  1  0  0  0  0
 14 13  1  0  0  0  0
 15 14  1  0  0  0  0
 16 17  1  0  0  0  0
 17 15  1  0  0  0  0
 18 17  1  0  0  0  0
 19 17  1  0  0  0  0
M  END
>  <minimizedAffinity>
-1.87880313

$$$$
