
 OpenBabel09092210413D

 19 20  0  0  0  0  0  0  0  0999 V2000
    2.9070    3.8290    1.9390 N   0  0  0  0  0  0  0  0  0  0  0  0
    3.8800    3.5460    2.8680 C   0  0  0  0  0  0  0  0  0  0  0  0
    4.6830    4.4790    3.3880 N   0  0  0  0  0  0  0  0  0  0  0  0
    3.9550    2.2600    3.0910 N   0  0  0  0  0  0  0  0  0  0  0  0
    2.9050    1.7000    2.4130 C   0  0  0  0  0  0  0  0  0  0  0  0
    2.4960    0.3600    2.3500 C   0  0  0  0  0  3  0  0  0  0  0  0
    1.3810    0.0320    1.5710 C   0  0  0  0  0  3  0  0  0  0  0  0
    0.6840    1.0180    0.8710 C   0  0  0  0  0  3  0  0  0  0  0  0
    1.0810    2.3600    0.9140 C   0  0  0  0  0  3  0  0  0  0  0  0
    2.2060    2.6660    1.6920 C   0  0  0  0  0  0  0  0  0  0  0  0
    5.3570    4.1710    4.0890 H   0  0  0  0  0  0  0  0  0  0  0  0
    4.4700    5.4680    3.4280 H   0  0  0  0  0  0  0  0  0  0  0  0
    2.7800    5.0580    1.1870 C   0  0  0  0  0  2  0  0  0  0  0  0
    3.5500    5.0800   -0.1430 C   0  0  0  0  0  2  0  0  0  0  0  0
    2.7490    5.3340   -1.4260 C   0  0  0  0  0  2  0  0  0  0  0  0
    1.1410    3.9030   -2.7450 C   0  0  0  0  0  1  0  0  0  0  0  0
    2.5530    4.1040   -2.2810 N   0  0  0  0  0  4  0  0  0  0  0  0
    3.5170    4.1050   -3.4460 C   0  0  0  0  0  1  0  0  0  0  0  0
    2.8290    3.2780   -1.7370 H   0  0  0  0  0  0  0  0  0  0  0  0
  1  2  1  0  0  0  0
  2  4  2  0  0  0  0
  2  3  1  0  0  0  0
  3 12  1  0  0  0  0
  3 11  1  0  0  0  0
  5  4  1  0  0  0  0
  6  5  1  0  0  0  0
  7  6  2  0  0  0  0
  8  9  2  0  0  0  0
  8  7  1  0  0  0  0
  9 10  1  0  0  0  0
 10  1  1  0  0  0  0
 10  5  2  0  0  0  0
 13  1  1  0  0  0  0
 14 13  1  0  0  0  0
 15 14  1  0  0  0  0
 16 17  1  0  0  0  0
 17 19  1  0  0  0  0
 17 15  1  0  0  0  0
 18 17  1  0  0  0  0
M  END
>  <minimizedAffinity>
-2.15603852

$$$$
