REMARK  Name = 
REMARK  6 active torsions:
REMARK  status: ('A' for Active; 'I' for Inactive)
REMARK    1  A    between atoms: C_1  and  N_2
REMARK    2  A    between atoms: N_2  and  C_3
REMARK    3  A    between atoms: N_2  and  C_4
REMARK    4  A    between atoms: C_4  and  C_5
REMARK    5  A    between atoms: C_5  and  C_6
REMARK    6  A    between atoms: C_6  and  N_7
REMARK                            x       y       z     vdW  Elec       q    Type
REMARK                         _______ _______ _______ _____ _____    ______ ____
ROOT
ATOM      1  N   UNL     1      -1.093  -2.213   3.276  0.00  0.00    -0.312 N 
ATOM      2  C   UNL     1      -2.429  -2.514   3.162  0.00  0.00    +0.194 A 
ATOM      3  N   UNL     1      -2.889  -3.502   2.388  0.00  0.00    -0.329 N 
ATOM      4  N   UNL     1      -3.160  -1.664   3.833  0.00  0.00    -0.215 NA
ATOM      5  C   UNL     1      -2.279  -0.880   4.530  0.00  0.00    +0.091 A 
ATOM      6  C   UNL     1      -2.533   0.158   5.438  0.00  0.00    +0.030 A 
ATOM      7  C   UNL     1      -1.449   0.823   6.021  0.00  0.00    +0.002 A 
ATOM      8  C   UNL     1      -0.138   0.460   5.711  0.00  0.00    +0.002 A 
ATOM      9  C   UNL     1       0.137  -0.568   4.801  0.00  0.00    +0.028 A 
ATOM     10  C   UNL     1      -0.963  -1.215   4.220  0.00  0.00    +0.070 A 
ATOM     11  H   UNL     1      -3.896  -3.662   2.391  0.00  0.00    +0.145 HD
ATOM     12  H   UNL     1      -2.346  -4.303   2.089  0.00  0.00    +0.145 HD
ENDROOT
BRANCH   1  13
ATOM     13  C   UNL     1      -0.036  -2.687   2.409  0.00  0.00    +0.130 C 
BRANCH  13  14
ATOM     14  C   UNL     1      -0.217  -2.335   0.924  0.00  0.00    +0.072 C 
BRANCH  14  15
ATOM     15  C   UNL     1      -0.866  -0.988   0.585  0.00  0.00    +0.132 C 
BRANCH  15  17
ATOM     16  C   UNL     1       1.194   0.473   0.596  0.00  0.00    +0.190 C 
ATOM     17  N   UNL     1      -0.158   0.203   1.188  0.00  0.00    +0.231 N 
ATOM     18  C   UNL     1      -1.036   1.432   1.128  0.00  0.00    +0.190 C 
ATOM     19  H   UNL     1      -0.036   0.039   2.194  0.00  0.00    +0.203 HD
ENDBRANCH  15  17
ENDBRANCH  14  15
ENDBRANCH  13  14
ENDBRANCH   1  13
TORSDOF 4
