@<TRIPOS>MOLECULE
*****
 16 17 0 0 0
SMALL
GASTEIGER

@<TRIPOS>ATOM
      1 C           0.0000    0.0000    0.0000 C.3     1  UNL11       0.0897
      2 N           0.0000    0.0000    0.0000 N.3     1  UNL11      -0.2703
      3 C           0.0000    0.0000    0.0000 C.3     1  UNL11       0.0897
      4 C           0.0000    0.0000    0.0000 C.3     1  UNL11       0.0742
      5 C           0.0000    0.0000    0.0000 C.3     1  UNL11       0.0419
      6 C           0.0000    0.0000    0.0000 C.3     1  UNL11       0.1103
      7 N           0.0000    0.0000    0.0000 N.ar    1  UNL11      -0.2971
      8 C           0.0000    0.0000    0.0000 C.ar    1  UNL11       0.2379
      9 N           0.0000    0.0000    0.0000 N.pl3   1  UNL11      -0.0878
     10 N           0.0000    0.0000    0.0000 N.ar    1  UNL11      -0.2111
     11 C           0.0000    0.0000    0.0000 C.ar    1  UNL11       0.1000
     12 C           0.0000    0.0000    0.0000 C.ar    1  UNL11       0.0207
     13 C           0.0000    0.0000    0.0000 C.ar    1  UNL11       0.0016
     14 C           0.0000    0.0000    0.0000 C.ar    1  UNL11       0.0016
     15 C           0.0000    0.0000    0.0000 C.ar    1  UNL11       0.0188
     16 C           0.0000    0.0000    0.0000 C.ar    1  UNL11       0.0799
@<TRIPOS>BOND
     1     1     2    1
     2     2     3    1
     3     2     4    1
     4     4     5    1
     5     5     6    1
     6     6     7    1
     7     7     8   ar
     8     8     9    1
     9     8    10   ar
    10    10    11   ar
    11    11    12   ar
    12    12    13   ar
    13    13    14   ar
    14    14    15   ar
    15    15    16   ar
    16    11    16   ar
    17     7    16   ar
