
 OpenBabel09092210413D

 19 20  0  0  0  0  0  0  0  0999 V2000
    3.0970    3.2530    1.5080 N   0  0  0  0  0  0  0  0  0  0  0  0
    3.8310    3.8020    2.5330 C   0  0  0  0  0  0  0  0  0  0  0  0
    4.3380    5.0380    2.4840 N   0  0  0  0  0  0  0  0  0  0  0  0
    4.0230    2.9330    3.4890 N   0  0  0  0  0  0  0  0  0  0  0  0
    3.2690    1.8390    3.1590 C   0  0  0  0  0  0  0  0  0  0  0  0
    3.0780    0.6410    3.8630 C   0  0  0  0  0  3  0  0  0  0  0  0
    2.2560   -0.3440    3.3050 C   0  0  0  0  0  3  0  0  0  0  0  0
    1.6310   -0.1400    2.0750 C   0  0  0  0  0  3  0  0  0  0  0  0
    1.8140    1.0460    1.3530 C   0  0  0  0  0  3  0  0  0  0  0  0
    2.6510    2.0160    1.9240 C   0  0  0  0  0  0  0  0  0  0  0  0
    4.8470    5.3630    3.3060 H   0  0  0  0  0  0  0  0  0  0  0  0
    3.9870    5.7840    1.8960 H   0  0  0  0  0  0  0  0  0  0  0  0
    2.9980    3.7690    0.1600 C   0  0  0  0  0  2  0  0  0  0  0  0
    1.6970    4.5300   -0.1420 C   0  0  0  0  0  2  0  0  0  0  0  0
    1.1440    4.4570   -1.5700 C   0  0  0  0  0  2  0  0  0  0  0  0
   -0.4760    2.5690   -1.1330 C   0  0  0  0  0  1  0  0  0  0  0  0
    0.6590    3.0830   -1.9700 N   0  0  0  0  0  4  0  0  0  0  0  0
    0.3130    3.0470   -3.4410 C   0  0  0  0  0  1  0  0  0  0  0  0
    1.4390    2.4210   -1.8860 H   0  0  0  0  0  0  0  0  0  0  0  0
  1 10  1  0  0  0  0
  1  2  1  0  0  0  0
  2  4  2  0  0  0  0
  3  2  1  0  0  0  0
  3 11  1  0  0  0  0
  5  4  1  0  0  0  0
  5  6  1  0  0  0  0
  7  6  2  0  0  0  0
  8  7  1  0  0  0  0
  9 10  1  0  0  0  0
  9  8  2  0  0  0  0
 10  5  2  0  0  0  0
 12  3  1  0  0  0  0
 13  1  1  0  0  0  0
 14 13  1  0  0  0  0
 15 14  1  0  0  0  0
 17 19  1  0  0  0  0
 17 15  1  0  0  0  0
 17 16  1  0  0  0  0
 18 17  1  0  0  0  0
M  END
>  <minimizedAffinity>
-1.79906964

$$$$
