
 OpenBabel09092210413D

 19 20  0  0  0  0  0  0  0  0999 V2000
    0.7510    4.0770   -0.1770 N   0  0  0  0  0  0  0  0  0  0  0  0
   -0.2860    4.3210   -1.0440 C   0  0  0  0  0  0  0  0  0  0  0  0
   -1.5620    4.3930   -0.6510 N   0  0  0  0  0  0  0  0  0  0  0  0
    0.1390    4.3850   -2.2780 N   0  0  0  0  0  0  0  0  0  0  0  0
    1.5070    4.3370   -2.2060 C   0  0  0  0  0  0  0  0  0  0  0  0
    2.4580    4.4140   -3.2330 C   0  0  0  0  0  3  0  0  0  0  0  0
    3.8150    4.3300   -2.9020 C   0  0  0  0  0  3  0  0  0  0  0  0
    4.2180    4.1780   -1.5750 C   0  0  0  0  0  3  0  0  0  0  0  0
    3.2840    4.0900   -0.5360 C   0  0  0  0  0  3  0  0  0  0  0  0
    1.9290    4.1660   -0.8900 C   0  0  0  0  0  0  0  0  0  0  0  0
   -2.2560    4.6040   -1.3680 H   0  0  0  0  0  0  0  0  0  0  0  0
   -1.8660    4.6060    0.2910 H   0  0  0  0  0  0  0  0  0  0  0  0
    0.6300    3.5910    1.1810 C   0  0  0  0  0  2  0  0  0  0  0  0
    0.5890    2.0610    1.3140 C   0  0  0  0  0  2  0  0  0  0  0  0
    1.3260    1.4290    2.5010 C   0  0  0  0  0  2  0  0  0  0  0  0
    3.6050    1.8580    3.5000 C   0  0  0  0  0  1  0  0  0  0  0  0
    2.8240    1.3530    2.3230 N   0  0  0  0  0  4  0  0  0  0  0  0
    3.2470   -0.0490    1.9490 C   0  0  0  0  0  1  0  0  0  0  0  0
    3.0870    1.9140    1.5050 H   0  0  0  0  0  0  0  0  0  0  0  0
  1 13  1  0  0  0  0
  2  3  1  0  0  0  0
  2  1  1  0  0  0  0
  3 12  1  0  0  0  0
  4  5  1  0  0  0  0
  4  2  2  0  0  0  0
  5 10  1  0  0  0  0
  6  7  1  0  0  0  0
  6  5  2  0  0  0  0
  7  8  2  0  0  0  0
  8  9  1  0  0  0  0
 10  9  2  0  0  0  0
 10  1  1  0  0  0  0
 11  3  1  0  0  0  0
 13 14  1  0  0  0  0
 14 15  1  0  0  0  0
 17 15  1  0  0  0  0
 17 16  1  0  0  0  0
 18 17  1  0  0  0  0
 19 17  1  0  0  0  0
M  END
>  <minimizedAffinity>
-1.82536793

$$$$
