
 OpenBabel09092210413D

 19 20  0  0  0  0  0  0  0  0999 V2000
    1.5070    3.7970    0.4050 N   0  0  0  0  0  0  0  0  0  0  0  0
    0.1890    3.8900    0.0250 C   0  0  0  0  0  0  0  0  0  0  0  0
   -0.8270    3.7710    0.8860 N   0  0  0  0  0  0  0  0  0  0  0  0
    0.0830    4.0220   -1.2710 N   0  0  0  0  0  0  0  0  0  0  0  0
    1.3610    4.1750   -1.7380 C   0  0  0  0  0  0  0  0  0  0  0  0
    1.8130    4.3970   -3.0470 C   0  0  0  0  0  3  0  0  0  0  0  0
    3.1880    4.5120   -3.2750 C   0  0  0  0  0  3  0  0  0  0  0  0
    4.0970    4.4140   -2.2210 C   0  0  0  0  0  3  0  0  0  0  0  0
    3.6680    4.1850   -0.9080 C   0  0  0  0  0  3  0  0  0  0  0  0
    2.2860    4.0620   -0.7030 C   0  0  0  0  0  0  0  0  0  0  0  0
   -1.7680    3.8810    0.5090 H   0  0  0  0  0  0  0  0  0  0  0  0
   -0.7610    3.9320    1.8840 H   0  0  0  0  0  0  0  0  0  0  0  0
    1.9950    3.2910    1.6700 C   0  0  0  0  0  2  0  0  0  0  0  0
    2.4870    1.8360    1.6330 C   0  0  0  0  0  2  0  0  0  0  0  0
    1.4370    0.7250    1.7510 C   0  0  0  0  0  2  0  0  0  0  0  0
    1.4650   -1.4690    0.5000 C   0  0  0  0  0  1  0  0  0  0  0  0
    1.1630    0.0000    0.4530 N   0  0  0  0  0  4  0  0  0  0  0  0
   -0.2530    0.2530   -0.0100 C   0  0  0  0  0  1  0  0  0  0  0  0
    1.7400    0.4190   -0.2860 H   0  0  0  0  0  0  0  0  0  0  0  0
  1 13  1  0  0  0  0
  2  1  1  0  0  0  0
  2  3  1  0  0  0  0
  3 12  1  0  0  0  0
  4  2  2  0  0  0  0
  5  4  1  0  0  0  0
  5 10  1  0  0  0  0
  6  5  2  0  0  0  0
  7  6  1  0  0  0  0
  7  8  2  0  0  0  0
  8  9  1  0  0  0  0
  9 10  2  0  0  0  0
 10  1  1  0  0  0  0
 11  3  1  0  0  0  0
 14 13  1  0  0  0  0
 14 15  1  0  0  0  0
 17 16  1  0  0  0  0
 17 15  1  0  0  0  0
 18 17  1  0  0  0  0
 19 17  1  0  0  0  0
M  END
>  <minimizedAffinity>
-2.09760189

$$$$
