
 OpenBabel09122221113D

 39 44  0  0  1  0  0  0  0  0999 V2000
   10.2330    2.6220    0.5490 C   0  0  0  0  0  0  0  0  0  0  0  0
    9.4740    1.6410    1.1940 C   0  0  0  0  0  3  0  0  0  0  0  0
    9.4790    0.3260    0.7190 C   0  0  0  0  0  3  0  0  0  0  0  0
   10.2100   -0.0180   -0.4230 C   0  0  0  0  0  0  0  0  0  0  0  0
   10.9540    0.9610   -1.0750 C   0  0  0  0  0  3  0  0  0  0  0  0
   10.9630    2.2660   -0.5860 C   0  0  0  0  0  0  0  0  0  0  0  0
   11.7370    3.1700   -1.2070 F   0  0  0  0  0  0  0  0  0  0  0  0
    9.9340    8.3660    2.2060 C   0  0  0  0  0  0  0  0  0  0  0  0
   10.7930    7.9540    3.2390 C   0  0  0  0  0  3  0  0  0  0  0  0
   11.2300    6.6300    3.3620 C   0  0  0  0  0  3  0  0  0  0  0  0
   10.7810    5.7080    2.4080 C   0  0  0  0  0  0  0  0  0  0  0  0
    9.9260    6.0780    1.3730 C   0  0  0  0  0  0  0  0  0  0  0  0
    9.4990    7.4120    1.2660 C   0  0  0  0  0  3  0  0  0  0  0  0
    9.6180    4.9970    0.5820 N   0  0  0  0  0  0  0  0  0  0  0  0
   10.2820    3.9760    1.0850 C   0  0  0  0  0  0  0  0  0  0  0  0
   10.9900    4.3580    2.2130 N   0  0  0  0  0  0  0  0  0  0  0  0
   11.7700    3.4620    3.0630 C   0  0  0  0  0  3  0  0  0  0  0  0
   13.2130    3.9430    3.2830 C   0  0  0  0  0  2  0  0  0  0  0  0
   14.0030    2.9470    4.1320 C   0  0  0  0  0  2  0  0  0  0  0  0
   13.2950    2.6390    5.4490 C   0  0  0  0  0  2  0  0  0  0  0  0
   11.8690    2.1460    5.2220 C   0  0  0  0  0  2  0  0  0  0  0  0
   11.0590    3.1350    4.3850 C   0  0  0  0  0  2  0  0  0  0  0  0
    8.7540   10.2530    3.0530 O   0  0  0  0  0  1  0  0  0  0  0  0
    9.4840    9.8110    2.1090 C   0  0  0  0  0  0  0  0  0  0  0  0
    9.8670   10.4740    1.0950 O   0  0  0  0  0  0  0  0  0  0  0  0
   10.1900   -1.3450   -0.7450 O   0  0  0  0  0  0  0  0  0  0  0  0
   10.5860   -2.3420    0.2250 C   0  0  1  0  0  3  0  0  0  0  0  0
    9.4800   -3.3600    0.5070 C   0  0  0  0  0  0  0  0  0  0  0  0
    9.0440   -4.3050   -0.4360 C   0  0  0  0  0  3  0  0  0  0  0  0
    8.0150   -5.1990   -0.1290 C   0  0  0  0  0  3  0  0  0  0  0  0
    7.3990   -5.1570    1.1190 C   0  0  0  0  0  3  0  0  0  0  0  0
    7.8060   -4.2190    2.0620 C   0  0  0  0  0  3  0  0  0  0  0  0
    8.8350   -3.3260    1.7580 C   0  0  0  0  0  3  0  0  0  0  0  0
   12.0230   -2.8320    0.0960 C   0  0  0  0  0  0  0  0  0  0  0  0
   12.7990   -2.6140   -1.0510 C   0  0  0  0  0  3  0  0  0  0  0  0
   14.1200   -3.0510   -1.1000 C   0  0  0  0  0  3  0  0  0  0  0  0
   14.6470   -3.6720    0.0190 C   0  0  0  0  0  3  0  0  0  0  0  0
   13.9560   -3.8640    1.1600 N   0  0  0  0  0  0  0  0  0  0  0  0
   12.6710   -3.4340    1.1750 C   0  0  0  0  0  3  0  0  0  0  0  0
  1 15  1  0  0  0  0
  1  2  1  0  0  0  0
  3  2  2  0  0  0  0
  4  3  1  0  0  0  0
  5  6  1  0  0  0  0
  5  4  2  0  0  0  0
  6  1  2  0  0  0  0
  7  6  1  0  0  0  0
  8  9  1  0  0  0  0
  9 10  2  0  0  0  0
 11 10  1  0  0  0  0
 12 11  2  0  0  0  0
 13 12  1  0  0  0  0
 13  8  2  0  0  0  0
 14 15  2  0  0  0  0
 14 12  1  0  0  0  0
 15 16  1  0  0  0  0
 16 11  1  0  0  0  0
 16 17  1  0  0  0  0
 17 18  1  0  0  0  0
 17 22  1  0  0  0  0
 18 19  1  0  0  0  0
 19 20  1  0  0  0  0
 21 20  1  0  0  0  0
 22 21  1  0  0  0  0
 24  8  1  0  0  0  0
 24 23  1  0  0  0  0
 25 24  2  0  0  0  0
 26  4  1  0  0  0  0
 27 26  1  6  0  0  0
 27 28  1  0  0  0  0
 28 33  1  0  0  0  0
 29 30  1  0  0  0  0
 29 28  2  0  0  0  0
 30 31  2  0  0  0  0
 31 32  1  0  0  0  0
 33 32  2  0  0  0  0
 34 27  1  0  0  0  0
 34 39  1  0  0  0  0
 35 34  2  0  0  0  0
 36 35  1  0  0  0  0
 36 37  2  0  0  0  0
 37 38  1  0  0  0  0
 38 39  2  0  0  0  0
M  END
>  <minimizedAffinity>
-8.8966217

$$$$

 OpenBabel09122221113D

 39 44  0  0  1  0  0  0  0  0999 V2000
    6.3320    2.4000   11.9160 C   0  0  0  0  0  0  0  0  0  0  0  0
    4.9460    2.4010   11.7320 C   0  0  0  0  0  3  0  0  0  0  0  0
    4.2220    1.2110   11.8580 C   0  0  0  0  0  3  0  0  0  0  0  0
    4.8740    0.0040   12.1300 C   0  0  0  0  0  0  0  0  0  0  0  0
    6.2550   -0.0010   12.2980 C   0  0  0  0  0  3  0  0  0  0  0  0
    6.9720    1.1900   12.1930 C   0  0  0  0  0  0  0  0  0  0  0  0
    8.2940    1.1570   12.4180 F   0  0  0  0  0  0  0  0  0  0  0  0
    9.2240    7.6190   12.3940 C   0  0  0  0  0  0  0  0  0  0  0  0
    9.5800    7.3700   11.0580 C   0  0  0  0  0  3  0  0  0  0  0  0
    9.1600    6.2210   10.3750 C   0  0  0  0  0  3  0  0  0  0  0  0
    8.3570    5.3110   11.0740 C   0  0  0  0  0  0  0  0  0  0  0  0
    7.9880    5.5210   12.4000 C   0  0  0  0  0  0  0  0  0  0  0  0
    8.4190    6.6800   13.0670 C   0  0  0  0  0  3  0  0  0  0  0  0
    7.2180    4.4830   12.8650 N   0  0  0  0  0  0  0  0  0  0  0  0
    7.0780    3.6510   11.8540 C   0  0  0  0  0  0  0  0  0  0  0  0
    7.7740    4.1040   10.7450 N   0  0  0  0  0  0  0  0  0  0  0  0
    7.9000    3.3900    9.4770 C   0  0  0  0  0  3  0  0  0  0  0  0
    7.7410    4.3020    8.2510 C   0  0  0  0  0  2  0  0  0  0  0  0
    7.8260    3.5010    6.9520 C   0  0  0  0  0  2  0  0  0  0  0  0
    9.1030    2.6670    6.8830 C   0  0  0  0  0  2  0  0  0  0  0  0
    9.2460    1.7510    8.0960 C   0  0  0  0  0  2  0  0  0  0  0  0
    9.1760    2.5360    9.4050 C   0  0  0  0  0  2  0  0  0  0  0  0
    8.8110    9.7100   13.4560 O   0  0  0  0  0  1  0  0  0  0  0  0
    9.7010    8.8760   13.0950 C   0  0  0  0  0  0  0  0  0  0  0  0
   10.9540    9.0070   13.2690 O   0  0  0  0  0  0  0  0  0  0  0  0
    4.0500   -1.0730   12.2970 O   0  0  0  0  0  0  0  0  0  0  0  0
    3.1300   -1.4630   11.2520 C   0  0  1  0  0  3  0  0  0  0  0  0
    3.8040   -1.5600    9.8820 C   0  0  0  0  0  0  0  0  0  0  0  0
    4.9350   -2.3540    9.6350 C   0  0  0  0  0  3  0  0  0  0  0  0
    5.5200   -2.3890    8.3660 C   0  0  0  0  0  3  0  0  0  0  0  0
    4.9920   -1.6250    7.3290 C   0  0  0  0  0  3  0  0  0  0  0  0
    3.8800   -0.8210    7.5570 C   0  0  0  0  0  3  0  0  0  0  0  0
    3.2930   -0.7850    8.8230 C   0  0  0  0  0  3  0  0  0  0  0  0
    2.1140   -2.5260   11.6500 C   0  0  0  0  0  0  0  0  0  0  0  0
    1.6270   -3.4850   10.7520 C   0  0  0  0  0  3  0  0  0  0  0  0
    0.7280   -4.4580   11.1810 C   0  0  0  0  0  3  0  0  0  0  0  0
    0.3600   -4.4690   12.5140 C   0  0  0  0  0  3  0  0  0  0  0  0
    0.8360   -3.5970   13.4260 N   0  0  0  0  0  0  0  0  0  0  0  0
    1.7030   -2.6580   12.9770 C   0  0  0  0  0  3  0  0  0  0  0  0
  1  6  1  0  0  0  0
  2  3  1  0  0  0  0
  2  1  2  0  0  0  0
  3  4  2  0  0  0  0
  4 26  1  0  0  0  0
  4  5  1  0  0  0  0
  6  5  2  0  0  0  0
  6  7  1  0  0  0  0
  8 13  1  0  0  0  0
  8 24  1  0  0  0  0
  9  8  2  0  0  0  0
 10  9  1  0  0  0  0
 10 11  2  0  0  0  0
 11 12  1  0  0  0  0
 12 14  1  0  0  0  0
 12 13  2  0  0  0  0
 15  1  1  0  0  0  0
 15 14  2  0  0  0  0
 16 11  1  0  0  0  0
 16 15  1  0  0  0  0
 17 16  1  0  0  0  0
 18 17  1  0  0  0  0
 19 18  1  0  0  0  0
 20 19  1  0  0  0  0
 20 21  1  0  0  0  0
 21 22  1  0  0  0  0
 22 17  1  0  0  0  0
 24 25  2  0  0  0  0
 24 23  1  0  0  0  0
 27 34  1  0  0  0  0
 27 26  1  1  0  0  0
 28 27  1  0  0  0  0
 29 28  1  0  0  0  0
 30 29  2  0  0  0  0
 31 32  2  0  0  0  0
 31 30  1  0  0  0  0
 32 33  1  0  0  0  0
 33 28  2  0  0  0  0
 34 39  1  0  0  0  0
 35 36  1  0  0  0  0
 35 34  2  0  0  0  0
 36 37  2  0  0  0  0
 37 38  1  0  0  0  0
 39 38  2  0  0  0  0
M  END
>  <minimizedAffinity>
-7.63732576

$$$$

 OpenBabel09122221113D

 39 44  0  0  1  0  0  0  0  0999 V2000
    6.1310    2.5940   11.9890 C   0  0  0  0  0  0  0  0  0  0  0  0
    4.8670    2.5760   11.3930 C   0  0  0  0  0  3  0  0  0  0  0  0
    4.0500    1.4470   11.5160 C   0  0  0  0  0  3  0  0  0  0  0  0
    4.4980    0.3130   12.2020 C   0  0  0  0  0  0  0  0  0  0  0  0
    5.7630    0.3240   12.7830 C   0  0  0  0  0  3  0  0  0  0  0  0
    6.5660    1.4590   12.6750 C   0  0  0  0  0  0  0  0  0  0  0  0
    7.7550    1.4540   13.2970 F   0  0  0  0  0  0  0  0  0  0  0  0
    9.2940    7.6580   12.4170 C   0  0  0  0  0  0  0  0  0  0  0  0
    9.7270    7.3170   11.1250 C   0  0  0  0  0  3  0  0  0  0  0  0
    9.2870    6.1590   10.4710 C   0  0  0  0  0  3  0  0  0  0  0  0
    8.3840    5.3340   11.1540 C   0  0  0  0  0  0  0  0  0  0  0  0
    7.9360    5.6370   12.4370 C   0  0  0  0  0  0  0  0  0  0  0  0
    8.3880    6.8040   13.0750 C   0  0  0  0  0  3  0  0  0  0  0  0
    7.0730    4.6710   12.8950 N   0  0  0  0  0  0  0  0  0  0  0  0
    6.9540    3.7950   11.9190 C   0  0  0  0  0  0  0  0  0  0  0  0
    7.7520    4.1470   10.8430 N   0  0  0  0  0  0  0  0  0  0  0  0
    7.9230    3.3590    9.6250 C   0  0  0  0  0  3  0  0  0  0  0  0
    7.7990    4.1950    8.3420 C   0  0  0  0  0  2  0  0  0  0  0  0
    7.9310    3.3190    7.0970 C   0  0  0  0  0  2  0  0  0  0  0  0
    9.2150    2.4920    7.1190 C   0  0  0  0  0  2  0  0  0  0  0  0
    9.3220    1.6510    8.3890 C   0  0  0  0  0  2  0  0  0  0  0  0
    9.2060    2.5120    9.6450 C   0  0  0  0  0  2  0  0  0  0  0  0
    8.9200    9.7690   13.4530 O   0  0  0  0  0  1  0  0  0  0  0  0
    9.7960    8.9210   13.0870 C   0  0  0  0  0  0  0  0  0  0  0  0
   11.0530    9.0440   13.2340 O   0  0  0  0  0  0  0  0  0  0  0  0
    3.5830   -0.6950   12.3120 O   0  0  0  0  0  0  0  0  0  0  0  0
    3.7020   -1.8870   11.5000 C   0  0  1  0  0  3  0  0  0  0  0  0
    2.9060   -3.0640   12.0660 C   0  0  0  0  0  0  0  0  0  0  0  0
    3.1980   -4.4050   11.7690 C   0  0  0  0  0  3  0  0  0  0  0  0
    2.4230   -5.4390   12.3000 C   0  0  0  0  0  3  0  0  0  0  0  0
    1.3400   -5.1510   13.1270 C   0  0  0  0  0  3  0  0  0  0  0  0
    1.0260   -3.8280   13.4220 C   0  0  0  0  0  3  0  0  0  0  0  0
    1.8000   -2.7930   12.8930 C   0  0  0  0  0  3  0  0  0  0  0  0
    3.6930   -1.6460    9.9960 C   0  0  0  0  0  0  0  0  0  0  0  0
    2.5490   -1.2350    9.3000 C   0  0  0  0  0  3  0  0  0  0  0  0
    2.6070   -0.9930    7.9300 C   0  0  0  0  0  3  0  0  0  0  0  0
    3.8250   -1.1380    7.2910 C   0  0  0  0  0  3  0  0  0  0  0  0
    4.9630   -1.4860    7.9240 N   0  0  0  0  0  0  0  0  0  0  0  0
    4.8730   -1.7220    9.2540 C   0  0  0  0  0  3  0  0  0  0  0  0
  1  6  1  0  0  0  0
  2  3  1  0  0  0  0
  2  1  2  0  0  0  0
  3  4  2  0  0  0  0
  4 26  1  0  0  0  0
  4  5  1  0  0  0  0
  6  5  2  0  0  0  0
  6  7  1  0  0  0  0
  8 13  1  0  0  0  0
  8 24  1  0  0  0  0
  9  8  2  0  0  0  0
 10  9  1  0  0  0  0
 10 11  2  0  0  0  0
 11 12  1  0  0  0  0
 12 14  1  0  0  0  0
 12 13  2  0  0  0  0
 15  1  1  0  0  0  0
 15 14  2  0  0  0  0
 16 11  1  0  0  0  0
 16 15  1  0  0  0  0
 17 22  1  0  0  0  0
 17 16  1  0  0  0  0
 18 17  1  0  0  0  0
 19 20  1  0  0  0  0
 19 18  1  0  0  0  0
 20 21  1  0  0  0  0
 21 22  1  0  0  0  0
 24 25  2  0  0  0  0
 24 23  1  0  0  0  0
 27 28  1  0  0  0  0
 27 26  1  1  0  0  0
 28 33  1  0  0  0  0
 29 28  2  0  0  0  0
 29 30  1  0  0  0  0
 30 31  2  0  0  0  0
 31 32  1  0  0  0  0
 33 32  2  0  0  0  0
 34 27  1  0  0  0  0
 35 34  1  0  0  0  0
 36 35  2  0  0  0  0
 37 38  2  0  0  0  0
 37 36  1  0  0  0  0
 38 39  1  0  0  0  0
 39 34  2  0  0  0  0
M  END
>  <minimizedAffinity>
-7.55078983

$$$$

 OpenBabel09122221113D

 39 44  0  0  1  0  0  0  0  0999 V2000
   10.5980    2.9550    1.7570 C   0  0  0  0  0  0  0  0  0  0  0  0
    9.5900    2.0600    2.1240 C   0  0  0  0  0  3  0  0  0  0  0  0
    9.3490    0.9200    1.3500 C   0  0  0  0  0  3  0  0  0  0  0  0
   10.0830    0.6810    0.1840 C   0  0  0  0  0  0  0  0  0  0  0  0
   11.0770    1.5790   -0.1910 C   0  0  0  0  0  3  0  0  0  0  0  0
   11.3290    2.7030    0.5940 C   0  0  0  0  0  0  0  0  0  0  0  0
   12.3330    3.5170    0.2330 F   0  0  0  0  0  0  0  0  0  0  0  0
   11.9510    7.1810    5.7750 C   0  0  0  0  0  0  0  0  0  0  0  0
   11.7770    8.0540    4.6890 C   0  0  0  0  0  3  0  0  0  0  0  0
   11.4300    7.5970    3.4110 C   0  0  0  0  0  3  0  0  0  0  0  0
   11.2560    6.2170    3.2430 C   0  0  0  0  0  0  0  0  0  0  0  0
   11.4250    5.3200    4.2950 C   0  0  0  0  0  0  0  0  0  0  0  0
   11.7710    5.7990    5.5690 C   0  0  0  0  0  3  0  0  0  0  0  0
   11.2160    4.0290    3.8750 N   0  0  0  0  0  0  0  0  0  0  0  0
   10.8950    4.1060    2.6000 C   0  0  0  0  0  0  0  0  0  0  0  0
   10.9280    5.4210    2.1640 N   0  0  0  0  0  0  0  0  0  0  0  0
   10.7030    5.8610    0.7900 C   0  0  0  0  0  3  0  0  0  0  0  0
    9.3420    6.5440    0.5880 C   0  0  0  0  0  2  0  0  0  0  0  0
    9.1310    6.9360   -0.8740 C   0  0  0  0  0  2  0  0  0  0  0  0
   10.2830    7.7880   -1.4030 C   0  0  0  0  0  2  0  0  0  0  0  0
   11.6300    7.0950   -1.2150 C   0  0  0  0  0  2  0  0  0  0  0  0
   11.8640    6.7070    0.2440 C   0  0  0  0  0  2  0  0  0  0  0  0
   11.5200    8.5420    7.6800 O   0  0  0  0  0  1  0  0  0  0  0  0
   12.3260    7.7190    7.1420 C   0  0  0  0  0  0  0  0  0  0  0  0
   13.4180    7.3110    7.6490 O   0  0  0  0  0  0  0  0  0  0  0  0
    9.8010   -0.4990   -0.4450 O   0  0  0  0  0  0  0  0  0  0  0  0
   10.5120   -1.7080   -0.0910 C   0  0  1  0  0  3  0  0  0  0  0  0
    9.5780   -2.8170    0.3970 C   0  0  0  0  0  0  0  0  0  0  0  0
    9.2210   -3.9250   -0.3880 C   0  0  0  0  0  3  0  0  0  0  0  0
    8.3480   -4.8980    0.1050 C   0  0  0  0  0  3  0  0  0  0  0  0
    7.8100   -4.7750    1.3830 C   0  0  0  0  0  3  0  0  0  0  0  0
    8.1390   -3.6770    2.1710 C   0  0  0  0  0  3  0  0  0  0  0  0
    9.0130   -2.7040    1.6810 C   0  0  0  0  0  3  0  0  0  0  0  0
   11.6660   -2.0710   -1.0170 C   0  0  0  0  0  0  0  0  0  0  0  0
   11.8650   -1.4550   -2.2600 C   0  0  0  0  0  3  0  0  0  0  0  0
   12.9600   -1.8000   -3.0490 C   0  0  0  0  0  3  0  0  0  0  0  0
   13.8530   -2.7350   -2.5570 C   0  0  0  0  0  3  0  0  0  0  0  0
   13.7300   -3.3220   -1.3500 N   0  0  0  0  0  0  0  0  0  0  0  0
   12.6510   -2.9720   -0.6090 C   0  0  0  0  0  3  0  0  0  0  0  0
  1  2  1  0  0  0  0
  1 15  1  0  0  0  0
  3  2  2  0  0  0  0
  4  3  1  0  0  0  0
  5  4  2  0  0  0  0
  5  6  1  0  0  0  0
  6  1  2  0  0  0  0
  7  6  1  0  0  0  0
  8 24  1  0  0  0  0
  9  8  2  0  0  0  0
 10  9  1  0  0  0  0
 11 10  2  0  0  0  0
 11 12  1  0  0  0  0
 12 13  2  0  0  0  0
 13  8  1  0  0  0  0
 14 12  1  0  0  0  0
 15 14  2  0  0  0  0
 16 15  1  0  0  0  0
 16 11  1  0  0  0  0
 17 16  1  0  0  0  0
 18 17  1  0  0  0  0
 19 18  1  0  0  0  0
 20 21  1  0  0  0  0
 20 19  1  0  0  0  0
 21 22  1  0  0  0  0
 22 17  1  0  0  0  0
 24 25  2  0  0  0  0
 24 23  1  0  0  0  0
 26  4  1  0  0  0  0
 27 26  1  6  0  0  0
 27 28  1  0  0  0  0
 28 33  1  0  0  0  0
 29 30  1  0  0  0  0
 29 28  2  0  0  0  0
 30 31  2  0  0  0  0
 31 32  1  0  0  0  0
 33 32  2  0  0  0  0
 34 39  1  0  0  0  0
 34 27  1  0  0  0  0
 35 34  2  0  0  0  0
 36 37  2  0  0  0  0
 36 35  1  0  0  0  0
 37 38  1  0  0  0  0
 38 39  2  0  0  0  0
M  END
>  <minimizedAffinity>
-7.4544282

$$$$

 OpenBabel09122221113D

 39 44  0  0  1  0  0  0  0  0999 V2000
   10.7360    3.8910    8.5400 C   0  0  0  0  0  0  0  0  0  0  0  0
   11.2700    4.0010    9.8270 C   0  0  0  0  0  3  0  0  0  0  0  0
   11.6370    5.2530   10.3280 C   0  0  0  0  0  3  0  0  0  0  0  0
   11.5130    6.4020    9.5400 C   0  0  0  0  0  0  0  0  0  0  0  0
   10.9960    6.2920    8.2530 C   0  0  0  0  0  3  0  0  0  0  0  0
   10.6120    5.0440    7.7640 C   0  0  0  0  0  0  0  0  0  0  0  0
   10.0650    4.9840    6.5400 F   0  0  0  0  0  0  0  0  0  0  0  0
    9.4290   -1.3500    5.9600 C   0  0  0  0  0  0  0  0  0  0  0  0
    8.5290   -1.4790    7.0300 C   0  0  0  0  0  3  0  0  0  0  0  0
    8.3930   -0.4920    8.0140 C   0  0  0  0  0  3  0  0  0  0  0  0
    9.1930    0.6520    7.8990 C   0  0  0  0  0  0  0  0  0  0  0  0
   10.1010    0.8130    6.8540 C   0  0  0  0  0  0  0  0  0  0  0  0
   10.2210   -0.1890    5.8770 C   0  0  0  0  0  3  0  0  0  0  0  0
   10.7750    2.0040    6.9710 N   0  0  0  0  0  0  0  0  0  0  0  0
   10.2900    2.5950    8.0430 C   0  0  0  0  0  0  0  0  0  0  0  0
    9.3360    1.7980    8.6540 N   0  0  0  0  0  0  0  0  0  0  0  0
    8.6520    2.1090    9.9070 C   0  0  0  0  0  3  0  0  0  0  0  0
    7.1550    2.4030    9.7220 C   0  0  0  0  0  2  0  0  0  0  0  0
    6.4970    2.7760   11.0500 C   0  0  0  0  0  2  0  0  0  0  0  0
    6.7440    1.7160   12.1220 C   0  0  0  0  0  2  0  0  0  0  0  0
    8.2340    1.4420   12.3120 C   0  0  0  0  0  2  0  0  0  0  0  0
    8.9070    1.0550   10.9960 C   0  0  0  0  0  2  0  0  0  0  0  0
   10.6400   -2.5170    4.2740 O   0  0  0  0  0  0  0  0  0  0  0  0
    9.5440   -2.4440    4.9160 C   0  0  0  0  0  0  0  0  0  0  0  0
    8.5400   -3.2070    4.7570 O   0  0  0  0  0  1  0  0  0  0  0  0
   11.8390    7.5710   10.1670 O   0  0  0  0  0  0  0  0  0  0  0  0
   10.8760    8.6450   10.2680 C   0  0  1  0  0  3  0  0  0  0  0  0
    9.7600    8.3400   11.2690 C   0  0  0  0  0  0  0  0  0  0  0  0
    9.7370    8.8500   12.5770 C   0  0  0  0  0  3  0  0  0  0  0  0
    8.7000    8.5210   13.4540 C   0  0  0  0  0  3  0  0  0  0  0  0
    7.6770    7.6710   13.0430 C   0  0  0  0  0  3  0  0  0  0  0  0
    7.6890    7.1430   11.7560 C   0  0  0  0  0  3  0  0  0  0  0  0
    8.7230    7.4720   10.8770 C   0  0  0  0  0  3  0  0  0  0  0  0
   11.4670   10.0480   10.2300 C   0  0  0  0  0  0  0  0  0  0  0  0
   10.6770   11.2050   10.2350 C   0  0  0  0  0  3  0  0  0  0  0  0
   11.2720   12.4640   10.2370 C   0  0  0  0  0  3  0  0  0  0  0  0
   12.6530   12.5350   10.2680 C   0  0  0  0  0  3  0  0  0  0  0  0
   13.4550   11.4530   10.3100 N   0  0  0  0  0  0  0  0  0  0  0  0
   12.8470   10.2430   10.2990 C   0  0  0  0  0  3  0  0  0  0  0  0
  1  2  1  0  0  0  0
  2  3  2  0  0  0  0
  4 26  1  0  0  0  0
  4  3  1  0  0  0  0
  5  4  2  0  0  0  0
  6  5  1  0  0  0  0
  6  1  2  0  0  0  0
  7  6  1  0  0  0  0
  8  9  1  0  0  0  0
  9 10  2  0  0  0  0
 11 10  1  0  0  0  0
 11 16  1  0  0  0  0
 12 14  1  0  0  0  0
 12 11  2  0  0  0  0
 13  8  2  0  0  0  0
 13 12  1  0  0  0  0
 14 15  2  0  0  0  0
 15  1  1  0  0  0  0
 15 16  1  0  0  0  0
 16 17  1  0  0  0  0
 17 22  1  0  0  0  0
 18 17  1  0  0  0  0
 18 19  1  0  0  0  0
 19 20  1  0  0  0  0
 20 21  1  0  0  0  0
 22 21  1  0  0  0  0
 23 24  2  0  0  0  0
 24  8  1  0  0  0  0
 25 24  1  0  0  0  0
 27 26  1  1  0  0  0
 27 28  1  0  0  0  0
 28 29  1  0  0  0  0
 29 30  2  0  0  0  0
 31 30  1  0  0  0  0
 32 31  2  0  0  0  0
 33 28  2  0  0  0  0
 33 32  1  0  0  0  0
 34 35  2  0  0  0  0
 34 27  1  0  0  0  0
 34 39  1  0  0  0  0
 35 36  1  0  0  0  0
 36 37  2  0  0  0  0
 37 38  1  0  0  0  0
 39 38  2  0  0  0  0
M  END
>  <minimizedAffinity>
-7.3134017

$$$$

 OpenBabel09122221113D

 39 44  0  0  1  0  0  0  0  0999 V2000
    8.8040    0.3510    8.4300 C   0  0  0  0  0  0  0  0  0  0  0  0
    8.4260    1.6970    8.4120 C   0  0  0  0  0  3  0  0  0  0  0  0
    8.4710    2.4520    9.5880 C   0  0  0  0  0  3  0  0  0  0  0  0
    8.8570    1.8670   10.7980 C   0  0  0  0  0  0  0  0  0  0  0  0
    9.2190    0.5240   10.8200 C   0  0  0  0  0  3  0  0  0  0  0  0
    9.1930   -0.2210    9.6420 C   0  0  0  0  0  0  0  0  0  0  0  0
    9.6040   -1.4970    9.6900 F   0  0  0  0  0  0  0  0  0  0  0  0
    9.4690   -2.3720    3.1400 C   0  0  0  0  0  0  0  0  0  0  0  0
    8.4370   -3.2010    3.6100 C   0  0  0  0  0  3  0  0  0  0  0  0
    7.8500   -3.0230    4.8690 C   0  0  0  0  0  3  0  0  0  0  0  0
    8.3290   -1.9730    5.6630 C   0  0  0  0  0  0  0  0  0  0  0  0
    9.3540   -1.1330    5.2340 C   0  0  0  0  0  0  0  0  0  0  0  0
    9.9280   -1.3280    3.9670 C   0  0  0  0  0  3  0  0  0  0  0  0
    9.6540   -0.1970    6.1940 N   0  0  0  0  0  0  0  0  0  0  0  0
    8.8240   -0.4180    7.1920 C   0  0  0  0  0  0  0  0  0  0  0  0
    8.0090   -1.5060    6.9220 N   0  0  0  0  0  0  0  0  0  0  0  0
    7.0290   -2.0760    7.8420 C   0  0  0  0  0  3  0  0  0  0  0  0
    5.5810   -1.7000    7.4920 C   0  0  0  0  0  2  0  0  0  0  0  0
    4.5990   -2.2730    8.5130 C   0  0  0  0  0  2  0  0  0  0  0  0
    4.7740   -3.7810    8.6830 C   0  0  0  0  0  2  0  0  0  0  0  0
    6.2100   -4.1450    9.0470 C   0  0  0  0  0  2  0  0  0  0  0  0
    7.2060   -3.5910    8.0300 C   0  0  0  0  0  2  0  0  0  0  0  0
   11.2500   -3.0910    1.7330 O   0  0  0  0  0  1  0  0  0  0  0  0
   10.0770   -2.6000    1.7700 C   0  0  0  0  0  0  0  0  0  0  0  0
    9.3720   -2.2850    0.7600 O   0  0  0  0  0  0  0  0  0  0  0  0
    8.9260    2.7250   11.8590 O   0  0  0  0  0  0  0  0  0  0  0  0
    7.7200    3.1990   12.5010 C   0  0  1  0  0  3  0  0  0  0  0  0
    7.5640    4.7170   12.4120 C   0  0  0  0  0  0  0  0  0  0  0  0
    8.1510    5.4940   11.4000 C   0  0  0  0  0  3  0  0  0  0  0  0
    7.9890    6.8820   11.3800 C   0  0  0  0  0  3  0  0  0  0  0  0
    7.2490    7.5160   12.3740 C   0  0  0  0  0  3  0  0  0  0  0  0
    6.6710    6.7660   13.3930 C   0  0  0  0  0  3  0  0  0  0  0  0
    6.8300    5.3790   13.4150 C   0  0  0  0  0  3  0  0  0  0  0  0
    6.4930    2.3190   12.2970 C   0  0  0  0  0  0  0  0  0  0  0  0
    5.5550    2.5480   11.2810 C   0  0  0  0  0  3  0  0  0  0  0  0
    4.4710    1.6880   11.1160 C   0  0  0  0  0  3  0  0  0  0  0  0
    4.3690    0.5950   11.9570 C   0  0  0  0  0  3  0  0  0  0  0  0
    5.2690    0.3060   12.9190 N   0  0  0  0  0  0  0  0  0  0  0  0
    6.3070    1.1640   13.0590 C   0  0  0  0  0  3  0  0  0  0  0  0
  1  6  1  0  0  0  0
  2  1  2  0  0  0  0
  2  3  1  0  0  0  0
  3  4  2  0  0  0  0
  4  5  1  0  0  0  0
  4 26  1  0  0  0  0
  6  7  1  0  0  0  0
  6  5  2  0  0  0  0
  8  9  2  0  0  0  0
  8 13  1  0  0  0  0
  9 10  1  0  0  0  0
 10 11  2  0  0  0  0
 11 16  1  0  0  0  0
 12 11  1  0  0  0  0
 12 14  1  0  0  0  0
 13 12  2  0  0  0  0
 14 15  2  0  0  0  0
 15  1  1  0  0  0  0
 16 15  1  0  0  0  0
 16 17  1  0  0  0  0
 17 22  1  0  0  0  0
 18 17  1  0  0  0  0
 18 19  1  0  0  0  0
 19 20  1  0  0  0  0
 20 21  1  0  0  0  0
 22 21  1  0  0  0  0
 23 24  1  0  0  0  0
 24  8  1  0  0  0  0
 25 24  2  0  0  0  0
 27 26  1  6  0  0  0
 28 27  1  0  0  0  0
 28 33  1  0  0  0  0
 29 28  2  0  0  0  0
 30 29  1  0  0  0  0
 30 31  2  0  0  0  0
 31 32  1  0  0  0  0
 32 33  2  0  0  0  0
 34 27  1  0  0  0  0
 34 39  1  0  0  0  0
 35 34  2  0  0  0  0
 36 35  1  0  0  0  0
 36 37  2  0  0  0  0
 37 38  1  0  0  0  0
 38 39  2  0  0  0  0
M  END
>  <minimizedAffinity>
-7.22210455

$$$$

 OpenBabel09122221113D

 39 44  0  0  1  0  0  0  0  0999 V2000
    6.4210    2.7290   11.9590 C   0  0  0  0  0  0  0  0  0  0  0  0
    5.1660    2.5550   11.3670 C   0  0  0  0  0  3  0  0  0  0  0  0
    4.4390    1.3830   11.5970 C   0  0  0  0  0  3  0  0  0  0  0  0
    4.9700    0.3570   12.3860 C   0  0  0  0  0  0  0  0  0  0  0  0
    6.2250    0.5210   12.9630 C   0  0  0  0  0  3  0  0  0  0  0  0
    6.9380    1.7000   12.7490 C   0  0  0  0  0  0  0  0  0  0  0  0
    8.1190    1.8480   13.3680 F   0  0  0  0  0  0  0  0  0  0  0  0
    9.1910    8.0350   11.9140 C   0  0  0  0  0  0  0  0  0  0  0  0
    9.6310    7.6230   10.6450 C   0  0  0  0  0  3  0  0  0  0  0  0
    9.2730    6.3850   10.0960 C   0  0  0  0  0  3  0  0  0  0  0  0
    8.4450    5.5540   10.8610 C   0  0  0  0  0  0  0  0  0  0  0  0
    7.9920    5.9250   12.1240 C   0  0  0  0  0  0  0  0  0  0  0  0
    8.3620    7.1720   12.6570 C   0  0  0  0  0  3  0  0  0  0  0  0
    7.2120    4.9380   12.6760 N   0  0  0  0  0  0  0  0  0  0  0  0
    7.1480    3.9780   11.7760 C   0  0  0  0  0  0  0  0  0  0  0  0
    7.9020    4.3000   10.6590 N   0  0  0  0  0  0  0  0  0  0  0  0
    8.1170    3.4300    9.5060 C   0  0  0  0  0  3  0  0  0  0  0  0
    7.7910    4.1100    8.1670 C   0  0  0  0  0  2  0  0  0  0  0  0
    7.9790    3.1450    6.9970 C   0  0  0  0  0  2  0  0  0  0  0  0
    9.3720    2.5190    6.9970 C   0  0  0  0  0  2  0  0  0  0  0  0
    9.6810    1.8310    8.3240 C   0  0  0  0  0  2  0  0  0  0  0  0
    9.5120    2.7850    9.5050 C   0  0  0  0  0  2  0  0  0  0  0  0
   10.5870    9.9640   11.9090 O   0  0  0  0  0  0  0  0  0  0  0  0
    9.6030    9.3830   12.4700 C   0  0  0  0  0  0  0  0  0  0  0  0
    8.9400    9.8350   13.4560 O   0  0  0  0  0  1  0  0  0  0  0  0
    4.1350   -0.7050   12.5900 O   0  0  0  0  0  0  0  0  0  0  0  0
    3.7900   -1.5890   11.4990 C   0  0  1  0  0  3  0  0  0  0  0  0
    5.0200   -2.1940   10.8210 C   0  0  0  0  0  0  0  0  0  0  0  0
    5.8280   -3.1720   11.4220 C   0  0  0  0  0  3  0  0  0  0  0  0
    6.9520   -3.6750   10.7620 C   0  0  0  0  0  3  0  0  0  0  0  0
    7.2920   -3.2030    9.4970 C   0  0  0  0  0  3  0  0  0  0  0  0
    6.5130   -2.2230    8.8900 C   0  0  0  0  0  3  0  0  0  0  0  0
    5.3880   -1.7200    9.5470 C   0  0  0  0  0  3  0  0  0  0  0  0
    2.5750   -2.4740   11.7460 C   0  0  0  0  0  0  0  0  0  0  0  0
    2.0700   -3.3570   10.7810 C   0  0  0  0  0  3  0  0  0  0  0  0
    0.9790   -4.1710   11.0750 C   0  0  0  0  0  3  0  0  0  0  0  0
    0.4360   -4.1050   12.3450 C   0  0  0  0  0  3  0  0  0  0  0  0
    0.9130   -3.3060   13.3200 N   0  0  0  0  0  0  0  0  0  0  0  0
    1.9700   -2.5210   13.0020 C   0  0  0  0  0  3  0  0  0  0  0  0
  1  6  1  0  0  0  0
  2  3  1  0  0  0  0
  2  1  2  0  0  0  0
  3  4  2  0  0  0  0
  4 26  1  0  0  0  0
  4  5  1  0  0  0  0
  6  5  2  0  0  0  0
  6  7  1  0  0  0  0
  8 24  1  0  0  0  0
  8 13  1  0  0  0  0
  9  8  2  0  0  0  0
 10  9  1  0  0  0  0
 10 11  2  0  0  0  0
 11 12  1  0  0  0  0
 12 13  2  0  0  0  0
 12 14  1  0  0  0  0
 15  1  1  0  0  0  0
 15 14  2  0  0  0  0
 16 11  1  0  0  0  0
 16 15  1  0  0  0  0
 17 16  1  0  0  0  0
 18 17  1  0  0  0  0
 19 20  1  0  0  0  0
 19 18  1  0  0  0  0
 20 21  1  0  0  0  0
 21 22  1  0  0  0  0
 22 17  1  0  0  0  0
 23 24  2  0  0  0  0
 24 25  1  0  0  0  0
 27 34  1  0  0  0  0
 27 26  1  1  0  0  0
 28 29  1  0  0  0  0
 28 27  1  0  0  0  0
 30 29  2  0  0  0  0
 31 30  1  0  0  0  0
 32 31  2  0  0  0  0
 32 33  1  0  0  0  0
 33 28  2  0  0  0  0
 34 39  1  0  0  0  0
 35 36  1  0  0  0  0
 35 34  2  0  0  0  0
 36 37  2  0  0  0  0
 37 38  1  0  0  0  0
 39 38  2  0  0  0  0
M  END
>  <minimizedAffinity>
-7.20644712

$$$$

 OpenBabel09122221113D

 39 44  0  0  1  0  0  0  0  0999 V2000
   10.9150    3.8550    9.1060 C   0  0  0  0  0  0  0  0  0  0  0  0
   10.7860    4.9630    8.2630 C   0  0  0  0  0  3  0  0  0  0  0  0
   11.1030    6.2410    8.7330 C   0  0  0  0  0  3  0  0  0  0  0  0
   11.5160    6.4340   10.0550 C   0  0  0  0  0  0  0  0  0  0  0  0
   11.6310    5.3340   10.9000 C   0  0  0  0  0  3  0  0  0  0  0  0
   11.3330    4.0580   10.4220 C   0  0  0  0  0  0  0  0  0  0  0  0
   11.5100    3.0150   11.2480 F   0  0  0  0  0  0  0  0  0  0  0  0
    9.0920   -1.4650    7.0540 C   0  0  0  0  0  0  0  0  0  0  0  0
   10.4680   -1.7140    6.9210 C   0  0  0  0  0  3  0  0  0  0  0  0
   11.4360   -0.7640    7.2710 C   0  0  0  0  0  3  0  0  0  0  0  0
   10.9860    0.4650    7.7710 C   0  0  0  0  0  0  0  0  0  0  0  0
    9.6310    0.7500    7.9130 C   0  0  0  0  0  0  0  0  0  0  0  0
    8.6760   -0.2170    7.5560 C   0  0  0  0  0  3  0  0  0  0  0  0
    9.4450    2.0190    8.4050 N   0  0  0  0  0  0  0  0  0  0  0  0
   10.6500    2.5160    8.5970 C   0  0  0  0  0  0  0  0  0  0  0  0
   11.6230    1.6100    8.2040 N   0  0  0  0  0  0  0  0  0  0  0  0
   13.0620    1.8630    8.2050 C   0  0  0  0  0  3  0  0  0  0  0  0
   13.8770    0.7110    8.8130 C   0  0  0  0  0  2  0  0  0  0  0  0
   15.3680    1.0450    8.8420 C   0  0  0  0  0  2  0  0  0  0  0  0
   15.8860    1.4470    7.4620 C   0  0  0  0  0  2  0  0  0  0  0  0
   15.0820    2.6030    6.8730 C   0  0  0  0  0  2  0  0  0  0  0  0
   13.5880    2.2820    6.8240 C   0  0  0  0  0  2  0  0  0  0  0  0
    7.8960   -2.7130    5.4180 O   0  0  0  0  0  0  0  0  0  0  0  0
    8.0780   -2.5210    6.6620 C   0  0  0  0  0  0  0  0  0  0  0  0
    7.4840   -3.1370    7.6030 O   0  0  0  0  0  1  0  0  0  0  0  0
   11.8630    7.7170   10.3720 O   0  0  0  0  0  0  0  0  0  0  0  0
   10.8570    8.7530   10.4440 C   0  0  1  0  0  3  0  0  0  0  0  0
    9.6800    8.3680   11.3430 C   0  0  0  0  0  0  0  0  0  0  0  0
    9.5550    8.7960   12.6740 C   0  0  0  0  0  3  0  0  0  0  0  0
    8.4670    8.3960   13.4540 C   0  0  0  0  0  3  0  0  0  0  0  0
    7.4930    7.5550   12.9210 C   0  0  0  0  0  3  0  0  0  0  0  0
    7.6060    7.1080   11.6090 C   0  0  0  0  0  3  0  0  0  0  0  0
    8.6920    7.5080   10.8270 C   0  0  0  0  0  3  0  0  0  0  0  0
   11.3990   10.1750   10.5100 C   0  0  0  0  0  0  0  0  0  0  0  0
   10.6930   11.2810   10.0170 C   0  0  0  0  0  3  0  0  0  0  0  0
   11.2210   12.5640   10.1380 C   0  0  0  0  0  3  0  0  0  0  0  0
   12.4350   12.7140   10.7840 C   0  0  0  0  0  3  0  0  0  0  0  0
   13.1290   11.6890   11.3150 N   0  0  0  0  0  0  0  0  0  0  0  0
   12.5940   10.4530   11.1750 C   0  0  0  0  0  3  0  0  0  0  0  0
  1  6  1  0  0  0  0
  2  3  1  0  0  0  0
  2  1  2  0  0  0  0
  3  4  2  0  0  0  0
  4 26  1  0  0  0  0
  4  5  1  0  0  0  0
  6  5  2  0  0  0  0
  6  7  1  0  0  0  0
  8 13  1  0  0  0  0
  9  8  2  0  0  0  0
  9 10  1  0  0  0  0
 10 11  2  0  0  0  0
 11 12  1  0  0  0  0
 11 16  1  0  0  0  0
 12 14  1  0  0  0  0
 13 12  2  0  0  0  0
 14 15  2  0  0  0  0
 15  1  1  0  0  0  0
 16 17  1  0  0  0  0
 16 15  1  0  0  0  0
 17 18  1  0  0  0  0
 18 19  1  0  0  0  0
 20 19  1  0  0  0  0
 21 20  1  0  0  0  0
 22 21  1  0  0  0  0
 22 17  1  0  0  0  0
 23 24  2  0  0  0  0
 24  8  1  0  0  0  0
 24 25  1  0  0  0  0
 27 26  1  1  0  0  0
 27 34  1  0  0  0  0
 27 28  1  0  0  0  0
 28 29  1  0  0  0  0
 29 30  2  0  0  0  0
 31 30  1  0  0  0  0
 32 31  2  0  0  0  0
 33 28  2  0  0  0  0
 33 32  1  0  0  0  0
 34 39  1  0  0  0  0
 35 36  1  0  0  0  0
 35 34  2  0  0  0  0
 36 37  2  0  0  0  0
 37 38  1  0  0  0  0
 39 38  2  0  0  0  0
M  END
>  <minimizedAffinity>
-7.04875135

$$$$

 OpenBabel09122221113D

 39 44  0  0  1  0  0  0  0  0999 V2000
    6.5730    2.4660   11.7120 C   0  0  0  0  0  0  0  0  0  0  0  0
    5.1910    2.4140   11.5050 C   0  0  0  0  0  3  0  0  0  0  0  0
    4.5080    1.2020   11.6450 C   0  0  0  0  0  3  0  0  0  0  0  0
    5.1970    0.0250   11.9550 C   0  0  0  0  0  0  0  0  0  0  0  0
    6.5750    0.0730   12.1470 C   0  0  0  0  0  3  0  0  0  0  0  0
    7.2500    1.2870   12.0270 C   0  0  0  0  0  0  0  0  0  0  0  0
    8.5680    1.3060   12.2740 F   0  0  0  0  0  0  0  0  0  0  0  0
    9.2580    7.8010   12.1170 C   0  0  0  0  0  0  0  0  0  0  0  0
    9.6650    7.5250   10.8010 C   0  0  0  0  0  3  0  0  0  0  0  0
    9.3090    6.3420   10.1420 C   0  0  0  0  0  3  0  0  0  0  0  0
    8.5180    5.4240   10.8430 C   0  0  0  0  0  0  0  0  0  0  0  0
    8.0990    5.6590   12.1500 C   0  0  0  0  0  0  0  0  0  0  0  0
    8.4670    6.8530   12.7940 C   0  0  0  0  0  3  0  0  0  0  0  0
    7.3520    4.6080   12.6230 N   0  0  0  0  0  0  0  0  0  0  0  0
    7.2750    3.7410   11.6340 C   0  0  0  0  0  0  0  0  0  0  0  0
    7.9890    4.1870   10.5330 N   0  0  0  0  0  0  0  0  0  0  0  0
    8.1810    3.4400    9.2920 C   0  0  0  0  0  3  0  0  0  0  0  0
    7.8240    4.2520    8.0370 C   0  0  0  0  0  2  0  0  0  0  0  0
    7.9890    3.4120    6.7710 C   0  0  0  0  0  2  0  0  0  0  0  0
    9.3830    2.7950    6.6780 C   0  0  0  0  0  2  0  0  0  0  0  0
    9.7230    1.9770    7.9200 C   0  0  0  0  0  2  0  0  0  0  0  0
    9.5770    2.8040    9.1960 C   0  0  0  0  0  2  0  0  0  0  0  0
    8.7710    9.7090   13.4550 O   0  0  0  0  0  1  0  0  0  0  0  0
    9.6670    9.0940   12.7930 C   0  0  0  0  0  0  0  0  0  0  0  0
   10.8730    9.4720   12.6490 O   0  0  0  0  0  0  0  0  0  0  0  0
    4.4090   -1.0770   12.1330 O   0  0  0  0  0  0  0  0  0  0  0  0
    4.4000   -2.1390   11.1510 C   0  0  1  0  0  3  0  0  0  0  0  0
    3.7940   -1.7010    9.8170 C   0  0  0  0  0  0  0  0  0  0  0  0
    2.4340   -1.8530    9.5010 C   0  0  0  0  0  3  0  0  0  0  0  0
    1.9400   -1.4520    8.2580 C   0  0  0  0  0  3  0  0  0  0  0  0
    2.7960   -0.9010    7.3070 C   0  0  0  0  0  3  0  0  0  0  0  0
    4.1490   -0.7540    7.5950 C   0  0  0  0  0  3  0  0  0  0  0  0
    4.6450   -1.1540    8.8380 C   0  0  0  0  0  3  0  0  0  0  0  0
    5.6440   -3.0180   11.1410 C   0  0  0  0  0  0  0  0  0  0  0  0
    6.2010   -3.5590   12.3080 C   0  0  0  0  0  3  0  0  0  0  0  0
    7.3180   -4.3880   12.2360 C   0  0  0  0  0  3  0  0  0  0  0  0
    7.8340   -4.6850   10.9870 C   0  0  0  0  0  3  0  0  0  0  0  0
    7.3070   -4.2270    9.8340 N   0  0  0  0  0  0  0  0  0  0  0  0
    6.2260   -3.4170    9.9370 C   0  0  0  0  0  3  0  0  0  0  0  0
  1  6  1  0  0  0  0
  2  3  1  0  0  0  0
  2  1  2  0  0  0  0
  3  4  2  0  0  0  0
  4 26  1  0  0  0  0
  4  5  1  0  0  0  0
  6  5  2  0  0  0  0
  6  7  1  0  0  0  0
  8 24  1  0  0  0  0
  8 13  1  0  0  0  0
  9  8  2  0  0  0  0
 10  9  1  0  0  0  0
 10 11  2  0  0  0  0
 11 12  1  0  0  0  0
 12 14  1  0  0  0  0
 12 13  2  0  0  0  0
 15  1  1  0  0  0  0
 15 14  2  0  0  0  0
 16 11  1  0  0  0  0
 16 15  1  0  0  0  0
 17 16  1  0  0  0  0
 18 17  1  0  0  0  0
 19 18  1  0  0  0  0
 20 19  1  0  0  0  0
 20 21  1  0  0  0  0
 21 22  1  0  0  0  0
 22 17  1  0  0  0  0
 24 23  1  0  0  0  0
 25 24  2  0  0  0  0
 27 26  1  1  0  0  0
 28 27  1  0  0  0  0
 29 28  1  0  0  0  0
 30 29  2  0  0  0  0
 31 32  2  0  0  0  0
 31 30  1  0  0  0  0
 32 33  1  0  0  0  0
 33 28  2  0  0  0  0
 34 27  1  0  0  0  0
 34 35  1  0  0  0  0
 36 35  2  0  0  0  0
 37 36  1  0  0  0  0
 38 39  1  0  0  0  0
 38 37  2  0  0  0  0
 39 34  2  0  0  0  0
M  END
>  <minimizedAffinity>
-7.02432203

$$$$

 OpenBabel09122221113D

 39 44  0  0  1  0  0  0  0  0999 V2000
    6.6380    1.6890   10.2920 C   0  0  0  0  0  0  0  0  0  0  0  0
    7.4000    0.6470    9.7550 C   0  0  0  0  0  3  0  0  0  0  0  0
    6.7940   -0.5720    9.4360 C   0  0  0  0  0  3  0  0  0  0  0  0
    5.4330   -0.7790    9.6830 C   0  0  0  0  0  0  0  0  0  0  0  0
    4.6760    0.2520   10.2320 C   0  0  0  0  0  3  0  0  0  0  0  0
    5.2790    1.4740   10.5290 C   0  0  0  0  0  0  0  0  0  0  0  0
    4.5070    2.4630   11.0020 F   0  0  0  0  0  0  0  0  0  0  0  0
    8.7920    6.9910   12.0480 C   0  0  0  0  0  0  0  0  0  0  0  0
    9.5350    6.9110   10.8590 C   0  0  0  0  0  3  0  0  0  0  0  0
    9.4320    5.8210    9.9860 C   0  0  0  0  0  3  0  0  0  0  0  0
    8.5490    4.7920   10.3360 C   0  0  0  0  0  0  0  0  0  0  0  0
    7.8000    4.8330   11.5090 C   0  0  0  0  0  0  0  0  0  0  0  0
    7.9170    5.9360   12.3710 C   0  0  0  0  0  3  0  0  0  0  0  0
    7.0250    3.7050   11.6360 N   0  0  0  0  0  0  0  0  0  0  0  0
    7.2550    2.9820   10.5590 C   0  0  0  0  0  0  0  0  0  0  0  0
    8.1950    3.5950    9.7470 N   0  0  0  0  0  0  0  0  0  0  0  0
    8.7410    3.0330    8.5140 C   0  0  0  0  0  3  0  0  0  0  0  0
    8.4850    3.9150    7.2820 C   0  0  0  0  0  2  0  0  0  0  0  0
    9.0260    3.2600    6.0120 C   0  0  0  0  0  2  0  0  0  0  0  0
   10.5000    2.8850    6.1510 C   0  0  0  0  0  2  0  0  0  0  0  0
   10.7440    1.9950    7.3670 C   0  0  0  0  0  2  0  0  0  0  0  0
   10.2210    2.6400    8.6500 C   0  0  0  0  0  2  0  0  0  0  0  0
   10.1130    8.6180   13.1770 O   0  0  0  0  0  0  0  0  0  0  0  0
    8.9340    8.1890   12.9650 C   0  0  0  0  0  0  0  0  0  0  0  0
    7.8680    8.6780   13.4560 O   0  0  0  0  0  1  0  0  0  0  0  0
    4.9460   -1.9850    9.2650 O   0  0  0  0  0  0  0  0  0  0  0  0
    3.5270   -2.1710    9.0560 C   0  0  1  0  0  3  0  0  0  0  0  0
    3.1570   -2.2500    7.5740 C   0  0  0  0  0  0  0  0  0  0  0  0
    2.1100   -1.5100    7.0010 C   0  0  0  0  0  3  0  0  0  0  0  0
    1.8050   -1.6370    5.6440 C   0  0  0  0  0  3  0  0  0  0  0  0
    2.5320   -2.5110    4.8400 C   0  0  0  0  0  3  0  0  0  0  0  0
    3.5630   -3.2650    5.3920 C   0  0  0  0  0  3  0  0  0  0  0  0
    3.8710   -3.1380    6.7480 C   0  0  0  0  0  3  0  0  0  0  0  0
    2.8510   -3.1220   10.0360 C   0  0  0  0  0  0  0  0  0  0  0  0
    1.4630   -3.1560   10.2260 C   0  0  0  0  0  3  0  0  0  0  0  0
    0.8950   -4.0730   11.1080 C   0  0  0  0  0  3  0  0  0  0  0  0
    1.7330   -4.9620   11.7570 C   0  0  0  0  0  3  0  0  0  0  0  0
    3.0680   -5.0000   11.5730 N   0  0  0  0  0  0  0  0  0  0  0  0
    3.5910   -4.0910   10.7160 C   0  0  0  0  0  3  0  0  0  0  0  0
  1  6  1  0  0  0  0
  1 15  1  0  0  0  0
  2  1  2  0  0  0  0
  3  4  2  0  0  0  0
  3  2  1  0  0  0  0
  4  5  1  0  0  0  0
  5  6  2  0  0  0  0
  6  7  1  0  0  0  0
  8 13  1  0  0  0  0
  8 24  1  0  0  0  0
  9  8  2  0  0  0  0
 10 11  2  0  0  0  0
 10  9  1  0  0  0  0
 11 12  1  0  0  0  0
 12 14  1  0  0  0  0
 12 13  2  0  0  0  0
 15 14  2  0  0  0  0
 16 11  1  0  0  0  0
 16 15  1  0  0  0  0
 17 22  1  0  0  0  0
 17 16  1  0  0  0  0
 18 17  1  0  0  0  0
 19 20  1  0  0  0  0
 19 18  1  0  0  0  0
 20 21  1  0  0  0  0
 21 22  1  0  0  0  0
 24 23  2  0  0  0  0
 24 25  1  0  0  0  0
 26  4  1  0  0  0  0
 27 26  1  6  0  0  0
 27 34  1  0  0  0  0
 28 27  1  0  0  0  0
 29 28  1  0  0  0  0
 30 29  2  0  0  0  0
 31 32  2  0  0  0  0
 31 30  1  0  0  0  0
 32 33  1  0  0  0  0
 33 28  2  0  0  0  0
 34 35  2  0  0  0  0
 34 39  1  0  0  0  0
 35 36  1  0  0  0  0
 36 37  2  0  0  0  0
 38 37  1  0  0  0  0
 39 38  2  0  0  0  0
M  END
>  <minimizedAffinity>
-7.01054478

$$$$
