@<TRIPOS>MOLECULE
44194974
 76 81 0 0 0
SMALL
GASTEIGER

@<TRIPOS>ATOM
      1 S          -1.9786    3.0326    1.3505 S.O2    1  UNL1       -0.0028
      2 F           0.9863   -1.3288    2.0848 F       1  UNL1       -0.2050
      3 O          -0.7589    3.6151    1.8840 O.2     1  UNL1       -0.1695
      4 O          -2.9976    2.5455    2.2639 O.2     1  UNL1       -0.1695
      5 O          -0.8656   -0.6480   -4.1885 O.3     1  UNL1       -0.5048
      6 O          -1.9887   -1.1143    2.9063 O.2     1  UNL1       -0.2679
      7 O           4.8547    0.4651   -0.0095 O.3     1  UNL1       -0.4873
      8 N          -1.5554    0.7595   -1.9519 N.pl3   1  UNL1       -0.3122
      9 N          -1.4454   -0.6703    0.6689 N.am    1  UNL1       -0.2513
     10 N          -4.0973   -1.5307    0.2422 N.ar    1  UNL1       -0.2473
     11 C          -3.5676    3.7353   -0.7950 C.3     1  UNL1       -0.0100
     12 C          -2.7282    4.2828    0.3533 C.3     1  UNL1        0.0761
     13 C          -2.6609    2.8764   -1.6908 C.3     1  UNL1       -0.0063
     14 C          -1.5371    1.7251    0.2734 C.2     1  UNL1        0.1078
     15 C          -1.8931    1.7389   -1.0298 C.2     1  UNL1        0.0319
     16 C          -0.7456    0.6089    0.9248 C.3     1  UNL1        0.1022
     17 C          -4.0971    4.9268   -1.6196 C.3     1  UNL1       -0.0580
     18 C          -4.7853    2.9292   -0.3051 C.3     1  UNL1       -0.0580
     19 C           0.7618    0.5669    0.6734 C.ar    1  UNL1        0.0145
     20 C          -1.2048   -0.5968   -1.8021 C.ar    1  UNL1        0.0949
     21 C          -1.2064   -1.3107   -0.5898 C.ar    1  UNL1        0.0623
     22 C          -2.2170   -1.2420    1.7029 C.2     1  UNL1        0.2700
     23 C          -0.8799   -1.2987   -2.9845 C.ar    1  UNL1        0.1397
     24 C           1.5457   -0.4146    1.2798 C.ar    1  UNL1        0.1322
     25 C           1.3533    1.5139   -0.1628 C.ar    1  UNL1       -0.0502
     26 C          -0.9012   -2.6881   -0.5957 C.ar    1  UNL1       -0.0382
     27 C          -0.5815   -2.6605   -2.9760 C.ar    1  UNL1       -0.0182
     28 C          -0.5957   -3.3574   -1.7784 C.ar    1  UNL1       -0.0564
     29 C          -3.4589   -1.9658    1.3515 C.ar    1  UNL1        0.1262
     30 C           2.9211   -0.4492    1.0500 C.ar    1  UNL1        0.0156
     31 C           2.7286    1.4794   -0.3926 C.ar    1  UNL1       -0.0194
     32 C           3.5125    0.4977    0.2138 C.ar    1  UNL1        0.1237
     33 C          -3.9015   -3.0162    2.1393 C.ar    1  UNL1       -0.0311
     34 C          -5.2340   -2.1821   -0.0909 C.ar    1  UNL1        0.0391
     35 C          -5.0746   -3.6617    1.7643 C.ar    1  UNL1       -0.0579
     36 C          -5.7597   -3.2428    0.6291 C.ar    1  UNL1       -0.0406
     37 C           5.5964   -0.5652    0.6419 C.3     1  UNL1        0.1146
     38 C          -5.9431   -1.7060   -1.3149 C.3     1  UNL1       -0.0223
     39 C           7.0494   -0.4146    0.2991 C.ar    1  UNL1       -0.0104
     40 C           7.5721   -1.0615   -0.8207 C.ar    1  UNL1       -0.0554
     41 C           7.8773    0.3721    1.0998 C.ar    1  UNL1       -0.0554
     42 C           8.9229   -0.9218   -1.1398 C.ar    1  UNL1       -0.0614
     43 C           9.2279    0.5119    0.7807 C.ar    1  UNL1       -0.0614
     44 C           9.7507   -0.1351   -0.3390 C.ar    1  UNL1       -0.0617
     45 H          -1.9102    4.9027   -0.0349 H       1  UNL1        0.0509
     46 H          -3.3235    4.9128    1.0241 H       1  UNL1        0.0509
     47 H          -1.9207    3.5159   -2.1930 H       1  UNL1        0.0332
     48 H          -3.2892    2.4606   -2.4924 H       1  UNL1        0.0332
     49 H          -0.8147    0.7760    2.0089 H       1  UNL1        0.0619
     50 H          -4.7456    5.5691   -1.0132 H       1  UNL1        0.0236
     51 H          -4.6784    4.5846   -2.4834 H       1  UNL1        0.0236
     52 H          -3.2762    5.5466   -1.9981 H       1  UNL1        0.0236
     53 H          -5.3876    3.5167    0.3969 H       1  UNL1        0.0236
     54 H          -4.5049    1.9971    0.1936 H       1  UNL1        0.0236
     55 H          -5.4334    2.6527   -1.1451 H       1  UNL1        0.0236
     56 H          -1.6343    1.0548   -2.9215 H       1  UNL1        0.1521
     57 H           0.7911    2.3057   -0.6455 H       1  UNL1        0.0623
     58 H          -0.8748   -3.2513    0.3350 H       1  UNL1        0.0637
     59 H          -0.3382   -3.1858   -3.8953 H       1  UNL1        0.0655
     60 H          -0.3598   -4.4171   -1.7590 H       1  UNL1        0.0619
     61 H           3.4654   -1.2411    1.5521 H       1  UNL1        0.0683
     62 H           3.1849    2.2214   -1.0421 H       1  UNL1        0.0654
     63 H          -0.6267   -1.2775   -4.8903 H       1  UNL1        0.2922
     64 H          -3.3610   -3.3437    3.0210 H       1  UNL1        0.0640
     65 H          -5.4535   -4.4904    2.3547 H       1  UNL1        0.0619
     66 H          -6.6757   -3.7387    0.3263 H       1  UNL1        0.0635
     67 H           5.2586   -1.5564    0.3113 H       1  UNL1        0.0748
     68 H           5.4919   -0.4933    1.7327 H       1  UNL1        0.0748
     69 H          -6.9545   -1.3717   -1.0637 H       1  UNL1        0.0292
     70 H          -5.4131   -0.8638   -1.7726 H       1  UNL1        0.0292
     71 H          -6.0042   -2.5092   -2.0561 H       1  UNL1        0.0292
     72 H           6.9370   -1.6754   -1.4539 H       1  UNL1        0.0621
     73 H           7.4818    0.8833    1.9735 H       1  UNL1        0.0621
     74 H           9.3299   -1.4249   -2.0119 H       1  UNL1        0.0618
     75 H           9.8725    1.1251    1.4037 H       1  UNL1        0.0618
     76 H          10.8024   -0.0259   -0.5874 H       1  UNL1        0.0618
@<TRIPOS>BOND
     1     1     3    2
     2     1     4    2
     3     1    12    1
     4     1    14    1
     5     2    24    1
     6     5    23    1
     7     5    63    1
     8     6    22    2
     9     7    32    1
    10     7    37    1
    11     8    15    1
    12     8    20    1
    13     8    56    1
    14     9    16    1
    15     9    21    1
    16     9    22   am
    17    10    29   ar
    18    10    34   ar
    19    11    12    1
    20    11    13    1
    21    11    17    1
    22    11    18    1
    23    12    45    1
    24    12    46    1
    25    13    15    1
    26    13    47    1
    27    13    48    1
    28    14    15    2
    29    14    16    1
    30    16    19    1
    31    16    49    1
    32    17    50    1
    33    17    51    1
    34    17    52    1
    35    18    53    1
    36    18    54    1
    37    18    55    1
    38    19    24   ar
    39    19    25   ar
    40    20    21   ar
    41    20    23   ar
    42    21    26   ar
    43    22    29    1
    44    23    27   ar
    45    24    30   ar
    46    25    31   ar
    47    25    57    1
    48    26    28   ar
    49    26    58    1
    50    27    28   ar
    51    27    59    1
    52    28    60    1
    53    29    33   ar
    54    30    32   ar
    55    30    61    1
    56    31    32   ar
    57    31    62    1
    58    33    35   ar
    59    33    64    1
    60    34    36   ar
    61    34    38    1
    62    35    36   ar
    63    35    65    1
    64    36    66    1
    65    37    39    1
    66    37    67    1
    67    37    68    1
    68    38    69    1
    69    38    70    1
    70    38    71    1
    71    39    40   ar
    72    39    41   ar
    73    40    42   ar
    74    40    72    1
    75    41    43   ar
    76    41    73    1
    77    42    44   ar
    78    42    74    1
    79    43    44   ar
    80    43    75    1
    81    44    76    1
