
 OpenBabel09082221113D

 44 49  0  0  0  0  0  0  0  0999 V2000
    6.4540   -5.1950   -0.2110 C   0  0  0  0  0  0  0  0  0  0  0  0
    5.4570   -4.2490   -0.4320 C   0  0  0  0  0  3  0  0  0  0  0  0
    4.8840   -4.1210   -1.7020 C   0  0  0  0  0  3  0  0  0  0  0  0
    5.2890   -4.9360   -2.7700 C   0  0  0  0  0  0  0  0  0  0  0  0
    6.3330   -5.8680   -2.5590 C   0  0  0  0  0  0  0  0  0  0  0  0
    6.8830   -5.9960   -1.2720 C   0  0  0  0  0  3  0  0  0  0  0  0
    6.9140   -6.7180   -3.6190 C   0  0  0  0  0  3  0  0  0  0  0  0
    7.1160   -6.2680   -4.8710 C   0  0  0  0  0  0  0  0  0  0  0  0
    6.7760   -4.8900   -5.3420 C   0  0  0  0  0  2  0  0  0  0  0  0
    5.3270   -4.7030   -5.2630 N   0  0  0  0  0  0  0  0  0  0  0  0
    4.6160   -4.7840   -4.0770 C   0  0  0  0  0  0  0  0  0  0  0  0
    3.2600   -4.8040   -4.4110 C   0  0  0  0  0  0  0  0  0  0  0  0
    3.1750   -4.7180   -5.8450 C   0  0  0  0  0  0  0  0  0  0  0  0
    2.1040   -4.7460   -6.7700 C   0  0  0  0  0  3  0  0  0  0  0  0
    2.3620   -4.7990   -8.1450 C   0  0  0  0  0  3  0  0  0  0  0  0
    3.6760   -4.7760   -8.6050 C   0  0  0  0  0  0  0  0  0  0  0  0
    4.7520   -4.6570   -7.7200 C   0  0  0  0  0  3  0  0  0  0  0  0
    4.4760   -4.6590   -6.3440 C   0  0  0  0  0  0  0  0  0  0  0  0
    4.0100   -5.0230  -10.0250 C   0  0  0  0  0  0  0  0  0  0  0  0
    4.8860   -4.3810  -10.5810 O   0  0  0  0  0  0  0  0  0  0  0  0
    3.3160   -6.1070  -10.5710 N   0  0  0  0  0  0  0  0  0  0  0  0
    3.6560   -6.8530  -11.9980 S   0  0  0  0  0  0  0  0  0  0  0  0
    2.6120   -7.8420  -12.1610 O   0  0  0  0  0  0  0  0  0  0  0  0
    3.9130   -5.8670  -13.0160 O   0  0  0  0  0  0  0  0  0  0  0  0
    5.0610   -7.6720  -11.6330 N   0  0  0  0  0  0  0  0  0  0  0  0
    6.3130   -6.9320  -11.4450 C   0  0  0  0  0  1  0  0  0  0  0  0
    5.0320   -9.0410  -11.0790 C   0  0  0  0  0  2  0  0  0  0  0  0
    4.3610   -9.1820   -9.7100 C   0  0  0  0  0  2  0  0  0  0  0  0
    5.1030   -8.5000   -8.6890 O   0  0  0  0  0  0  0  0  0  0  0  0
    4.9110   -9.1100   -7.4060 C   0  0  0  0  0  2  0  0  0  0  0  0
    5.6350   -8.3350   -6.2920 C   0  0  0  0  0  2  0  0  0  0  0  0
    7.0960   -8.1810   -6.4170 N   0  0  0  0  0  0  0  0  0  0  0  0
    7.8390   -9.1850   -7.1630 C   0  0  0  0  0  1  0  0  0  0  0  0
    7.8140   -7.1410   -5.8430 C   0  0  0  0  0  0  0  0  0  0  0  0
    9.0000   -6.9120   -6.0730 O   0  0  0  0  0  0  0  0  0  0  0  0
    2.7270   -6.6760   -9.9790 H   0  0  0  0  0  0  0  0  0  0  0  0
    2.1020   -4.9930   -3.4470 C   0  0  0  0  0  3  0  0  0  0  0  0
    1.1470   -3.7900   -3.4290 C   0  0  0  0  0  2  0  0  0  0  0  0
    0.0080   -3.9930   -2.4320 C   0  0  0  0  0  2  0  0  0  0  0  0
   -0.7380   -5.3010   -2.6850 C   0  0  0  0  0  2  0  0  0  0  0  0
    0.2080   -6.4970   -2.6880 C   0  0  0  0  0  2  0  0  0  0  0  0
    1.3460   -6.3110   -3.6910 C   0  0  0  0  0  2  0  0  0  0  0  0
    6.3900   -5.0840    2.1640 C   0  0  0  0  0  1  0  0  0  0  0  0
    7.0920   -5.4280    0.9760 O   0  0  0  0  0  0  0  0  0  0  0  0
  1 44  1  0  0  0  0
  2  1  1  0  0  0  0
  3  2  2  0  0  0  0
  4  5  2  0  0  0  0
  4  3  1  0  0  0  0
  5  6  1  0  0  0  0
  6  1  2  0  0  0  0
  7  5  1  0  0  0  0
  8  7  2  0  0  0  0
  9 10  1  0  0  0  0
  9  8  1  0  0  0  0
 10 11  1  0  0  0  0
 11  4  1  0  0  0  0
 12 11  2  0  0  0  0
 12 37  1  0  0  0  0
 13 12  1  0  0  0  0
 14 13  2  0  0  0  0
 15 14  1  0  0  0  0
 16 15  2  0  0  0  0
 16 17  1  0  0  0  0
 17 18  2  0  0  0  0
 18 13  1  0  0  0  0
 18 10  1  0  0  0  0
 19 16  1  0  0  0  0
 20 19  2  0  0  0  0
 21 19  1  0  0  0  0
 21 36  1  0  0  0  0
 22 25  1  0  0  0  0
 22 21  1  0  0  0  0
 23 22  2  0  0  0  0
 24 22  2  0  0  0  0
 25 26  1  0  0  0  0
 25 27  1  0  0  0  0
 27 28  1  0  0  0  0
 28 29  1  0  0  0  0
 29 30  1  0  0  0  0
 30 31  1  0  0  0  0
 32 31  1  0  0  0  0
 32 34  1  0  0  0  0
 33 32  1  0  0  0  0
 34  8  1  0  0  0  0
 35 34  2  0  0  0  0
 37 38  1  0  0  0  0
 38 39  1  0  0  0  0
 40 39  1  0  0  0  0
 41 40  1  0  0  0  0
 42 37  1  0  0  0  0
 42 41  1  0  0  0  0
 44 43  1  0  0  0  0
M  END
>  <minimizedAffinity>
-5.17484093

$$$$

 OpenBabel09082221113D

 44 49  0  0  0  0  0  0  0  0999 V2000
    6.5260   -3.9860    0.7030 C   0  0  0  0  0  0  0  0  0  0  0  0
    6.8360   -5.2670    0.2530 C   0  0  0  0  0  3  0  0  0  0  0  0
    6.1550   -5.8070   -0.8430 C   0  0  0  0  0  3  0  0  0  0  0  0
    5.1590   -5.0800   -1.5130 C   0  0  0  0  0  0  0  0  0  0  0  0
    4.8110   -3.7970   -1.0300 C   0  0  0  0  0  0  0  0  0  0  0  0
    5.5200   -3.2610    0.0600 C   0  0  0  0  0  3  0  0  0  0  0  0
    3.7200   -2.9680   -1.5860 C   0  0  0  0  0  3  0  0  0  0  0  0
    2.5530   -3.4980   -1.9960 C   0  0  0  0  0  0  0  0  0  0  0  0
    2.2230   -4.9570   -1.9570 C   0  0  0  0  0  2  0  0  0  0  0  0
    3.1290   -5.6750   -2.8540 N   0  0  0  0  0  0  0  0  0  0  0  0
    4.5040   -5.6870   -2.6910 C   0  0  0  0  0  0  0  0  0  0  0  0
    5.0510   -6.2480   -3.8480 C   0  0  0  0  0  0  0  0  0  0  0  0
    3.9520   -6.5870   -4.7140 C   0  0  0  0  0  0  0  0  0  0  0  0
    3.8600   -7.1230   -6.0200 C   0  0  0  0  0  3  0  0  0  0  0  0
    2.6210   -7.1940   -6.6670 C   0  0  0  0  0  3  0  0  0  0  0  0
    1.4680   -6.7800   -6.0040 C   0  0  0  0  0  0  0  0  0  0  0  0
    1.5150   -6.3310   -4.6800 C   0  0  0  0  0  3  0  0  0  0  0  0
    2.7730   -6.2160   -4.0680 C   0  0  0  0  0  0  0  0  0  0  0  0
    0.1700   -6.6530   -6.7000 C   0  0  0  0  0  0  0  0  0  0  0  0
   -0.8690   -6.9850   -6.1530 O   0  0  0  0  0  0  0  0  0  0  0  0
    0.2750   -6.0240   -7.9450 N   0  0  0  0  0  0  0  0  0  0  0  0
   -0.9760   -5.4420   -8.8430 S   0  0  0  0  0  0  0  0  0  0  0  0
   -0.3680   -4.9740  -10.0700 O   0  0  0  0  0  0  0  0  0  0  0  0
   -2.0510   -6.3990   -8.8620 O   0  0  0  0  0  0  0  0  0  0  0  0
   -1.4300   -4.0950   -7.9710 N   0  0  0  0  0  0  0  0  0  0  0  0
   -2.1120   -4.2530   -6.6830 C   0  0  0  0  0  1  0  0  0  0  0  0
   -0.8150   -2.7760   -8.2180 C   0  0  0  0  0  2  0  0  0  0  0  0
    0.6890   -2.6890   -7.9440 C   0  0  0  0  0  2  0  0  0  0  0  0
    0.9790   -2.8590   -6.5490 O   0  0  0  0  0  0  0  0  0  0  0  0
    2.1830   -2.1750   -6.1770 C   0  0  0  0  0  2  0  0  0  0  0  0
    2.5460   -2.4210   -4.7030 C   0  0  0  0  0  2  0  0  0  0  0  0
    1.5570   -2.0150   -3.6870 N   0  0  0  0  0  0  0  0  0  0  0  0
    0.6370   -0.9340   -4.0070 C   0  0  0  0  0  1  0  0  0  0  0  0
    1.4660   -2.5890   -2.4270 C   0  0  0  0  0  0  0  0  0  0  0  0
    0.5490   -2.3750   -1.6370 O   0  0  0  0  0  0  0  0  0  0  0  0
    1.1620   -5.6400   -8.2410 H   0  0  0  0  0  0  0  0  0  0  0  0
    6.5290   -6.3710   -4.1730 C   0  0  0  0  0  3  0  0  0  0  0  0
    6.9070   -7.7720   -4.6760 C   0  0  0  0  0  2  0  0  0  0  0  0
    8.4030   -7.8780   -4.9680 C   0  0  0  0  0  2  0  0  0  0  0  0
    8.8680   -6.7890   -5.9320 C   0  0  0  0  0  2  0  0  0  0  0  0
    8.5060   -5.3960   -5.4240 C   0  0  0  0  0  2  0  0  0  0  0  0
    7.0100   -5.2740   -5.1400 C   0  0  0  0  0  2  0  0  0  0  0  0
    7.5400   -2.0000    1.5290 C   0  0  0  0  0  1  0  0  0  0  0  0
    7.1150   -3.3390    1.7540 O   0  0  0  0  0  0  0  0  0  0  0  0
  1 44  1  0  0  0  0
  2  1  1  0  0  0  0
  3  2  2  0  0  0  0
  4  5  2  0  0  0  0
  4  3  1  0  0  0  0
  5  6  1  0  0  0  0
  6  1  2  0  0  0  0
  7  5  1  0  0  0  0
  8  9  1  0  0  0  0
  8  7  2  0  0  0  0
 10 11  1  0  0  0  0
 10  9  1  0  0  0  0
 11  4  1  0  0  0  0
 12 11  2  0  0  0  0
 13 18  1  0  0  0  0
 13 12  1  0  0  0  0
 14 13  2  0  0  0  0
 15 14  1  0  0  0  0
 15 16  2  0  0  0  0
 16 17  1  0  0  0  0
 17 18  2  0  0  0  0
 18 10  1  0  0  0  0
 19 20  2  0  0  0  0
 19 16  1  0  0  0  0
 21 19  1  0  0  0  0
 22 25  1  0  0  0  0
 22 21  1  0  0  0  0
 23 22  2  0  0  0  0
 24 22  2  0  0  0  0
 25 26  1  0  0  0  0
 27 25  1  0  0  0  0
 27 28  1  0  0  0  0
 28 29  1  0  0  0  0
 29 30  1  0  0  0  0
 30 31  1  0  0  0  0
 31 32  1  0  0  0  0
 32 34  1  0  0  0  0
 33 32  1  0  0  0  0
 34  8  1  0  0  0  0
 34 35  2  0  0  0  0
 36 21  1  0  0  0  0
 37 12  1  0  0  0  0
 38 37  1  0  0  0  0
 39 38  1  0  0  0  0
 40 41  1  0  0  0  0
 40 39  1  0  0  0  0
 41 42  1  0  0  0  0
 42 37  1  0  0  0  0
 43 44  1  0  0  0  0
M  END
>  <minimizedAffinity>
-4.97045422

$$$$

 OpenBabel09082221113D

 44 49  0  0  0  0  0  0  0  0999 V2000
    6.7600   -5.9010    0.4160 C   0  0  0  0  0  0  0  0  0  0  0  0
    5.8970   -4.9920    1.0200 C   0  0  0  0  0  3  0  0  0  0  0  0
    4.9310   -4.3300    0.2540 C   0  0  0  0  0  3  0  0  0  0  0  0
    4.8050   -4.5670   -1.1230 C   0  0  0  0  0  0  0  0  0  0  0  0
    5.7110   -5.4570   -1.7470 C   0  0  0  0  0  0  0  0  0  0  0  0
    6.6610   -6.1280   -0.9590 C   0  0  0  0  0  3  0  0  0  0  0  0
    5.7450   -5.7220   -3.2010 C   0  0  0  0  0  3  0  0  0  0  0  0
    5.5470   -4.7530   -4.1130 C   0  0  0  0  0  0  0  0  0  0  0  0
    5.2600   -3.3230   -3.7830 C   0  0  0  0  0  2  0  0  0  0  0  0
    3.9790   -3.2420   -3.0820 N   0  0  0  0  0  0  0  0  0  0  0  0
    3.7370   -3.8700   -1.8710 C   0  0  0  0  0  0  0  0  0  0  0  0
    2.3630   -3.7860   -1.6310 C   0  0  0  0  0  0  0  0  0  0  0  0
    1.7830   -3.0710   -2.7370 C   0  0  0  0  0  0  0  0  0  0  0  0
    0.4600   -2.7210   -3.0960 C   0  0  0  0  0  3  0  0  0  0  0  0
    0.1970   -2.1450   -4.3440 C   0  0  0  0  0  3  0  0  0  0  0  0
    1.2470   -1.8720   -5.2170 C   0  0  0  0  0  0  0  0  0  0  0  0
    2.5740   -2.1230   -4.8540 C   0  0  0  0  0  3  0  0  0  0  0  0
    2.8130   -2.7500   -3.6220 C   0  0  0  0  0  0  0  0  0  0  0  0
    1.0110   -1.4460   -6.6130 C   0  0  0  0  0  0  0  0  0  0  0  0
    1.7110   -0.5930   -7.1330 O   0  0  0  0  0  0  0  0  0  0  0  0
    0.0200   -2.1960   -7.2540 N   0  0  0  0  0  0  0  0  0  0  0  0
   -0.2850   -2.2120   -8.8720 S   0  0  0  0  0  0  0  0  0  0  0  0
   -1.4480   -3.0600   -9.0240 O   0  0  0  0  0  0  0  0  0  0  0  0
   -0.2720   -0.8670   -9.3860 O   0  0  0  0  0  0  0  0  0  0  0  0
    1.0250   -3.0590   -9.4610 N   0  0  0  0  0  0  0  0  0  0  0  0
    2.3530   -2.4370   -9.4740 C   0  0  0  0  0  1  0  0  0  0  0  0
    1.0010   -4.5300   -9.5780 C   0  0  0  0  0  2  0  0  0  0  0  0
    0.8530   -5.2930   -8.2580 C   0  0  0  0  0  2  0  0  0  0  0  0
    2.0000   -5.1130   -7.4170 O   0  0  0  0  0  0  0  0  0  0  0  0
    2.1970   -6.2390   -6.5500 C   0  0  0  0  0  2  0  0  0  0  0  0
    3.3750   -6.0180   -5.5860 C   0  0  0  0  0  2  0  0  0  0  0  0
    4.7000   -5.7730   -6.1860 N   0  0  0  0  0  0  0  0  0  0  0  0
    4.9740   -6.3110   -7.5090 C   0  0  0  0  0  1  0  0  0  0  0  0
    5.7170   -5.0750   -5.5490 C   0  0  0  0  0  0  0  0  0  0  0  0
    6.7610   -4.7260   -6.0960 O   0  0  0  0  0  0  0  0  0  0  0  0
   -0.3930   -2.9900   -6.7850 H   0  0  0  0  0  0  0  0  0  0  0  0
    1.6140   -4.4270   -0.4770 C   0  0  0  0  0  3  0  0  0  0  0  0
    0.9140   -3.3930    0.4190 C   0  0  0  0  0  2  0  0  0  0  0  0
    0.1920   -4.0610    1.5870 C   0  0  0  0  0  2  0  0  0  0  0  0
   -0.7760   -5.1400    1.1100 C   0  0  0  0  0  2  0  0  0  0  0  0
   -0.0780   -6.1750    0.2340 C   0  0  0  0  0  2  0  0  0  0  0  0
    0.6380   -5.5210   -0.9460 C   0  0  0  0  0  2  0  0  0  0  0  0
    8.2730   -7.7350    0.3440 C   0  0  0  0  0  1  0  0  0  0  0  0
    7.7420   -6.6180    1.0450 O   0  0  0  0  0  0  0  0  0  0  0  0
  1  2  1  0  0  0  0
  1 44  1  0  0  0  0
  3  2  2  0  0  0  0
  4  3  1  0  0  0  0
  5  4  2  0  0  0  0
  5  6  1  0  0  0  0
  6  1  2  0  0  0  0
  7  5  1  0  0  0  0
  8  9  1  0  0  0  0
  8  7  2  0  0  0  0
  9 10  1  0  0  0  0
 10 11  1  0  0  0  0
 11 12  2  0  0  0  0
 11  4  1  0  0  0  0
 12 37  1  0  0  0  0
 13 12  1  0  0  0  0
 14 13  1  0  0  0  0
 15 14  2  0  0  0  0
 16 17  2  0  0  0  0
 16 15  1  0  0  0  0
 17 18  1  0  0  0  0
 18 10  1  0  0  0  0
 18 13  2  0  0  0  0
 19 16  1  0  0  0  0
 20 19  2  0  0  0  0
 21 36  1  0  0  0  0
 21 19  1  0  0  0  0
 22 21  1  0  0  0  0
 23 22  2  0  0  0  0
 24 22  2  0  0  0  0
 25 22  1  0  0  0  0
 26 25  1  0  0  0  0
 27 25  1  0  0  0  0
 27 28  1  0  0  0  0
 28 29  1  0  0  0  0
 29 30  1  0  0  0  0
 30 31  1  0  0  0  0
 32 31  1  0  0  0  0
 32 34  1  0  0  0  0
 33 32  1  0  0  0  0
 34  8  1  0  0  0  0
 35 34  2  0  0  0  0
 37 38  1  0  0  0  0
 38 39  1  0  0  0  0
 40 39  1  0  0  0  0
 41 40  1  0  0  0  0
 42 37  1  0  0  0  0
 42 41  1  0  0  0  0
 43 44  1  0  0  0  0
M  END
>  <minimizedAffinity>
-4.85847425

$$$$

 OpenBabel09082221113D

 44 49  0  0  0  0  0  0  0  0999 V2000
    2.5650   -4.3320   -9.6130 C   0  0  0  0  0  0  0  0  0  0  0  0
    3.9470   -4.3800   -9.4540 C   0  0  0  0  0  3  0  0  0  0  0  0
    4.5020   -4.4250   -8.1710 C   0  0  0  0  0  3  0  0  0  0  0  0
    3.6910   -4.4300   -7.0250 C   0  0  0  0  0  0  0  0  0  0  0  0
    2.2880   -4.3370   -7.1830 C   0  0  0  0  0  0  0  0  0  0  0  0
    1.7470   -4.3120   -8.4810 C   0  0  0  0  0  3  0  0  0  0  0  0
    1.3310   -4.2390   -6.0610 C   0  0  0  0  0  3  0  0  0  0  0  0
    1.5910   -3.5180   -4.9550 C   0  0  0  0  0  0  0  0  0  0  0  0
    2.8550   -2.7540   -4.7190 C   0  0  0  0  0  2  0  0  0  0  0  0
    3.9750   -3.6930   -4.6490 N   0  0  0  0  0  0  0  0  0  0  0  0
    4.3340   -4.5230   -5.6980 C   0  0  0  0  0  0  0  0  0  0  0  0
    5.2630   -5.4390   -5.1980 C   0  0  0  0  0  0  0  0  0  0  0  0
    5.4640   -5.1230   -3.8080 C   0  0  0  0  0  0  0  0  0  0  0  0
    6.2250   -5.7060   -2.7680 C   0  0  0  0  0  3  0  0  0  0  0  0
    6.0870   -5.2490   -1.4520 C   0  0  0  0  0  3  0  0  0  0  0  0
    5.2340   -4.1840   -1.1740 C   0  0  0  0  0  0  0  0  0  0  0  0
    4.5380   -3.5280   -2.1940 C   0  0  0  0  0  3  0  0  0  0  0  0
    4.6470   -4.0350   -3.4980 C   0  0  0  0  0  0  0  0  0  0  0  0
    4.9050   -3.7880    0.2120 C   0  0  0  0  0  0  0  0  0  0  0  0
    4.8070   -2.6120    0.5200 O   0  0  0  0  0  0  0  0  0  0  0  0
    4.6190   -4.8780    1.0400 N   0  0  0  0  0  0  0  0  0  0  0  0
    3.9230   -4.8040    2.5300 S   0  0  0  0  0  0  0  0  0  0  0  0
    3.9230   -6.1690    3.0100 O   0  0  0  0  0  0  0  0  0  0  0  0
    4.5230   -3.7440    3.2980 O   0  0  0  0  0  0  0  0  0  0  0  0
    2.3460   -4.4110    2.1550 N   0  0  0  0  0  0  0  0  0  0  0  0
    2.0220   -3.0660    1.6710 C   0  0  0  0  0  1  0  0  0  0  0  0
    1.3370   -5.4540    1.8840 C   0  0  0  0  0  2  0  0  0  0  0  0
    1.6150   -6.3370    0.6630 C   0  0  0  0  0  2  0  0  0  0  0  0
    1.5500   -5.5820   -0.5550 O   0  0  0  0  0  0  0  0  0  0  0  0
    1.1640   -6.4080   -1.6630 C   0  0  0  0  0  2  0  0  0  0  0  0
    1.1730   -5.6260   -2.9870 C   0  0  0  0  0  2  0  0  0  0  0  0
    0.2960   -4.4440   -3.0790 N   0  0  0  0  0  0  0  0  0  0  0  0
   -0.9010   -4.4020   -2.2540 C   0  0  0  0  0  1  0  0  0  0  0  0
    0.5330   -3.3720   -3.9290 C   0  0  0  0  0  0  0  0  0  0  0  0
   -0.0960   -2.3170   -3.8990 O   0  0  0  0  0  0  0  0  0  0  0  0
    4.5720   -5.8090    0.6480 H   0  0  0  0  0  0  0  0  0  0  0  0
    5.8610   -6.6120   -5.9530 C   0  0  0  0  0  3  0  0  0  0  0  0
    7.3930   -6.5430   -6.0340 C   0  0  0  0  0  2  0  0  0  0  0  0
    7.9670   -7.7180   -6.8230 C   0  0  0  0  0  2  0  0  0  0  0  0
    7.4930   -9.0580   -6.2650 C   0  0  0  0  0  2  0  0  0  0  0  0
    5.9710   -9.1320   -6.1980 C   0  0  0  0  0  2  0  0  0  0  0  0
    5.3850   -7.9680   -5.4020 C   0  0  0  0  0  2  0  0  0  0  0  0
    1.5030   -3.0080  -11.2780 C   0  0  0  0  0  1  0  0  0  0  0  0
    1.8930   -4.2900  -10.8040 O   0  0  0  0  0  0  0  0  0  0  0  0
  1  2  2  0  0  0  0
  1  6  1  0  0  0  0
  2  3  1  0  0  0  0
  3  4  2  0  0  0  0
  4 11  1  0  0  0  0
  5  4  1  0  0  0  0
  5  7  1  0  0  0  0
  6  5  2  0  0  0  0
  7  8  2  0  0  0  0
  8  9  1  0  0  0  0
  8 34  1  0  0  0  0
  9 10  1  0  0  0  0
 10 18  1  0  0  0  0
 11 12  2  0  0  0  0
 11 10  1  0  0  0  0
 12 13  1  0  0  0  0
 13 18  2  0  0  0  0
 13 14  1  0  0  0  0
 14 15  2  0  0  0  0
 15 16  1  0  0  0  0
 16 19  1  0  0  0  0
 17 16  2  0  0  0  0
 18 17  1  0  0  0  0
 19 20  2  0  0  0  0
 19 21  1  0  0  0  0
 21 22  1  0  0  0  0
 22 23  2  0  0  0  0
 22 24  2  0  0  0  0
 25 22  1  0  0  0  0
 26 25  1  0  0  0  0
 27 25  1  0  0  0  0
 28 27  1  0  0  0  0
 29 28  1  0  0  0  0
 30 29  1  0  0  0  0
 31 30  1  0  0  0  0
 32 31  1  0  0  0  0
 32 33  1  0  0  0  0
 34 35  2  0  0  0  0
 34 32  1  0  0  0  0
 36 21  1  0  0  0  0
 37 42  1  0  0  0  0
 37 12  1  0  0  0  0
 38 37  1  0  0  0  0
 39 40  1  0  0  0  0
 39 38  1  0  0  0  0
 40 41  1  0  0  0  0
 41 42  1  0  0  0  0
 43 44  1  0  0  0  0
 44  1  1  0  0  0  0
M  END
>  <minimizedAffinity>
-4.61860704

$$$$

 OpenBabel09082221113D

 44 49  0  0  0  0  0  0  0  0999 V2000
    6.4040   -5.4220    0.7070 C   0  0  0  0  0  0  0  0  0  0  0  0
    5.2520   -4.6540    0.8590 C   0  0  0  0  0  3  0  0  0  0  0  0
    4.4490   -4.3720   -0.2510 C   0  0  0  0  0  3  0  0  0  0  0  0
    4.7730   -4.8540   -1.5280 C   0  0  0  0  0  0  0  0  0  0  0  0
    5.9660   -5.5980   -1.6930 C   0  0  0  0  0  0  0  0  0  0  0  0
    6.7510   -5.8880   -0.5630 C   0  0  0  0  0  3  0  0  0  0  0  0
    6.4690   -6.0830   -2.9960 C   0  0  0  0  0  3  0  0  0  0  0  0
    6.3740   -5.3500   -4.1210 C   0  0  0  0  0  0  0  0  0  0  0  0
    5.7510   -3.9920   -4.1990 C   0  0  0  0  0  2  0  0  0  0  0  0
    4.3290   -4.1010   -3.8750 N   0  0  0  0  0  0  0  0  0  0  0  0
    3.8620   -4.5600   -2.6540 C   0  0  0  0  0  0  0  0  0  0  0  0
    2.4860   -4.7620   -2.7890 C   0  0  0  0  0  0  0  0  0  0  0  0
    2.1340   -4.3950   -4.1350 C   0  0  0  0  0  0  0  0  0  0  0  0
    0.9320   -4.4280   -4.8810 C   0  0  0  0  0  3  0  0  0  0  0  0
    0.9440   -4.1430   -6.2510 C   0  0  0  0  0  3  0  0  0  0  0  0
    2.1350   -3.7780   -6.8730 C   0  0  0  0  0  0  0  0  0  0  0  0
    3.3220   -3.6480   -6.1450 C   0  0  0  0  0  3  0  0  0  0  0  0
    3.3010   -3.9910   -4.7840 C   0  0  0  0  0  0  0  0  0  0  0  0
    2.2440   -3.6550   -8.3420 C   0  0  0  0  0  0  0  0  0  0  0  0
    2.8990   -2.7590   -8.8480 O   0  0  0  0  0  0  0  0  0  0  0  0
    1.6330   -4.7110   -9.0270 N   0  0  0  0  0  0  0  0  0  0  0  0
    1.8200   -5.0640  -10.6240 S   0  0  0  0  0  0  0  0  0  0  0  0
    0.9240   -6.1740  -10.8680 O   0  0  0  0  0  0  0  0  0  0  0  0
    1.7400   -3.8570  -11.4050 O   0  0  0  0  0  0  0  0  0  0  0  0
    3.3750   -5.6650  -10.6650 N   0  0  0  0  0  0  0  0  0  0  0  0
    4.5140   -4.7600  -10.4840 C   0  0  0  0  0  1  0  0  0  0  0  0
    3.6520   -7.1000  -10.4530 C   0  0  0  0  0  2  0  0  0  0  0  0
    3.2650   -7.6480   -9.0760 C   0  0  0  0  0  2  0  0  0  0  0  0
    4.0670   -7.0680   -8.0380 O   0  0  0  0  0  0  0  0  0  0  0  0
    4.2020   -7.9590   -6.9220 C   0  0  0  0  0  2  0  0  0  0  0  0
    4.9890   -7.3130   -5.7690 C   0  0  0  0  0  2  0  0  0  0  0  0
    6.3640   -6.8660   -6.0580 N   0  0  0  0  0  0  0  0  0  0  0  0
    7.1040   -7.5350   -7.1180 C   0  0  0  0  0  1  0  0  0  0  0  0
    7.0100   -5.8550   -5.3600 C   0  0  0  0  0  0  0  0  0  0  0  0
    8.0860   -5.3650   -5.6930 O   0  0  0  0  0  0  0  0  0  0  0  0
    1.2520   -5.4920   -8.5110 H   0  0  0  0  0  0  0  0  0  0  0  0
    1.5620   -5.3620   -1.7450 C   0  0  0  0  0  3  0  0  0  0  0  0
    0.4590   -4.3880   -1.3040 C   0  0  0  0  0  2  0  0  0  0  0  0
   -0.4390   -5.0050   -0.2340 C   0  0  0  0  0  2  0  0  0  0  0  0
   -1.0180   -6.3430   -0.6850 C   0  0  0  0  0  2  0  0  0  0  0  0
    0.0780   -7.3160   -1.1090 C   0  0  0  0  0  2  0  0  0  0  0  0
    0.9760   -6.7150   -2.1880 C   0  0  0  0  0  2  0  0  0  0  0  0
    6.8200   -5.6070    3.0400 C   0  0  0  0  0  1  0  0  0  0  0  0
    7.2720   -5.7750    1.7030 O   0  0  0  0  0  0  0  0  0  0  0  0
  1  2  1  0  0  0  0
  1 44  1  0  0  0  0
  3  2  2  0  0  0  0
  4  3  1  0  0  0  0
  5  4  2  0  0  0  0
  5  6  1  0  0  0  0
  6  1  2  0  0  0  0
  7  5  1  0  0  0  0
  8  7  2  0  0  0  0
  9  8  1  0  0  0  0
  9 10  1  0  0  0  0
 10 11  1  0  0  0  0
 11  4  1  0  0  0  0
 12 11  2  0  0  0  0
 12 37  1  0  0  0  0
 13 12  1  0  0  0  0
 14 13  2  0  0  0  0
 15 14  1  0  0  0  0
 16 15  2  0  0  0  0
 16 17  1  0  0  0  0
 17 18  2  0  0  0  0
 18 13  1  0  0  0  0
 18 10  1  0  0  0  0
 19 16  1  0  0  0  0
 20 19  2  0  0  0  0
 21 36  1  0  0  0  0
 21 19  1  0  0  0  0
 22 21  1  0  0  0  0
 23 22  2  0  0  0  0
 24 22  2  0  0  0  0
 25 22  1  0  0  0  0
 25 26  1  0  0  0  0
 25 27  1  0  0  0  0
 27 28  1  0  0  0  0
 28 29  1  0  0  0  0
 29 30  1  0  0  0  0
 30 31  1  0  0  0  0
 32 31  1  0  0  0  0
 32 34  1  0  0  0  0
 33 32  1  0  0  0  0
 34  8  1  0  0  0  0
 35 34  2  0  0  0  0
 37 38  1  0  0  0  0
 38 39  1  0  0  0  0
 40 39  1  0  0  0  0
 41 40  1  0  0  0  0
 42 37  1  0  0  0  0
 42 41  1  0  0  0  0
 44 43  1  0  0  0  0
M  END
>  <minimizedAffinity>
-4.60812807

$$$$

 OpenBabel09082221113D

 44 49  0  0  0  0  0  0  0  0999 V2000
   -0.5660   -0.3240  -12.7680 C   0  0  0  0  0  0  0  0  0  0  0  0
    0.2440   -1.2100  -13.4720 C   0  0  0  0  0  3  0  0  0  0  0  0
    1.0910   -2.0830  -12.7820 C   0  0  0  0  0  3  0  0  0  0  0  0
    1.1410   -2.0940  -11.3800 C   0  0  0  0  0  0  0  0  0  0  0  0
    0.3510   -1.1640  -10.6630 C   0  0  0  0  0  0  0  0  0  0  0  0
   -0.5090   -0.3080  -11.3720 C   0  0  0  0  0  3  0  0  0  0  0  0
    0.3800   -1.0100   -9.1920 C   0  0  0  0  0  3  0  0  0  0  0  0
    1.5210   -1.0970   -8.4830 C   0  0  0  0  0  0  0  0  0  0  0  0
    2.8680   -1.3670   -9.0730 C   0  0  0  0  0  2  0  0  0  0  0  0
    2.8680   -2.7030   -9.6710 N   0  0  0  0  0  0  0  0  0  0  0  0
    2.0230   -3.0700  -10.7050 C   0  0  0  0  0  0  0  0  0  0  0  0
    2.1230   -4.4560  -10.8470 C   0  0  0  0  0  0  0  0  0  0  0  0
    3.0710   -4.9140   -9.8650 C   0  0  0  0  0  0  0  0  0  0  0  0
    3.5490   -6.1890   -9.4810 C   0  0  0  0  0  3  0  0  0  0  0  0
    4.3750   -6.3240   -8.3580 C   0  0  0  0  0  3  0  0  0  0  0  0
    4.7660   -5.1920   -7.6470 C   0  0  0  0  0  0  0  0  0  0  0  0
    4.3850   -3.9110   -8.0560 C   0  0  0  0  0  3  0  0  0  0  0  0
    3.5140   -3.8010   -9.1500 C   0  0  0  0  0  0  0  0  0  0  0  0
    5.4740   -5.2910   -6.3520 C   0  0  0  0  0  0  0  0  0  0  0  0
    6.3790   -4.5220   -6.0740 O   0  0  0  0  0  0  0  0  0  0  0  0
    4.9160   -6.2440   -5.4940 N   0  0  0  0  0  0  0  0  0  0  0  0
    5.2370   -6.4050   -3.8870 S   0  0  0  0  0  0  0  0  0  0  0  0
    4.4930   -7.5750   -3.4730 O   0  0  0  0  0  0  0  0  0  0  0  0
    6.6550   -6.3050   -3.6600 O   0  0  0  0  0  0  0  0  0  0  0  0
    4.4640   -5.0750   -3.2460 N   0  0  0  0  0  0  0  0  0  0  0  0
    5.0120   -3.7330   -3.4670 C   0  0  0  0  0  1  0  0  0  0  0  0
    3.0480   -5.1330   -2.8310 C   0  0  0  0  0  2  0  0  0  0  0  0
    2.0460   -5.4210   -3.9520 C   0  0  0  0  0  2  0  0  0  0  0  0
    1.9990   -4.3470   -4.9020 O   0  0  0  0  0  0  0  0  0  0  0  0
    0.7140   -4.2620   -5.5340 C   0  0  0  0  0  2  0  0  0  0  0  0
    0.6810   -3.1680   -6.6140 C   0  0  0  0  0  2  0  0  0  0  0  0
    0.9780   -1.7880   -6.1860 N   0  0  0  0  0  0  0  0  0  0  0  0
    0.7020   -1.4150   -4.8070 C   0  0  0  0  0  1  0  0  0  0  0  0
    1.4840   -0.8100   -7.0310 C   0  0  0  0  0  0  0  0  0  0  0  0
    1.8860    0.2880   -6.6510 O   0  0  0  0  0  0  0  0  0  0  0  0
    4.0640   -6.7210   -5.7570 H   0  0  0  0  0  0  0  0  0  0  0  0
    1.3010   -5.3240  -11.7820 C   0  0  0  0  0  3  0  0  0  0  0  0
    2.1660   -6.0600  -12.8160 C   0  0  0  0  0  2  0  0  0  0  0  0
    1.3140   -6.9030  -13.7630 C   0  0  0  0  0  2  0  0  0  0  0  0
    0.4060   -7.8650  -13.0000 C   0  0  0  0  0  2  0  0  0  0  0  0
   -0.4640   -7.1320  -11.9840 C   0  0  0  0  0  2  0  0  0  0  0  0
    0.3790   -6.2950  -11.0240 C   0  0  0  0  0  2  0  0  0  0  0  0
   -1.2240    1.9480  -13.0120 C   0  0  0  0  0  1  0  0  0  0  0  0
   -1.4400    0.5760  -13.3140 O   0  0  0  0  0  0  0  0  0  0  0  0
  1  6  1  0  0  0  0
  2  3  1  0  0  0  0
  2  1  2  0  0  0  0
  3  4  2  0  0  0  0
  4 11  1  0  0  0  0
  4  5  1  0  0  0  0
  5  7  1  0  0  0  0
  6  5  2  0  0  0  0
  7  8  2  0  0  0  0
  8 34  1  0  0  0  0
  9  8  1  0  0  0  0
 10 18  1  0  0  0  0
 10  9  1  0  0  0  0
 11 10  1  0  0  0  0
 12 11  2  0  0  0  0
 12 13  1  0  0  0  0
 13 14  2  0  0  0  0
 13 18  1  0  0  0  0
 14 15  1  0  0  0  0
 15 16  2  0  0  0  0
 16 19  1  0  0  0  0
 17 16  1  0  0  0  0
 18 17  2  0  0  0  0
 19 20  2  0  0  0  0
 19 21  1  0  0  0  0
 21 22  1  0  0  0  0
 22 24  2  0  0  0  0
 22 23  2  0  0  0  0
 22 25  1  0  0  0  0
 25 27  1  0  0  0  0
 26 25  1  0  0  0  0
 28 27  1  0  0  0  0
 29 28  1  0  0  0  0
 30 29  1  0  0  0  0
 31 32  1  0  0  0  0
 31 30  1  0  0  0  0
 32 33  1  0  0  0  0
 34 35  2  0  0  0  0
 34 32  1  0  0  0  0
 36 21  1  0  0  0  0
 37 42  1  0  0  0  0
 37 12  1  0  0  0  0
 38 37  1  0  0  0  0
 39 40  1  0  0  0  0
 39 38  1  0  0  0  0
 40 41  1  0  0  0  0
 41 42  1  0  0  0  0
 44 43  1  0  0  0  0
 44  1  1  0  0  0  0
M  END
>  <minimizedAffinity>
-4.58785439

$$$$

 OpenBabel09082221113D

 44 49  0  0  0  0  0  0  0  0999 V2000
    8.7830   -8.3250   -7.5550 C   0  0  0  0  0  0  0  0  0  0  0  0
    9.3240   -7.6800   -6.4460 C   0  0  0  0  0  3  0  0  0  0  0  0
    8.5200   -6.8490   -5.6590 C   0  0  0  0  0  3  0  0  0  0  0  0
    7.1630   -6.6510   -5.9570 C   0  0  0  0  0  0  0  0  0  0  0  0
    6.6220   -7.2700   -7.1090 C   0  0  0  0  0  0  0  0  0  0  0  0
    7.4400   -8.1170   -7.8770 C   0  0  0  0  0  3  0  0  0  0  0  0
    5.2370   -7.0700   -7.5860 C   0  0  0  0  0  3  0  0  0  0  0  0
    4.6240   -5.8740   -7.5300 C   0  0  0  0  0  0  0  0  0  0  0  0
    5.2430   -4.6280   -6.9810 C   0  0  0  0  0  2  0  0  0  0  0  0
    5.5080   -4.8160   -5.5540 N   0  0  0  0  0  0  0  0  0  0  0  0
    6.3540   -5.7970   -5.0640 C   0  0  0  0  0  0  0  0  0  0  0  0
    6.1730   -5.8420   -3.6790 C   0  0  0  0  0  0  0  0  0  0  0  0
    5.1930   -4.8410   -3.3470 C   0  0  0  0  0  0  0  0  0  0  0  0
    4.5600   -4.4460   -2.1450 C   0  0  0  0  0  3  0  0  0  0  0  0
    3.5100   -3.5210   -2.1730 C   0  0  0  0  0  3  0  0  0  0  0  0
    3.1180   -2.9520   -3.3820 C   0  0  0  0  0  0  0  0  0  0  0  0
    3.7840   -3.2540   -4.5740 C   0  0  0  0  0  3  0  0  0  0  0  0
    4.7990   -4.2230   -4.5350 C   0  0  0  0  0  0  0  0  0  0  0  0
    1.8990   -2.1230   -3.4970 C   0  0  0  0  0  0  0  0  0  0  0  0
    1.8850   -1.1260   -4.1990 O   0  0  0  0  0  0  0  0  0  0  0  0
    0.7980   -2.6730   -2.8320 N   0  0  0  0  0  0  0  0  0  0  0  0
   -0.7690   -2.1980   -3.0000 S   0  0  0  0  0  0  0  0  0  0  0  0
   -1.5060   -2.9990   -2.0470 O   0  0  0  0  0  0  0  0  0  0  0  0
   -0.8490   -0.7610   -2.9850 O   0  0  0  0  0  0  0  0  0  0  0  0
   -1.1410   -2.7710   -4.5210 N   0  0  0  0  0  0  0  0  0  0  0  0
   -0.5670   -2.1280   -5.7070 C   0  0  0  0  0  1  0  0  0  0  0  0
   -1.6740   -4.1340   -4.7210 C   0  0  0  0  0  2  0  0  0  0  0  0
   -0.7370   -5.2730   -4.3050 C   0  0  0  0  0  2  0  0  0  0  0  0
    0.4310   -5.3210   -5.1360 O   0  0  0  0  0  0  0  0  0  0  0  0
    0.9570   -6.6520   -5.2240 C   0  0  0  0  0  2  0  0  0  0  0  0
    2.2580   -6.6980   -6.0440 C   0  0  0  0  0  2  0  0  0  0  0  0
    2.1920   -6.2310   -7.4410 N   0  0  0  0  0  0  0  0  0  0  0  0
    0.9210   -6.3220   -8.1440 C   0  0  0  0  0  1  0  0  0  0  0  0
    3.2810   -5.7280   -8.1390 C   0  0  0  0  0  0  0  0  0  0  0  0
    3.2050   -5.1890   -9.2400 O   0  0  0  0  0  0  0  0  0  0  0  0
    0.8720   -3.5880   -2.4090 H   0  0  0  0  0  0  0  0  0  0  0  0
    6.8080   -6.8360   -2.7240 C   0  0  0  0  0  3  0  0  0  0  0  0
    6.8820   -6.3060   -1.2840 C   0  0  0  0  0  2  0  0  0  0  0  0
    7.5500   -7.3120   -0.3490 C   0  0  0  0  0  2  0  0  0  0  0  0
    6.8710   -8.6780   -0.4120 C   0  0  0  0  0  2  0  0  0  0  0  0
    6.8110   -9.2120   -1.8400 C   0  0  0  0  0  2  0  0  0  0  0  0
    6.1340   -8.2190   -2.7820 C   0  0  0  0  0  2  0  0  0  0  0  0
   10.0030   -8.5860   -9.5790 C   0  0  0  0  0  1  0  0  0  0  0  0
    9.4520   -9.1640   -8.4030 O   0  0  0  0  0  0  0  0  0  0  0  0
  1  2  1  0  0  0  0
  2  3  2  0  0  0  0
  4  3  1  0  0  0  0
  4 11  1  0  0  0  0
  5  4  2  0  0  0  0
  6  1  2  0  0  0  0
  6  5  1  0  0  0  0
  7  8  2  0  0  0  0
  7  5  1  0  0  0  0
  8  9  1  0  0  0  0
  9 10  1  0  0  0  0
 10 11  1  0  0  0  0
 10 18  1  0  0  0  0
 11 12  2  0  0  0  0
 12 13  1  0  0  0  0
 12 37  1  0  0  0  0
 13 14  1  0  0  0  0
 15 14  2  0  0  0  0
 16 15  1  0  0  0  0
 17 18  1  0  0  0  0
 17 16  2  0  0  0  0
 18 13  2  0  0  0  0
 19 16  1  0  0  0  0
 19 21  1  0  0  0  0
 20 19  2  0  0  0  0
 21 36  1  0  0  0  0
 22 24  2  0  0  0  0
 22 21  1  0  0  0  0
 22 23  2  0  0  0  0
 25 22  1  0  0  0  0
 26 25  1  0  0  0  0
 27 25  1  0  0  0  0
 27 28  1  0  0  0  0
 29 28  1  0  0  0  0
 30 29  1  0  0  0  0
 31 30  1  0  0  0  0
 32 31  1  0  0  0  0
 33 32  1  0  0  0  0
 34  8  1  0  0  0  0
 34 32  1  0  0  0  0
 35 34  2  0  0  0  0
 37 38  1  0  0  0  0
 38 39  1  0  0  0  0
 40 39  1  0  0  0  0
 41 40  1  0  0  0  0
 42 37  1  0  0  0  0
 42 41  1  0  0  0  0
 43 44  1  0  0  0  0
 44  1  1  0  0  0  0
M  END
>  <minimizedAffinity>
-4.58026791

$$$$

 OpenBabel09082221113D

 44 49  0  0  0  0  0  0  0  0999 V2000
    3.9390   -6.9770   -1.5950 C   0  0  0  0  0  0  0  0  0  0  0  0
    4.5420   -7.6540   -2.6510 C   0  0  0  0  0  3  0  0  0  0  0  0
    4.3330   -7.2270   -3.9670 C   0  0  0  0  0  3  0  0  0  0  0  0
    3.5250   -6.1160   -4.2530 C   0  0  0  0  0  0  0  0  0  0  0  0
    2.8750   -5.4530   -3.1840 C   0  0  0  0  0  0  0  0  0  0  0  0
    3.1130   -5.8840   -1.8670 C   0  0  0  0  0  3  0  0  0  0  0  0
    1.9270   -4.3320   -3.3570 C   0  0  0  0  0  3  0  0  0  0  0  0
    1.0380   -4.2910   -4.3660 C   0  0  0  0  0  0  0  0  0  0  0  0
    0.9060   -5.3400   -5.4230 C   0  0  0  0  0  2  0  0  0  0  0  0
    2.1400   -5.3850   -6.2070 N   0  0  0  0  0  0  0  0  0  0  0  0
    3.3760   -5.6850   -5.6580 C   0  0  0  0  0  0  0  0  0  0  0  0
    4.3390   -5.3940   -6.6280 C   0  0  0  0  0  0  0  0  0  0  0  0
    3.6380   -4.9180   -7.7920 C   0  0  0  0  0  0  0  0  0  0  0  0
    4.0470   -4.4240   -9.0530 C   0  0  0  0  0  3  0  0  0  0  0  0
    3.1080   -3.8800   -9.9360 C   0  0  0  0  0  3  0  0  0  0  0  0
    1.7580   -3.8680   -9.5920 C   0  0  0  0  0  0  0  0  0  0  0  0
    1.3120   -4.4310   -8.3920 C   0  0  0  0  0  3  0  0  0  0  0  0
    2.2740   -4.9220   -7.4970 C   0  0  0  0  0  0  0  0  0  0  0  0
    0.7540   -3.1380  -10.3950 C   0  0  0  0  0  0  0  0  0  0  0  0
   -0.3540   -3.6100  -10.5900 O   0  0  0  0  0  0  0  0  0  0  0  0
    1.1780   -1.8590  -10.7710 N   0  0  0  0  0  0  0  0  0  0  0  0
    0.2250   -0.6680  -11.3890 S   0  0  0  0  0  0  0  0  0  0  0  0
    1.1340    0.4150  -11.6970 O   0  0  0  0  0  0  0  0  0  0  0  0
   -0.6510   -1.2130  -12.3930 O   0  0  0  0  0  0  0  0  0  0  0  0
   -0.6600   -0.2060  -10.0530 N   0  0  0  0  0  0  0  0  0  0  0  0
   -1.6990   -1.0920   -9.5210 C   0  0  0  0  0  1  0  0  0  0  0  0
   -0.1750    0.8440   -9.1340 C   0  0  0  0  0  2  0  0  0  0  0  0
    1.1330    0.5250   -8.4030 C   0  0  0  0  0  2  0  0  0  0  0  0
    0.9700   -0.5700   -7.4910 O   0  0  0  0  0  0  0  0  0  0  0  0
    1.8860   -0.4770   -6.3920 C   0  0  0  0  0  2  0  0  0  0  0  0
    1.7770   -1.6920   -5.4540 C   0  0  0  0  0  2  0  0  0  0  0  0
    0.4660   -1.9430   -4.8270 N   0  0  0  0  0  0  0  0  0  0  0  0
   -0.4310   -0.8170   -4.6170 C   0  0  0  0  0  1  0  0  0  0  0  0
    0.0430   -3.1940   -4.3990 C   0  0  0  0  0  0  0  0  0  0  0  0
   -1.1010   -3.4450   -4.0270 O   0  0  0  0  0  0  0  0  0  0  0  0
    2.0550   -1.4980  -10.4230 H   0  0  0  0  0  0  0  0  0  0  0  0
    5.8440   -5.4620   -6.4460 C   0  0  0  0  0  3  0  0  0  0  0  0
    6.3240   -4.6890   -5.2080 C   0  0  0  0  0  2  0  0  0  0  0  0
    7.8430   -4.7490   -5.0630 C   0  0  0  0  0  2  0  0  0  0  0  0
    8.3550   -6.1880   -5.0630 C   0  0  0  0  0  2  0  0  0  0  0  0
    7.8910   -6.9500   -6.3000 C   0  0  0  0  0  2  0  0  0  0  0  0
    6.3710   -6.9080   -6.4490 C   0  0  0  0  0  2  0  0  0  0  0  0
    3.7740   -6.2480    0.6620 C   0  0  0  0  0  1  0  0  0  0  0  0
    4.0620   -7.2840   -0.2680 O   0  0  0  0  0  0  0  0  0  0  0  0
  1 44  1  0  0  0  0
  2  1  2  0  0  0  0
  3  2  1  0  0  0  0
  4  3  2  0  0  0  0
  4  5  1  0  0  0  0
  5  6  2  0  0  0  0
  6  1  1  0  0  0  0
  7  5  1  0  0  0  0
  8  7  2  0  0  0  0
  9  8  1  0  0  0  0
 10 11  1  0  0  0  0
 10  9  1  0  0  0  0
 11  4  1  0  0  0  0
 12 37  1  0  0  0  0
 12 11  2  0  0  0  0
 13 18  1  0  0  0  0
 13 12  1  0  0  0  0
 14 13  2  0  0  0  0
 15 16  2  0  0  0  0
 15 14  1  0  0  0  0
 16 17  1  0  0  0  0
 17 18  2  0  0  0  0
 18 10  1  0  0  0  0
 19 16  1  0  0  0  0
 20 19  2  0  0  0  0
 21 36  1  0  0  0  0
 21 19  1  0  0  0  0
 22 21  1  0  0  0  0
 22 25  1  0  0  0  0
 23 22  2  0  0  0  0
 24 22  2  0  0  0  0
 25 26  1  0  0  0  0
 25 27  1  0  0  0  0
 27 28  1  0  0  0  0
 28 29  1  0  0  0  0
 29 30  1  0  0  0  0
 30 31  1  0  0  0  0
 31 32  1  0  0  0  0
 32 33  1  0  0  0  0
 32 34  1  0  0  0  0
 34  8  1  0  0  0  0
 34 35  2  0  0  0  0
 37 38  1  0  0  0  0
 38 39  1  0  0  0  0
 39 40  1  0  0  0  0
 41 40  1  0  0  0  0
 42 37  1  0  0  0  0
 42 41  1  0  0  0  0
 44 43  1  0  0  0  0
M  END
>  <minimizedAffinity>
-4.56831598

$$$$

 OpenBabel09082221113D

 44 49  0  0  0  0  0  0  0  0999 V2000
    8.5610   -6.9840   -6.0790 C   0  0  0  0  0  0  0  0  0  0  0  0
    8.4530   -5.8180   -5.3270 C   0  0  0  0  0  3  0  0  0  0  0  0
    7.2360   -5.1300   -5.2750 C   0  0  0  0  0  3  0  0  0  0  0  0
    6.1050   -5.5950   -5.9630 C   0  0  0  0  0  0  0  0  0  0  0  0
    6.2250   -6.7560   -6.7640 C   0  0  0  0  0  0  0  0  0  0  0  0
    7.4490   -7.4450   -6.7890 C   0  0  0  0  0  3  0  0  0  0  0  0
    5.1390   -7.2960   -7.6100 C   0  0  0  0  0  3  0  0  0  0  0  0
    4.3010   -6.5000   -8.2990 C   0  0  0  0  0  0  0  0  0  0  0  0
    4.3500   -5.0050   -8.2880 C   0  0  0  0  0  2  0  0  0  0  0  0
    4.0580   -4.5290   -6.9360 N   0  0  0  0  0  0  0  0  0  0  0  0
    4.8360   -4.8490   -5.8350 C   0  0  0  0  0  0  0  0  0  0  0  0
    4.1320   -4.4380   -4.7000 C   0  0  0  0  0  0  0  0  0  0  0  0
    2.9020   -3.8440   -5.1560 C   0  0  0  0  0  0  0  0  0  0  0  0
    1.7700   -3.3030   -4.5020 C   0  0  0  0  0  3  0  0  0  0  0  0
    0.6390   -2.9350   -5.2390 C   0  0  0  0  0  3  0  0  0  0  0  0
    0.6460   -3.0580   -6.6270 C   0  0  0  0  0  0  0  0  0  0  0  0
    1.7820   -3.5030   -7.3090 C   0  0  0  0  0  3  0  0  0  0  0  0
    2.8860   -3.9180   -6.5490 C   0  0  0  0  0  0  0  0  0  0  0  0
   -0.5790   -2.8680   -7.4330 C   0  0  0  0  0  0  0  0  0  0  0  0
   -0.5370   -2.2940   -8.5090 O   0  0  0  0  0  0  0  0  0  0  0  0
   -1.6980   -3.5050   -6.8880 N   0  0  0  0  0  0  0  0  0  0  0  0
   -3.1310   -3.7680   -7.6560 S   0  0  0  0  0  0  0  0  0  0  0  0
   -3.9850   -4.3700   -6.6550 O   0  0  0  0  0  0  0  0  0  0  0  0
   -3.5330   -2.5790   -8.3600 O   0  0  0  0  0  0  0  0  0  0  0  0
   -2.7240   -4.9640   -8.7440 N   0  0  0  0  0  0  0  0  0  0  0  0
   -1.8860   -4.6440   -9.9030 C   0  0  0  0  0  1  0  0  0  0  0  0
   -2.8090   -6.3930   -8.3840 C   0  0  0  0  0  2  0  0  0  0  0  0
   -1.8860   -6.8410   -7.2470 C   0  0  0  0  0  2  0  0  0  0  0  0
   -0.5050   -6.7440   -7.6240 O   0  0  0  0  0  0  0  0  0  0  0  0
    0.2990   -7.6990   -6.9180 C   0  0  0  0  0  2  0  0  0  0  0  0
    1.7920   -7.5460   -7.2530 C   0  0  0  0  0  2  0  0  0  0  0  0
    2.1860   -7.7000   -8.6650 N   0  0  0  0  0  0  0  0  0  0  0  0
    1.3580   -8.5270   -9.5310 C   0  0  0  0  0  1  0  0  0  0  0  0
    3.3190   -7.1190   -9.2180 C   0  0  0  0  0  0  0  0  0  0  0  0
    3.5690   -7.1050  -10.4210 O   0  0  0  0  0  0  0  0  0  0  0  0
   -1.5950   -4.0920   -6.0710 H   0  0  0  0  0  0  0  0  0  0  0  0
    4.5390   -4.6770   -3.2580 C   0  0  0  0  0  3  0  0  0  0  0  0
    4.5500   -3.3850   -2.4260 C   0  0  0  0  0  2  0  0  0  0  0  0
    4.9900   -3.6480   -0.9870 C   0  0  0  0  0  2  0  0  0  0  0  0
    4.1450   -4.7350   -0.3280 C   0  0  0  0  0  2  0  0  0  0  0  0
    4.1470   -6.0230   -1.1460 C   0  0  0  0  0  2  0  0  0  0  0  0
    3.6970   -5.7750   -2.5840 C   0  0  0  0  0  2  0  0  0  0  0  0
    9.8340   -8.4680   -7.4320 C   0  0  0  0  0  1  0  0  0  0  0  0
    9.6830   -7.7540   -6.2120 O   0  0  0  0  0  0  0  0  0  0  0  0
  1  2  1  0  0  0  0
  2  3  2  0  0  0  0
  4 11  1  0  0  0  0
  4  3  1  0  0  0  0
  5  4  2  0  0  0  0
  6  5  1  0  0  0  0
  6  1  2  0  0  0  0
  7  5  1  0  0  0  0
  8  9  1  0  0  0  0
  8  7  2  0  0  0  0
  9 10  1  0  0  0  0
 10 18  1  0  0  0  0
 10 11  1  0  0  0  0
 11 12  2  0  0  0  0
 12 37  1  0  0  0  0
 13 12  1  0  0  0  0
 13 14  1  0  0  0  0
 15 14  2  0  0  0  0
 16 15  1  0  0  0  0
 17 16  2  0  0  0  0
 17 18  1  0  0  0  0
 18 13  2  0  0  0  0
 19 21  1  0  0  0  0
 19 16  1  0  0  0  0
 20 19  2  0  0  0  0
 21 36  1  0  0  0  0
 22 21  1  0  0  0  0
 22 23  2  0  0  0  0
 24 22  2  0  0  0  0
 25 27  1  0  0  0  0
 25 22  1  0  0  0  0
 26 25  1  0  0  0  0
 27 28  1  0  0  0  0
 29 28  1  0  0  0  0
 29 30  1  0  0  0  0
 31 30  1  0  0  0  0
 32 31  1  0  0  0  0
 33 32  1  0  0  0  0
 34 32  1  0  0  0  0
 34  8  1  0  0  0  0
 35 34  2  0  0  0  0
 37 42  1  0  0  0  0
 37 38  1  0  0  0  0
 38 39  1  0  0  0  0
 39 40  1  0  0  0  0
 41 40  1  0  0  0  0
 42 41  1  0  0  0  0
 43 44  1  0  0  0  0
 44  1  1  0  0  0  0
M  END
>  <minimizedAffinity>
-4.51180363

$$$$

 OpenBabel09082221113D

 44 49  0  0  0  0  0  0  0  0999 V2000
    4.5420   -4.4420   -1.2100 C   0  0  0  0  0  0  0  0  0  0  0  0
    5.0290   -5.5840   -1.8390 C   0  0  0  0  0  3  0  0  0  0  0  0
    4.6930   -5.8450   -3.1710 C   0  0  0  0  0  3  0  0  0  0  0  0
    3.8740   -4.9710   -3.9020 C   0  0  0  0  0  0  0  0  0  0  0  0
    3.3410   -3.8330   -3.2510 C   0  0  0  0  0  0  0  0  0  0  0  0
    3.7050   -3.5760   -1.9180 C   0  0  0  0  0  3  0  0  0  0  0  0
    2.3940   -2.8860   -3.8770 C   0  0  0  0  0  3  0  0  0  0  0  0
    1.4090   -3.2920   -4.6980 C   0  0  0  0  0  0  0  0  0  0  0  0
    1.1590   -4.7150   -5.0850 C   0  0  0  0  0  2  0  0  0  0  0  0
    2.3080   -5.2130   -5.8420 N   0  0  0  0  0  0  0  0  0  0  0  0
    3.5890   -5.2780   -5.3190 C   0  0  0  0  0  0  0  0  0  0  0  0
    4.4530   -5.5570   -6.3810 C   0  0  0  0  0  0  0  0  0  0  0  0
    3.6440   -5.6720   -7.5670 C   0  0  0  0  0  0  0  0  0  0  0  0
    3.9310   -5.8860   -8.9360 C   0  0  0  0  0  3  0  0  0  0  0  0
    2.9140   -5.7900   -9.8920 C   0  0  0  0  0  3  0  0  0  0  0  0
    1.6060   -5.5310   -9.4900 C   0  0  0  0  0  0  0  0  0  0  0  0
    1.2750   -5.4050   -8.1370 C   0  0  0  0  0  3  0  0  0  0  0  0
    2.3170   -5.4510   -7.1970 C   0  0  0  0  0  0  0  0  0  0  0  0
    0.5340   -5.2300  -10.4640 C   0  0  0  0  0  0  0  0  0  0  0  0
   -0.5930   -5.6700  -10.3090 O   0  0  0  0  0  0  0  0  0  0  0  0
    0.9330   -4.3280  -11.4550 N   0  0  0  0  0  0  0  0  0  0  0  0
   -0.0640   -3.5390  -12.5010 S   0  0  0  0  0  0  0  0  0  0  0  0
    0.8230   -2.8030  -13.3770 O   0  0  0  0  0  0  0  0  0  0  0  0
   -1.0420   -4.4530  -13.0290 O   0  0  0  0  0  0  0  0  0  0  0  0
   -0.8040   -2.4290  -11.5010 N   0  0  0  0  0  0  0  0  0  0  0  0
   -1.7950   -2.8770  -10.5180 C   0  0  0  0  0  1  0  0  0  0  0  0
   -0.2180   -1.0950  -11.2640 C   0  0  0  0  0  2  0  0  0  0  0  0
    1.1530   -1.0910  -10.5800 C   0  0  0  0  0  2  0  0  0  0  0  0
    1.0700   -1.5860   -9.2360 O   0  0  0  0  0  0  0  0  0  0  0  0
    2.0930   -1.0210   -8.4060 C   0  0  0  0  0  2  0  0  0  0  0  0
    2.0640   -1.6100   -6.9850 C   0  0  0  0  0  2  0  0  0  0  0  0
    0.8210   -1.4430   -6.2100 N   0  0  0  0  0  0  0  0  0  0  0  0
   -0.0380   -0.3080   -6.5120 C   0  0  0  0  0  1  0  0  0  0  0  0
    0.4280   -2.2960   -5.1880 C   0  0  0  0  0  0  0  0  0  0  0  0
   -0.6760   -2.2630   -4.6490 O   0  0  0  0  0  0  0  0  0  0  0  0
    1.8450   -3.8950  -11.4040 H   0  0  0  0  0  0  0  0  0  0  0  0
    5.9680   -5.6160   -6.3130 C   0  0  0  0  0  3  0  0  0  0  0  0
    6.5580   -4.5590   -5.3670 C   0  0  0  0  0  2  0  0  0  0  0  0
    8.0840   -4.6210   -5.3390 C   0  0  0  0  0  2  0  0  0  0  0  0
    8.5860   -6.0220   -5.0000 C   0  0  0  0  0  2  0  0  0  0  0  0
    8.0120   -7.0700   -5.9490 C   0  0  0  0  0  2  0  0  0  0  0  0
    6.4860   -7.0260   -5.9770 C   0  0  0  0  0  2  0  0  0  0  0  0
    5.6600   -2.9530    0.2690 C   0  0  0  0  0  1  0  0  0  0  0  0
    4.7940   -4.0650    0.0800 O   0  0  0  0  0  0  0  0  0  0  0  0
  1 44  1  0  0  0  0
  2  1  1  0  0  0  0
  3  2  2  0  0  0  0
  4  5  2  0  0  0  0
  4  3  1  0  0  0  0
  5  6  1  0  0  0  0
  6  1  2  0  0  0  0
  7  5  1  0  0  0  0
  8  7  2  0  0  0  0
  9  8  1  0  0  0  0
 10 11  1  0  0  0  0
 10  9  1  0  0  0  0
 11  4  1  0  0  0  0
 12 37  1  0  0  0  0
 12 11  2  0  0  0  0
 13 18  1  0  0  0  0
 13 12  1  0  0  0  0
 14 13  2  0  0  0  0
 15 16  2  0  0  0  0
 15 14  1  0  0  0  0
 16 17  1  0  0  0  0
 17 18  2  0  0  0  0
 18 10  1  0  0  0  0
 19 20  2  0  0  0  0
 19 16  1  0  0  0  0
 21 36  1  0  0  0  0
 21 19  1  0  0  0  0
 22 25  1  0  0  0  0
 22 21  1  0  0  0  0
 23 22  2  0  0  0  0
 24 22  2  0  0  0  0
 25 27  1  0  0  0  0
 25 26  1  0  0  0  0
 27 28  1  0  0  0  0
 28 29  1  0  0  0  0
 29 30  1  0  0  0  0
 30 31  1  0  0  0  0
 31 32  1  0  0  0  0
 32 34  1  0  0  0  0
 33 32  1  0  0  0  0
 34  8  1  0  0  0  0
 34 35  2  0  0  0  0
 37 42  1  0  0  0  0
 37 38  1  0  0  0  0
 38 39  1  0  0  0  0
 39 40  1  0  0  0  0
 41 40  1  0  0  0  0
 42 41  1  0  0  0  0
 44 43  1  0  0  0  0
M  END
>  <minimizedAffinity>
-4.43880987

$$$$
