
 OpenBabel09092210413D

 44 49  0  0  0  0  0  0  0  0999 V2000
   -0.5660   -0.3240  -12.7680 C   0  0  0  0  0  0  0  0  0  0  0  0
    0.2440   -1.2100  -13.4720 C   0  0  0  0  0  3  0  0  0  0  0  0
    1.0910   -2.0830  -12.7820 C   0  0  0  0  0  3  0  0  0  0  0  0
    1.1410   -2.0940  -11.3800 C   0  0  0  0  0  0  0  0  0  0  0  0
    0.3510   -1.1640  -10.6630 C   0  0  0  0  0  0  0  0  0  0  0  0
   -0.5090   -0.3080  -11.3720 C   0  0  0  0  0  3  0  0  0  0  0  0
    0.3800   -1.0100   -9.1920 C   0  0  0  0  0  3  0  0  0  0  0  0
    1.5210   -1.0970   -8.4830 C   0  0  0  0  0  0  0  0  0  0  0  0
    2.8680   -1.3670   -9.0730 C   0  0  0  0  0  2  0  0  0  0  0  0
    2.8680   -2.7030   -9.6710 N   0  0  0  0  0  0  0  0  0  0  0  0
    2.0230   -3.0700  -10.7050 C   0  0  0  0  0  0  0  0  0  0  0  0
    2.1230   -4.4560  -10.8470 C   0  0  0  0  0  0  0  0  0  0  0  0
    3.0710   -4.9140   -9.8650 C   0  0  0  0  0  0  0  0  0  0  0  0
    3.5490   -6.1890   -9.4810 C   0  0  0  0  0  3  0  0  0  0  0  0
    4.3750   -6.3240   -8.3580 C   0  0  0  0  0  3  0  0  0  0  0  0
    4.7660   -5.1920   -7.6470 C   0  0  0  0  0  0  0  0  0  0  0  0
    4.3850   -3.9110   -8.0560 C   0  0  0  0  0  3  0  0  0  0  0  0
    3.5140   -3.8010   -9.1500 C   0  0  0  0  0  0  0  0  0  0  0  0
    5.4740   -5.2910   -6.3520 C   0  0  0  0  0  0  0  0  0  0  0  0
    6.3790   -4.5220   -6.0740 O   0  0  0  0  0  0  0  0  0  0  0  0
    4.9160   -6.2440   -5.4940 N   0  0  0  0  0  0  0  0  0  0  0  0
    5.2370   -6.4050   -3.8870 S   0  0  0  0  0  0  0  0  0  0  0  0
    4.4930   -7.5750   -3.4730 O   0  0  0  0  0  0  0  0  0  0  0  0
    6.6550   -6.3050   -3.6600 O   0  0  0  0  0  0  0  0  0  0  0  0
    4.4640   -5.0750   -3.2460 N   0  0  0  0  0  0  0  0  0  0  0  0
    5.0120   -3.7330   -3.4670 C   0  0  0  0  0  1  0  0  0  0  0  0
    3.0480   -5.1330   -2.8310 C   0  0  0  0  0  2  0  0  0  0  0  0
    2.0460   -5.4210   -3.9520 C   0  0  0  0  0  2  0  0  0  0  0  0
    1.9990   -4.3470   -4.9020 O   0  0  0  0  0  0  0  0  0  0  0  0
    0.7140   -4.2620   -5.5340 C   0  0  0  0  0  2  0  0  0  0  0  0
    0.6810   -3.1680   -6.6140 C   0  0  0  0  0  2  0  0  0  0  0  0
    0.9780   -1.7880   -6.1860 N   0  0  0  0  0  0  0  0  0  0  0  0
    0.7020   -1.4150   -4.8070 C   0  0  0  0  0  1  0  0  0  0  0  0
    1.4840   -0.8100   -7.0310 C   0  0  0  0  0  0  0  0  0  0  0  0
    1.8860    0.2880   -6.6510 O   0  0  0  0  0  0  0  0  0  0  0  0
    4.0640   -6.7210   -5.7570 H   0  0  0  0  0  0  0  0  0  0  0  0
    1.3010   -5.3240  -11.7820 C   0  0  0  0  0  3  0  0  0  0  0  0
    2.1660   -6.0600  -12.8160 C   0  0  0  0  0  2  0  0  0  0  0  0
    1.3140   -6.9030  -13.7630 C   0  0  0  0  0  2  0  0  0  0  0  0
    0.4060   -7.8650  -13.0000 C   0  0  0  0  0  2  0  0  0  0  0  0
   -0.4640   -7.1320  -11.9840 C   0  0  0  0  0  2  0  0  0  0  0  0
    0.3790   -6.2950  -11.0240 C   0  0  0  0  0  2  0  0  0  0  0  0
   -1.2240    1.9480  -13.0120 C   0  0  0  0  0  1  0  0  0  0  0  0
   -1.4400    0.5760  -13.3140 O   0  0  0  0  0  0  0  0  0  0  0  0
  1  6  1  0  0  0  0
  2  3  1  0  0  0  0
  2  1  2  0  0  0  0
  3  4  2  0  0  0  0
  4 11  1  0  0  0  0
  4  5  1  0  0  0  0
  5  7  1  0  0  0  0
  6  5  2  0  0  0  0
  7  8  2  0  0  0  0
  8 34  1  0  0  0  0
  9  8  1  0  0  0  0
 10 18  1  0  0  0  0
 10  9  1  0  0  0  0
 11 10  1  0  0  0  0
 12 11  2  0  0  0  0
 12 13  1  0  0  0  0
 13 14  2  0  0  0  0
 13 18  1  0  0  0  0
 14 15  1  0  0  0  0
 15 16  2  0  0  0  0
 16 19  1  0  0  0  0
 17 16  1  0  0  0  0
 18 17  2  0  0  0  0
 19 20  2  0  0  0  0
 19 21  1  0  0  0  0
 21 22  1  0  0  0  0
 22 24  2  0  0  0  0
 22 23  2  0  0  0  0
 22 25  1  0  0  0  0
 25 27  1  0  0  0  0
 26 25  1  0  0  0  0
 28 27  1  0  0  0  0
 29 28  1  0  0  0  0
 30 29  1  0  0  0  0
 31 32  1  0  0  0  0
 31 30  1  0  0  0  0
 32 33  1  0  0  0  0
 34 35  2  0  0  0  0
 34 32  1  0  0  0  0
 36 21  1  0  0  0  0
 37 42  1  0  0  0  0
 37 12  1  0  0  0  0
 38 37  1  0  0  0  0
 39 40  1  0  0  0  0
 39 38  1  0  0  0  0
 40 41  1  0  0  0  0
 41 42  1  0  0  0  0
 44 43  1  0  0  0  0
 44  1  1  0  0  0  0
M  END
>  <minimizedAffinity>
-4.58785439

$$$$
