
 OpenBabel09092210413D

 44 49  0  0  0  0  0  0  0  0999 V2000
    4.5420   -4.4420   -1.2100 C   0  0  0  0  0  0  0  0  0  0  0  0
    5.0290   -5.5840   -1.8390 C   0  0  0  0  0  3  0  0  0  0  0  0
    4.6930   -5.8450   -3.1710 C   0  0  0  0  0  3  0  0  0  0  0  0
    3.8740   -4.9710   -3.9020 C   0  0  0  0  0  0  0  0  0  0  0  0
    3.3410   -3.8330   -3.2510 C   0  0  0  0  0  0  0  0  0  0  0  0
    3.7050   -3.5760   -1.9180 C   0  0  0  0  0  3  0  0  0  0  0  0
    2.3940   -2.8860   -3.8770 C   0  0  0  0  0  3  0  0  0  0  0  0
    1.4090   -3.2920   -4.6980 C   0  0  0  0  0  0  0  0  0  0  0  0
    1.1590   -4.7150   -5.0850 C   0  0  0  0  0  2  0  0  0  0  0  0
    2.3080   -5.2130   -5.8420 N   0  0  0  0  0  0  0  0  0  0  0  0
    3.5890   -5.2780   -5.3190 C   0  0  0  0  0  0  0  0  0  0  0  0
    4.4530   -5.5570   -6.3810 C   0  0  0  0  0  0  0  0  0  0  0  0
    3.6440   -5.6720   -7.5670 C   0  0  0  0  0  0  0  0  0  0  0  0
    3.9310   -5.8860   -8.9360 C   0  0  0  0  0  3  0  0  0  0  0  0
    2.9140   -5.7900   -9.8920 C   0  0  0  0  0  3  0  0  0  0  0  0
    1.6060   -5.5310   -9.4900 C   0  0  0  0  0  0  0  0  0  0  0  0
    1.2750   -5.4050   -8.1370 C   0  0  0  0  0  3  0  0  0  0  0  0
    2.3170   -5.4510   -7.1970 C   0  0  0  0  0  0  0  0  0  0  0  0
    0.5340   -5.2300  -10.4640 C   0  0  0  0  0  0  0  0  0  0  0  0
   -0.5930   -5.6700  -10.3090 O   0  0  0  0  0  0  0  0  0  0  0  0
    0.9330   -4.3280  -11.4550 N   0  0  0  0  0  0  0  0  0  0  0  0
   -0.0640   -3.5390  -12.5010 S   0  0  0  0  0  0  0  0  0  0  0  0
    0.8230   -2.8030  -13.3770 O   0  0  0  0  0  0  0  0  0  0  0  0
   -1.0420   -4.4530  -13.0290 O   0  0  0  0  0  0  0  0  0  0  0  0
   -0.8040   -2.4290  -11.5010 N   0  0  0  0  0  0  0  0  0  0  0  0
   -1.7950   -2.8770  -10.5180 C   0  0  0  0  0  1  0  0  0  0  0  0
   -0.2180   -1.0950  -11.2640 C   0  0  0  0  0  2  0  0  0  0  0  0
    1.1530   -1.0910  -10.5800 C   0  0  0  0  0  2  0  0  0  0  0  0
    1.0700   -1.5860   -9.2360 O   0  0  0  0  0  0  0  0  0  0  0  0
    2.0930   -1.0210   -8.4060 C   0  0  0  0  0  2  0  0  0  0  0  0
    2.0640   -1.6100   -6.9850 C   0  0  0  0  0  2  0  0  0  0  0  0
    0.8210   -1.4430   -6.2100 N   0  0  0  0  0  0  0  0  0  0  0  0
   -0.0380   -0.3080   -6.5120 C   0  0  0  0  0  1  0  0  0  0  0  0
    0.4280   -2.2960   -5.1880 C   0  0  0  0  0  0  0  0  0  0  0  0
   -0.6760   -2.2630   -4.6490 O   0  0  0  0  0  0  0  0  0  0  0  0
    1.8450   -3.8950  -11.4040 H   0  0  0  0  0  0  0  0  0  0  0  0
    5.9680   -5.6160   -6.3130 C   0  0  0  0  0  3  0  0  0  0  0  0
    6.5580   -4.5590   -5.3670 C   0  0  0  0  0  2  0  0  0  0  0  0
    8.0840   -4.6210   -5.3390 C   0  0  0  0  0  2  0  0  0  0  0  0
    8.5860   -6.0220   -5.0000 C   0  0  0  0  0  2  0  0  0  0  0  0
    8.0120   -7.0700   -5.9490 C   0  0  0  0  0  2  0  0  0  0  0  0
    6.4860   -7.0260   -5.9770 C   0  0  0  0  0  2  0  0  0  0  0  0
    5.6600   -2.9530    0.2690 C   0  0  0  0  0  1  0  0  0  0  0  0
    4.7940   -4.0650    0.0800 O   0  0  0  0  0  0  0  0  0  0  0  0
  1 44  1  0  0  0  0
  2  1  1  0  0  0  0
  3  2  2  0  0  0  0
  4  5  2  0  0  0  0
  4  3  1  0  0  0  0
  5  6  1  0  0  0  0
  6  1  2  0  0  0  0
  7  5  1  0  0  0  0
  8  7  2  0  0  0  0
  9  8  1  0  0  0  0
 10 11  1  0  0  0  0
 10  9  1  0  0  0  0
 11  4  1  0  0  0  0
 12 37  1  0  0  0  0
 12 11  2  0  0  0  0
 13 18  1  0  0  0  0
 13 12  1  0  0  0  0
 14 13  2  0  0  0  0
 15 16  2  0  0  0  0
 15 14  1  0  0  0  0
 16 17  1  0  0  0  0
 17 18  2  0  0  0  0
 18 10  1  0  0  0  0
 19 20  2  0  0  0  0
 19 16  1  0  0  0  0
 21 36  1  0  0  0  0
 21 19  1  0  0  0  0
 22 25  1  0  0  0  0
 22 21  1  0  0  0  0
 23 22  2  0  0  0  0
 24 22  2  0  0  0  0
 25 27  1  0  0  0  0
 25 26  1  0  0  0  0
 27 28  1  0  0  0  0
 28 29  1  0  0  0  0
 29 30  1  0  0  0  0
 30 31  1  0  0  0  0
 31 32  1  0  0  0  0
 32 34  1  0  0  0  0
 33 32  1  0  0  0  0
 34  8  1  0  0  0  0
 34 35  2  0  0  0  0
 37 42  1  0  0  0  0
 37 38  1  0  0  0  0
 38 39  1  0  0  0  0
 39 40  1  0  0  0  0
 41 40  1  0  0  0  0
 42 41  1  0  0  0  0
 44 43  1  0  0  0  0
M  END
>  <minimizedAffinity>
-4.43880987

$$$$
