REMARK  Name = 
REMARK  5 active torsions:
REMARK  status: ('A' for Active; 'I' for Inactive)
REMARK    1  A    between atoms: C_1  and  O_2
REMARK    2  A    between atoms: O_2  and  C_3
REMARK    3  A    between atoms: C_14  and  C_15
REMARK    4  A    between atoms: N_33  and  C_34
REMARK    5  A    between atoms: N_40  and  C_41
REMARK                            x       y       z     vdW  Elec       q    Type
REMARK                         _______ _______ _______ _____ _____    ______ ____
ROOT
ATOM      1  C   UNL     1       0.710  -1.021  -2.848  0.00  0.00    +0.121 A 
ATOM      2  C   UNL     1       1.395  -2.129  -2.357  0.00  0.00    +0.046 A 
ATOM      3  C   UNL     1       2.221  -2.873  -3.206  0.00  0.00    +0.014 A 
ATOM      4  C   UNL     1       2.385  -2.523  -4.555  0.00  0.00    +0.006 A 
ATOM      5  C   UNL     1       1.655  -1.424  -5.067  0.00  0.00    -0.012 A 
ATOM      6  C   UNL     1       0.845  -0.676  -4.195  0.00  0.00    +0.054 A 
ATOM      7  C   UNL     1       1.666  -1.009  -6.486  0.00  0.00    +0.019 C 
ATOM      8  C   UNL     1       1.681  -1.899  -7.495  0.00  0.00    +0.035 C 
ATOM      9  C   UNL     1       1.702  -3.384  -7.316  0.00  0.00    +0.162 C 
ATOM     10  N   UNL     1       2.949  -3.767  -6.654  0.00  0.00    -0.335 N 
ATOM     11  C   UNL     1       3.305  -3.321  -5.392  0.00  0.00    +0.054 A 
ATOM     12  C   UNL     1       4.641  -3.677  -5.191  0.00  0.00    -0.011 A 
ATOM     13  C   UNL     1       5.078  -4.368  -6.376  0.00  0.00    +0.004 A 
ATOM     14  C   UNL     1       6.314  -4.914  -6.796  0.00  0.00    +0.011 A 
ATOM     15  C   UNL     1       6.464  -5.397  -8.101  0.00  0.00    +0.014 A 
ATOM     16  C   UNL     1       5.379  -5.384  -8.974  0.00  0.00    +0.040 A 
ATOM     17  C   UNL     1       4.121  -4.935  -8.560  0.00  0.00    +0.039 A 
ATOM     18  C   UNL     1       4.004  -4.405  -7.266  0.00  0.00    +0.051 A 
ATOM     19  C   UNL     1       5.529  -5.700 -10.411  0.00  0.00    +0.264 C 
ATOM     20  O   UNL     1       4.684  -6.354 -10.999  0.00  0.00    -0.269 OA
ATOM     21  N   UNL     1       6.639  -5.081 -10.995  0.00  0.00    -0.171 N 
ATOM     22  S   UNL     1       6.937  -4.954 -12.609  0.00  0.00    +0.114 S 
ATOM     23  O   UNL     1       8.235  -4.320 -12.700  0.00  0.00    -0.138 OA
ATOM     24  O   UNL     1       6.677  -6.214 -13.255  0.00  0.00    -0.138 OA
ATOM     25  N   UNL     1       5.802  -3.828 -13.082  0.00  0.00    -0.165 NA
ATOM     26  C   UNL     1       4.383  -4.194 -13.128  0.00  0.00    +0.133 C 
ATOM     27  C   UNL     1       6.094  -2.381 -13.051  0.00  0.00    +0.138 C 
ATOM     28  C   UNL     1       6.383  -1.798 -11.664  0.00  0.00    +0.177 C 
ATOM     29  O   UNL     1       5.224  -1.852 -10.821  0.00  0.00    -0.377 OA
ATOM     30  C   UNL     1       5.239  -0.804  -9.842  0.00  0.00    +0.179 C 
ATOM     31  C   UNL     1       4.043  -0.905  -8.880  0.00  0.00    +0.135 C 
ATOM     32  N   UNL     1       2.694  -0.843  -9.472  0.00  0.00    -0.299 N 
ATOM     33  C   UNL     1       2.519  -0.131 -10.729  0.00  0.00    +0.132 C 
ATOM     34  C   UNL     1       1.568  -1.406  -8.887  0.00  0.00    +0.244 C 
ATOM     35  O   UNL     1       0.477  -1.502  -9.444  0.00  0.00    -0.270 OA
ATOM     36  H   UNL     1       7.191  -4.427 -10.457  0.00  0.00    +0.178 HD
ENDROOT
BRANCH  12  37
ATOM     37  C   UNL     1       5.498  -3.305  -3.995  0.00  0.00    +0.022 C 
ATOM     38  C   UNL     1       6.004  -4.535  -3.226  0.00  0.00    +0.008 C 
ATOM     39  C   UNL     1       6.839  -4.133  -2.012  0.00  0.00    +0.001 C 
ATOM     40  C   UNL     1       7.984  -3.200  -2.398  0.00  0.00    +0.000 C 
ATOM     41  C   UNL     1       7.480  -1.971  -3.148  0.00  0.00    +0.001 C 
ATOM     42  C   UNL     1       6.653  -2.360  -4.372  0.00  0.00    +0.008 C 
ENDBRANCH  12  37
BRANCH   1  44
ATOM     43  C   UNL     1      -0.339  -0.549  -0.767  0.00  0.00    +0.277 C 
ATOM     44  O   UNL     1      -0.122  -0.207  -2.130  0.00  0.00    -0.495 OA
ENDBRANCH   1  44
TORSDOF 2
