
 OpenBabel09092210413D

 44 49  0  0  0  0  0  0  0  0999 V2000
    8.7550   -8.3360   -7.5650 C   0  0  0  0  0  0  0  0  0  0  0  0
    9.2940   -7.7030   -6.4480 C   0  0  0  0  0  3  0  0  0  0  0  0
    8.4910   -6.8720   -5.6600 C   0  0  0  0  0  3  0  0  0  0  0  0
    7.1370   -6.6640   -5.9650 C   0  0  0  0  0  0  0  0  0  0  0  0
    6.5990   -7.2700   -7.1250 C   0  0  0  0  0  0  0  0  0  0  0  0
    7.4150   -8.1170   -7.8940 C   0  0  0  0  0  3  0  0  0  0  0  0
    5.2180   -7.0570   -7.6080 C   0  0  0  0  0  3  0  0  0  0  0  0
    4.6120   -5.8580   -7.5480 C   0  0  0  0  0  0  0  0  0  0  0  0
    5.2360   -4.6200   -6.9850 C   0  0  0  0  0  2  0  0  0  0  0  0
    5.4920   -4.8200   -5.5590 N   0  0  0  0  0  0  0  0  0  0  0  0
    6.3280   -5.8100   -5.0710 C   0  0  0  0  0  0  0  0  0  0  0  0
    6.1390   -5.8640   -3.6870 C   0  0  0  0  0  0  0  0  0  0  0  0
    5.1630   -4.8590   -3.3540 C   0  0  0  0  0  0  0  0  0  0  0  0
    4.5260   -4.4680   -2.1530 C   0  0  0  0  0  3  0  0  0  0  0  0
    3.4820   -3.5360   -2.1800 C   0  0  0  0  0  3  0  0  0  0  0  0
    3.1020   -2.9560   -3.3880 C   0  0  0  0  0  0  0  0  0  0  0  0
    3.7730   -3.2540   -4.5780 C   0  0  0  0  0  3  0  0  0  0  0  0
    4.7800   -4.2300   -4.5390 C   0  0  0  0  0  0  0  0  0  0  0  0
    1.8890   -2.1180   -3.5040 C   0  0  0  0  0  0  0  0  0  0  0  0
    1.8860   -1.1150   -4.1990 O   0  0  0  0  0  0  0  0  0  0  0  0
    0.7800   -2.6640   -2.8490 N   0  0  0  0  0  0  0  0  0  0  0  0
   -0.7830   -2.1780   -3.0240 S   0  0  0  0  0  0  0  0  0  0  0  0
   -1.5310   -2.9810   -2.0800 O   0  0  0  0  0  0  0  0  0  0  0  0
   -0.8530   -0.7400   -2.9980 O   0  0  0  0  0  0  0  0  0  0  0  0
   -1.1500   -2.7380   -4.5500 N   0  0  0  0  0  0  0  0  0  0  0  0
   -0.5640   -2.0900   -5.7280 C   0  0  0  0  0  1  0  0  0  0  0  0
   -1.6900   -4.0950   -4.7630 C   0  0  0  0  0  2  0  0  0  0  0  0
   -0.7640   -5.2440   -4.3500 C   0  0  0  0  0  2  0  0  0  0  0  0
    0.4090   -5.2930   -5.1750 O   0  0  0  0  0  0  0  0  0  0  0  0
    0.9270   -6.6270   -5.2690 C   0  0  0  0  0  2  0  0  0  0  0  0
    2.2320   -6.6760   -6.0810 C   0  0  0  0  0  2  0  0  0  0  0  0
    2.1770   -6.1990   -7.4750 N   0  0  0  0  0  0  0  0  0  0  0  0
    0.9100   -6.2760   -8.1870 C   0  0  0  0  0  1  0  0  0  0  0  0
    3.2750   -5.6980   -8.1630 C   0  0  0  0  0  0  0  0  0  0  0  0
    3.2080   -5.1500   -9.2610 O   0  0  0  0  0  0  0  0  0  0  0  0
    0.8450   -3.5830   -2.4330 H   0  0  0  0  0  0  0  0  0  0  0  0
    6.7610   -6.8690   -2.7350 C   0  0  0  0  0  3  0  0  0  0  0  0
    6.8730   -6.3320   -1.3000 C   0  0  0  0  0  2  0  0  0  0  0  0
    7.5280   -7.3500   -0.3700 C   0  0  0  0  0  2  0  0  0  0  0  0
    6.8110   -8.6970   -0.4120 C   0  0  0  0  0  2  0  0  0  0  0  0
    6.7130   -9.2380   -1.8350 C   0  0  0  0  0  2  0  0  0  0  0  0
    6.0490   -8.2330   -2.7740 C   0  0  0  0  0  2  0  0  0  0  0  0
   10.0130   -8.5860   -9.5680 C   0  0  0  0  0  1  0  0  0  0  0  0
    9.4230   -9.1740   -8.4150 O   0  0  0  0  0  0  0  0  0  0  0  0
  1  2  1  0  0  0  0
  2  3  2  0  0  0  0
  4  3  1  0  0  0  0
  4 11  1  0  0  0  0
  5  4  2  0  0  0  0
  6  1  2  0  0  0  0
  6  5  1  0  0  0  0
  7  8  2  0  0  0  0
  7  5  1  0  0  0  0
  8  9  1  0  0  0  0
  9 10  1  0  0  0  0
 10 11  1  0  0  0  0
 10 18  1  0  0  0  0
 11 12  2  0  0  0  0
 12 13  1  0  0  0  0
 12 37  1  0  0  0  0
 13 14  1  0  0  0  0
 15 14  2  0  0  0  0
 16 15  1  0  0  0  0
 17 18  1  0  0  0  0
 17 16  2  0  0  0  0
 18 13  2  0  0  0  0
 19 16  1  0  0  0  0
 19 21  1  0  0  0  0
 20 19  2  0  0  0  0
 21 36  1  0  0  0  0
 22 24  2  0  0  0  0
 22 21  1  0  0  0  0
 22 23  2  0  0  0  0
 25 22  1  0  0  0  0
 26 25  1  0  0  0  0
 27 25  1  0  0  0  0
 27 28  1  0  0  0  0
 29 28  1  0  0  0  0
 30 29  1  0  0  0  0
 31 30  1  0  0  0  0
 32 31  1  0  0  0  0
 33 32  1  0  0  0  0
 34  8  1  0  0  0  0
 34 32  1  0  0  0  0
 35 34  2  0  0  0  0
 37 38  1  0  0  0  0
 38 39  1  0  0  0  0
 40 39  1  0  0  0  0
 41 40  1  0  0  0  0
 42 37  1  0  0  0  0
 42 41  1  0  0  0  0
 43 44  1  0  0  0  0
 44  1  1  0  0  0  0
M  END
>  <minimizedAffinity>
-4.5732069

$$$$
