
 OpenBabel09082221273D

 44 49  0  0  0  0  0  0  0  0999 V2000
    6.4550   -5.1950   -0.2110 C   0  0  0  0  0  0  0  0  0  0  0  0
    5.4580   -4.2490   -0.4320 C   0  0  0  0  0  3  0  0  0  0  0  0
    4.8850   -4.1210   -1.7020 C   0  0  0  0  0  3  0  0  0  0  0  0
    5.2890   -4.9360   -2.7700 C   0  0  0  0  0  0  0  0  0  0  0  0
    6.3340   -5.8670   -2.5590 C   0  0  0  0  0  0  0  0  0  0  0  0
    6.8840   -5.9960   -1.2720 C   0  0  0  0  0  3  0  0  0  0  0  0
    6.9150   -6.7180   -3.6200 C   0  0  0  0  0  3  0  0  0  0  0  0
    7.1170   -6.2680   -4.8720 C   0  0  0  0  0  0  0  0  0  0  0  0
    6.7760   -4.8900   -5.3430 C   0  0  0  0  0  2  0  0  0  0  0  0
    5.3280   -4.7030   -5.2630 N   0  0  0  0  0  0  0  0  0  0  0  0
    4.6170   -4.7840   -4.0770 C   0  0  0  0  0  0  0  0  0  0  0  0
    3.2600   -4.8040   -4.4110 C   0  0  0  0  0  0  0  0  0  0  0  0
    3.1750   -4.7180   -5.8450 C   0  0  0  0  0  0  0  0  0  0  0  0
    2.1050   -4.7460   -6.7700 C   0  0  0  0  0  3  0  0  0  0  0  0
    2.3620   -4.7990   -8.1450 C   0  0  0  0  0  3  0  0  0  0  0  0
    3.6760   -4.7760   -8.6050 C   0  0  0  0  0  0  0  0  0  0  0  0
    4.7520   -4.6570   -7.7200 C   0  0  0  0  0  3  0  0  0  0  0  0
    4.4770   -4.6590   -6.3450 C   0  0  0  0  0  0  0  0  0  0  0  0
    4.0100   -5.0230  -10.0250 C   0  0  0  0  0  0  0  0  0  0  0  0
    4.8850   -4.3810  -10.5820 O   0  0  0  0  0  0  0  0  0  0  0  0
    3.3160   -6.1070  -10.5710 N   0  0  0  0  0  0  0  0  0  0  0  0
    3.6560   -6.8530  -11.9980 S   0  0  0  0  0  0  0  0  0  0  0  0
    2.6120   -7.8420  -12.1610 O   0  0  0  0  0  0  0  0  0  0  0  0
    3.9130   -5.8680  -13.0160 O   0  0  0  0  0  0  0  0  0  0  0  0
    5.0610   -7.6720  -11.6330 N   0  0  0  0  0  0  0  0  0  0  0  0
    6.3130   -6.9320  -11.4450 C   0  0  0  0  0  1  0  0  0  0  0  0
    5.0320   -9.0410  -11.0790 C   0  0  0  0  0  2  0  0  0  0  0  0
    4.3610   -9.1820   -9.7100 C   0  0  0  0  0  2  0  0  0  0  0  0
    5.1030   -8.5000   -8.6900 O   0  0  0  0  0  0  0  0  0  0  0  0
    4.9110   -9.1100   -7.4060 C   0  0  0  0  0  2  0  0  0  0  0  0
    5.6350   -8.3350   -6.2920 C   0  0  0  0  0  2  0  0  0  0  0  0
    7.0960   -8.1810   -6.4180 N   0  0  0  0  0  0  0  0  0  0  0  0
    7.8390   -9.1850   -7.1640 C   0  0  0  0  0  1  0  0  0  0  0  0
    7.8150   -7.1410   -5.8430 C   0  0  0  0  0  0  0  0  0  0  0  0
    9.0000   -6.9120   -6.0730 O   0  0  0  0  0  0  0  0  0  0  0  0
    2.7270   -6.6760   -9.9790 H   0  0  0  0  0  0  0  0  0  0  0  0
    2.1030   -4.9930   -3.4470 C   0  0  0  0  0  3  0  0  0  0  0  0
    1.1490   -3.7890   -3.4270 C   0  0  0  0  0  2  0  0  0  0  0  0
    0.0100   -3.9920   -2.4300 C   0  0  0  0  0  2  0  0  0  0  0  0
   -0.7370   -5.2980   -2.6850 C   0  0  0  0  0  2  0  0  0  0  0  0
    0.2070   -6.4960   -2.6900 C   0  0  0  0  0  2  0  0  0  0  0  0
    1.3450   -6.3100   -3.6920 C   0  0  0  0  0  2  0  0  0  0  0  0
    6.3860   -5.0970    2.1640 C   0  0  0  0  0  1  0  0  0  0  0  0
    7.0940   -5.4280    0.9760 O   0  0  0  0  0  0  0  0  0  0  0  0
  1 44  1  0  0  0  0
  2  1  1  0  0  0  0
  3  2  2  0  0  0  0
  4  5  2  0  0  0  0
  4  3  1  0  0  0  0
  5  6  1  0  0  0  0
  6  1  2  0  0  0  0
  7  5  1  0  0  0  0
  8  7  2  0  0  0  0
  9 10  1  0  0  0  0
  9  8  1  0  0  0  0
 10 11  1  0  0  0  0
 11  4  1  0  0  0  0
 12 11  2  0  0  0  0
 12 37  1  0  0  0  0
 13 12  1  0  0  0  0
 14 13  2  0  0  0  0
 15 14  1  0  0  0  0
 16 15  2  0  0  0  0
 16 17  1  0  0  0  0
 17 18  2  0  0  0  0
 18 13  1  0  0  0  0
 18 10  1  0  0  0  0
 19 16  1  0  0  0  0
 20 19  2  0  0  0  0
 21 19  1  0  0  0  0
 21 36  1  0  0  0  0
 22 25  1  0  0  0  0
 22 21  1  0  0  0  0
 23 22  2  0  0  0  0
 24 22  2  0  0  0  0
 25 26  1  0  0  0  0
 25 27  1  0  0  0  0
 27 28  1  0  0  0  0
 28 29  1  0  0  0  0
 29 30  1  0  0  0  0
 30 31  1  0  0  0  0
 32 31  1  0  0  0  0
 32 34  1  0  0  0  0
 33 32  1  0  0  0  0
 34  8  1  0  0  0  0
 35 34  2  0  0  0  0
 37 38  1  0  0  0  0
 38 39  1  0  0  0  0
 40 39  1  0  0  0  0
 41 40  1  0  0  0  0
 42 37  1  0  0  0  0
 42 41  1  0  0  0  0
 44 43  1  0  0  0  0
M  END
>  <minimizedAffinity>
-5.17752123

$$$$

 OpenBabel09082221273D

 44 49  0  0  0  0  0  0  0  0999 V2000
    6.5530   -3.9430    0.7590 C   0  0  0  0  0  0  0  0  0  0  0  0
    6.8760   -5.2190    0.3050 C   0  0  0  0  0  3  0  0  0  0  0  0
    6.1910   -5.7690   -0.7840 C   0  0  0  0  0  3  0  0  0  0  0  0
    5.1780   -5.0550   -1.4440 C   0  0  0  0  0  0  0  0  0  0  0  0
    4.8180   -3.7770   -0.9560 C   0  0  0  0  0  0  0  0  0  0  0  0
    5.5300   -3.2320    0.1270 C   0  0  0  0  0  3  0  0  0  0  0  0
    3.7100   -2.9630   -1.5010 C   0  0  0  0  0  3  0  0  0  0  0  0
    2.5460   -3.5090   -1.9000 C   0  0  0  0  0  0  0  0  0  0  0  0
    2.2370   -4.9720   -1.8580 C   0  0  0  0  0  2  0  0  0  0  0  0
    3.1430   -5.6770   -2.7640 N   0  0  0  0  0  0  0  0  0  0  0  0
    4.5200   -5.6700   -2.6150 C   0  0  0  0  0  0  0  0  0  0  0  0
    5.0630   -6.2230   -3.7780 C   0  0  0  0  0  0  0  0  0  0  0  0
    3.9610   -6.5770   -4.6330 C   0  0  0  0  0  0  0  0  0  0  0  0
    3.8620   -7.1140   -5.9390 C   0  0  0  0  0  3  0  0  0  0  0  0
    2.6180   -7.2020   -6.5730 C   0  0  0  0  0  3  0  0  0  0  0  0
    1.4660   -6.8040   -5.8980 C   0  0  0  0  0  0  0  0  0  0  0  0
    1.5200   -6.3540   -4.5750 C   0  0  0  0  0  3  0  0  0  0  0  0
    2.7820   -6.2230   -3.9750 C   0  0  0  0  0  0  0  0  0  0  0  0
    0.1590   -6.6940   -6.5810 C   0  0  0  0  0  0  0  0  0  0  0  0
   -0.8690   -7.0400   -6.0240 O   0  0  0  0  0  0  0  0  0  0  0  0
    0.2430   -6.0630   -7.8270 N   0  0  0  0  0  0  0  0  0  0  0  0
   -1.0250   -5.4980   -8.7120 S   0  0  0  0  0  0  0  0  0  0  0  0
   -0.4360   -5.0220   -9.9450 O   0  0  0  0  0  0  0  0  0  0  0  0
   -2.0860   -6.4700   -8.7210 O   0  0  0  0  0  0  0  0  0  0  0  0
   -1.4880   -4.1580   -7.8340 N   0  0  0  0  0  0  0  0  0  0  0  0
   -2.1550   -4.3260   -6.5400 C   0  0  0  0  0  1  0  0  0  0  0  0
   -0.8940   -2.8300   -8.0870 C   0  0  0  0  0  2  0  0  0  0  0  0
    0.6120   -2.7230   -7.8280 C   0  0  0  0  0  2  0  0  0  0  0  0
    0.9180   -2.8900   -6.4360 O   0  0  0  0  0  0  0  0  0  0  0  0
    2.1160   -2.1890   -6.0760 C   0  0  0  0  0  2  0  0  0  0  0  0
    2.4980   -2.4310   -4.6050 C   0  0  0  0  0  2  0  0  0  0  0  0
    1.5130   -2.0390   -3.5800 N   0  0  0  0  0  0  0  0  0  0  0  0
    0.5750   -0.9700   -3.8890 C   0  0  0  0  0  1  0  0  0  0  0  0
    1.4420   -2.6150   -2.3190 C   0  0  0  0  0  0  0  0  0  0  0  0
    0.5310   -2.4130   -1.5190 O   0  0  0  0  0  0  0  0  0  0  0  0
    1.1220   -5.6670   -8.1310 H   0  0  0  0  0  0  0  0  0  0  0  0
    6.5390   -6.3260   -4.1180 C   0  0  0  0  0  3  0  0  0  0  0  0
    6.9340   -7.7250   -4.6150 C   0  0  0  0  0  2  0  0  0  0  0  0
    8.4280   -7.8090   -4.9220 C   0  0  0  0  0  2  0  0  0  0  0  0
    8.8660   -6.7200   -5.8980 C   0  0  0  0  0  2  0  0  0  0  0  0
    8.4870   -5.3300   -5.3970 C   0  0  0  0  0  2  0  0  0  0  0  0
    6.9930   -5.2290   -5.0970 C   0  0  0  0  0  2  0  0  0  0  0  0
    7.6050   -1.9660    1.5570 C   0  0  0  0  0  1  0  0  0  0  0  0
    7.1430   -3.2880    1.8040 O   0  0  0  0  0  0  0  0  0  0  0  0
  1 44  1  0  0  0  0
  2  1  1  0  0  0  0
  3  2  2  0  0  0  0
  4  5  2  0  0  0  0
  4  3  1  0  0  0  0
  5  6  1  0  0  0  0
  6  1  2  0  0  0  0
  7  5  1  0  0  0  0
  8  9  1  0  0  0  0
  8  7  2  0  0  0  0
 10 11  1  0  0  0  0
 10  9  1  0  0  0  0
 11  4  1  0  0  0  0
 12 11  2  0  0  0  0
 13 18  1  0  0  0  0
 13 12  1  0  0  0  0
 14 13  2  0  0  0  0
 15 14  1  0  0  0  0
 15 16  2  0  0  0  0
 16 17  1  0  0  0  0
 17 18  2  0  0  0  0
 18 10  1  0  0  0  0
 19 20  2  0  0  0  0
 19 16  1  0  0  0  0
 21 19  1  0  0  0  0
 22 25  1  0  0  0  0
 22 21  1  0  0  0  0
 23 22  2  0  0  0  0
 24 22  2  0  0  0  0
 25 26  1  0  0  0  0
 27 25  1  0  0  0  0
 27 28  1  0  0  0  0
 28 29  1  0  0  0  0
 29 30  1  0  0  0  0
 30 31  1  0  0  0  0
 31 32  1  0  0  0  0
 32 34  1  0  0  0  0
 33 32  1  0  0  0  0
 34  8  1  0  0  0  0
 34 35  2  0  0  0  0
 36 21  1  0  0  0  0
 37 12  1  0  0  0  0
 38 37  1  0  0  0  0
 39 38  1  0  0  0  0
 40 41  1  0  0  0  0
 40 39  1  0  0  0  0
 41 42  1  0  0  0  0
 42 37  1  0  0  0  0
 43 44  1  0  0  0  0
M  END
>  <minimizedAffinity>
-4.96395826

$$$$

 OpenBabel09082221273D

 44 49  0  0  0  0  0  0  0  0999 V2000
    6.7600   -5.9060    0.4260 C   0  0  0  0  0  0  0  0  0  0  0  0
    5.8810   -5.0140    1.0330 C   0  0  0  0  0  3  0  0  0  0  0  0
    4.9140   -4.3550    0.2670 C   0  0  0  0  0  3  0  0  0  0  0  0
    4.8000   -4.5780   -1.1130 C   0  0  0  0  0  0  0  0  0  0  0  0
    5.7210   -5.4510   -1.7400 C   0  0  0  0  0  0  0  0  0  0  0  0
    6.6740   -6.1190   -0.9520 C   0  0  0  0  0  3  0  0  0  0  0  0
    5.7690   -5.7000   -3.1970 C   0  0  0  0  0  3  0  0  0  0  0  0
    5.5660   -4.7230   -4.1000 C   0  0  0  0  0  0  0  0  0  0  0  0
    5.2600   -3.3000   -3.7560 C   0  0  0  0  0  2  0  0  0  0  0  0
    3.9730   -3.2430   -3.0640 N   0  0  0  0  0  0  0  0  0  0  0  0
    3.7300   -3.8860   -1.8620 C   0  0  0  0  0  0  0  0  0  0  0  0
    2.3530   -3.8210   -1.6310 C   0  0  0  0  0  0  0  0  0  0  0  0
    1.7730   -3.1010   -2.7340 C   0  0  0  0  0  0  0  0  0  0  0  0
    0.4480   -2.7630   -3.0980 C   0  0  0  0  0  3  0  0  0  0  0  0
    0.1870   -2.1760   -4.3420 C   0  0  0  0  0  3  0  0  0  0  0  0
    1.2400   -1.8810   -5.2040 C   0  0  0  0  0  0  0  0  0  0  0  0
    2.5680   -2.1200   -4.8350 C   0  0  0  0  0  3  0  0  0  0  0  0
    2.8050   -2.7580   -3.6070 C   0  0  0  0  0  0  0  0  0  0  0  0
    1.0100   -1.4430   -6.5980 C   0  0  0  0  0  0  0  0  0  0  0  0
    1.7030   -0.5760   -7.1030 O   0  0  0  0  0  0  0  0  0  0  0  0
    0.0320   -2.1970   -7.2540 N   0  0  0  0  0  0  0  0  0  0  0  0
   -0.2600   -2.2000   -8.8740 S   0  0  0  0  0  0  0  0  0  0  0  0
   -1.4120   -3.0600   -9.0440 O   0  0  0  0  0  0  0  0  0  0  0  0
   -0.2600   -0.8490   -9.3740 O   0  0  0  0  0  0  0  0  0  0  0  0
    1.0640   -3.0240   -9.4630 N   0  0  0  0  0  0  0  0  0  0  0  0
    2.3840   -2.3870   -9.4590 C   0  0  0  0  0  1  0  0  0  0  0  0
    1.0580   -4.4950   -9.5960 C   0  0  0  0  0  2  0  0  0  0  0  0
    0.9090   -5.2730   -8.2850 C   0  0  0  0  0  2  0  0  0  0  0  0
    2.0490   -5.0890   -7.4340 O   0  0  0  0  0  0  0  0  0  0  0  0
    2.2520   -6.2220   -6.5780 C   0  0  0  0  0  2  0  0  0  0  0  0
    3.4210   -5.9970   -5.6030 C   0  0  0  0  0  2  0  0  0  0  0  0
    4.7470   -5.7300   -6.1890 N   0  0  0  0  0  0  0  0  0  0  0  0
    5.0370   -6.2500   -7.5170 C   0  0  0  0  0  1  0  0  0  0  0  0
    5.7510   -5.0270   -5.5380 C   0  0  0  0  0  0  0  0  0  0  0  0
    6.7940   -4.6600   -6.0730 O   0  0  0  0  0  0  0  0  0  0  0  0
   -0.3740   -3.0020   -6.7970 H   0  0  0  0  0  0  0  0  0  0  0  0
    1.6030   -4.4830   -0.4900 C   0  0  0  0  0  3  0  0  0  0  0  0
    0.8890   -3.4670    0.4150 C   0  0  0  0  0  2  0  0  0  0  0  0
    0.1670   -4.1560    1.5710 C   0  0  0  0  0  2  0  0  0  0  0  0
   -0.7890   -5.2380    1.0740 C   0  0  0  0  0  2  0  0  0  0  0  0
   -0.0770   -6.2560    0.1890 C   0  0  0  0  0  2  0  0  0  0  0  0
    0.6400   -5.5800   -0.9790 C   0  0  0  0  0  2  0  0  0  0  0  0
    8.2690   -7.7430    0.3600 C   0  0  0  0  0  1  0  0  0  0  0  0
    7.7450   -6.6180    1.0540 O   0  0  0  0  0  0  0  0  0  0  0  0
  1  2  1  0  0  0  0
  1 44  1  0  0  0  0
  3  2  2  0  0  0  0
  4  3  1  0  0  0  0
  5  4  2  0  0  0  0
  5  6  1  0  0  0  0
  6  1  2  0  0  0  0
  7  5  1  0  0  0  0
  8  9  1  0  0  0  0
  8  7  2  0  0  0  0
  9 10  1  0  0  0  0
 10 11  1  0  0  0  0
 11 12  2  0  0  0  0
 11  4  1  0  0  0  0
 12 37  1  0  0  0  0
 13 12  1  0  0  0  0
 14 13  1  0  0  0  0
 15 14  2  0  0  0  0
 16 17  2  0  0  0  0
 16 15  1  0  0  0  0
 17 18  1  0  0  0  0
 18 10  1  0  0  0  0
 18 13  2  0  0  0  0
 19 16  1  0  0  0  0
 20 19  2  0  0  0  0
 21 36  1  0  0  0  0
 21 19  1  0  0  0  0
 22 21  1  0  0  0  0
 23 22  2  0  0  0  0
 24 22  2  0  0  0  0
 25 26  1  0  0  0  0
 25 22  1  0  0  0  0
 27 25  1  0  0  0  0
 27 28  1  0  0  0  0
 28 29  1  0  0  0  0
 29 30  1  0  0  0  0
 30 31  1  0  0  0  0
 32 31  1  0  0  0  0
 32 34  1  0  0  0  0
 33 32  1  0  0  0  0
 34  8  1  0  0  0  0
 35 34  2  0  0  0  0
 37 38  1  0  0  0  0
 38 39  1  0  0  0  0
 40 39  1  0  0  0  0
 41 40  1  0  0  0  0
 42 37  1  0  0  0  0
 42 41  1  0  0  0  0
 43 44  1  0  0  0  0
M  END
>  <minimizedAffinity>
-4.87560177

$$$$

 OpenBabel09082221273D

 44 49  0  0  0  0  0  0  0  0999 V2000
    7.0060   -6.1090   -0.3020 C   0  0  0  0  0  0  0  0  0  0  0  0
    6.0540   -5.0950   -0.3660 C   0  0  0  0  0  3  0  0  0  0  0  0
    5.4140   -4.8130   -1.5780 C   0  0  0  0  0  3  0  0  0  0  0  0
    5.7050   -5.5380   -2.7430 C   0  0  0  0  0  0  0  0  0  0  0  0
    6.7050   -6.5380   -2.6910 C   0  0  0  0  0  0  0  0  0  0  0  0
    7.3230   -6.8220   -1.4610 C   0  0  0  0  0  3  0  0  0  0  0  0
    7.1710   -7.3090   -3.8630 C   0  0  0  0  0  3  0  0  0  0  0  0
    7.3230   -6.7480   -5.0770 C   0  0  0  0  0  0  0  0  0  0  0  0
    7.0350   -5.3140   -5.3910 C   0  0  0  0  0  2  0  0  0  0  0  0
    5.6070   -5.0610   -5.2000 N   0  0  0  0  0  0  0  0  0  0  0  0
    4.9650   -5.2230   -3.9830 C   0  0  0  0  0  0  0  0  0  0  0  0
    3.5920   -5.1390   -4.2270 C   0  0  0  0  0  0  0  0  0  0  0  0
    3.4260   -4.9070   -5.6380 C   0  0  0  0  0  0  0  0  0  0  0  0
    2.3020   -4.7890   -6.4890 C   0  0  0  0  0  3  0  0  0  0  0  0
    2.4730   -4.7190   -7.8770 C   0  0  0  0  0  3  0  0  0  0  0  0
    3.7560   -4.7180   -8.4180 C   0  0  0  0  0  0  0  0  0  0  0  0
    4.8880   -4.7430   -7.5980 C   0  0  0  0  0  3  0  0  0  0  0  0
    4.6970   -4.8670   -6.2140 C   0  0  0  0  0  0  0  0  0  0  0  0
    3.9890   -4.8400   -9.8730 C   0  0  0  0  0  0  0  0  0  0  0  0
    4.8650   -4.1930  -10.4220 O   0  0  0  0  0  0  0  0  0  0  0  0
    3.2020   -5.8280  -10.4740 N   0  0  0  0  0  0  0  0  0  0  0  0
    3.4120   -6.4450  -11.9850 S   0  0  0  0  0  0  0  0  0  0  0  0
    2.3040   -7.3580  -12.1720 O   0  0  0  0  0  0  0  0  0  0  0  0
    3.6640   -5.3790  -12.9190 O   0  0  0  0  0  0  0  0  0  0  0  0
    4.7870   -7.3690  -11.7930 N   0  0  0  0  0  0  0  0  0  0  0  0
    6.0880   -6.7160  -11.6170 C   0  0  0  0  0  1  0  0  0  0  0  0
    4.7120   -8.7820  -11.3720 C   0  0  0  0  0  2  0  0  0  0  0  0
    4.1170   -9.0230   -9.9800 C   0  0  0  0  0  2  0  0  0  0  0  0
    4.9570   -8.4840   -8.9510 O   0  0  0  0  0  0  0  0  0  0  0  0
    4.8080   -9.2080   -7.7210 C   0  0  0  0  0  2  0  0  0  0  0  0
    5.6420   -8.5850   -6.5880 C   0  0  0  0  0  2  0  0  0  0  0  0
    7.0990   -8.4950   -6.7940 N   0  0  0  0  0  0  0  0  0  0  0  0
    7.7360   -9.4580   -7.6800 C   0  0  0  0  0  1  0  0  0  0  0  0
    7.9100   -7.5560   -6.1710 C   0  0  0  0  0  0  0  0  0  0  0  0
    9.0900   -7.3670   -6.4560 O   0  0  0  0  0  0  0  0  0  0  0  0
    2.6170   -6.4220   -9.9010 H   0  0  0  0  0  0  0  0  0  0  0  0
    2.4860   -5.3620   -3.2120 C   0  0  0  0  0  3  0  0  0  0  0  0
    2.6460   -6.6840   -2.4450 C   0  0  0  0  0  2  0  0  0  0  0  0
    1.5060   -6.8980   -1.4520 C   0  0  0  0  0  2  0  0  0  0  0  0
    1.3530   -5.7110   -0.5040 C   0  0  0  0  0  2  0  0  0  0  0  0
    1.1780   -4.4010   -1.2650 C   0  0  0  0  0  2  0  0  0  0  0  0
    2.3190   -4.1690   -2.2540 C   0  0  0  0  0  2  0  0  0  0  0  0
    7.0150   -6.4120    2.0560 C   0  0  0  0  0  1  0  0  0  0  0  0
    7.7000   -6.4900    0.8130 O   0  0  0  0  0  0  0  0  0  0  0  0
  1 44  1  0  0  0  0
  2  1  1  0  0  0  0
  3  2  2  0  0  0  0
  4  5  2  0  0  0  0
  4  3  1  0  0  0  0
  5  6  1  0  0  0  0
  6  1  2  0  0  0  0
  7  5  1  0  0  0  0
  8  7  2  0  0  0  0
  9 10  1  0  0  0  0
  9  8  1  0  0  0  0
 10 11  1  0  0  0  0
 11  4  1  0  0  0  0
 12 11  2  0  0  0  0
 12 37  1  0  0  0  0
 13 12  1  0  0  0  0
 14 13  2  0  0  0  0
 15 14  1  0  0  0  0
 16 15  2  0  0  0  0
 16 17  1  0  0  0  0
 17 18  2  0  0  0  0
 18 13  1  0  0  0  0
 18 10  1  0  0  0  0
 19 16  1  0  0  0  0
 20 19  2  0  0  0  0
 21 36  1  0  0  0  0
 21 19  1  0  0  0  0
 22 25  1  0  0  0  0
 22 21  1  0  0  0  0
 23 22  2  0  0  0  0
 24 22  2  0  0  0  0
 25 26  1  0  0  0  0
 25 27  1  0  0  0  0
 27 28  1  0  0  0  0
 28 29  1  0  0  0  0
 29 30  1  0  0  0  0
 30 31  1  0  0  0  0
 32 31  1  0  0  0  0
 32 34  1  0  0  0  0
 33 32  1  0  0  0  0
 34  8  1  0  0  0  0
 35 34  2  0  0  0  0
 37 38  1  0  0  0  0
 37 42  1  0  0  0  0
 38 39  1  0  0  0  0
 39 40  1  0  0  0  0
 41 40  1  0  0  0  0
 42 41  1  0  0  0  0
 44 43  1  0  0  0  0
M  END
>  <minimizedAffinity>
-4.65049219

$$$$

 OpenBabel09082221273D

 44 49  0  0  0  0  0  0  0  0999 V2000
    6.4070   -5.4550    0.6970 C   0  0  0  0  0  0  0  0  0  0  0  0
    5.2520   -4.6940    0.8530 C   0  0  0  0  0  3  0  0  0  0  0  0
    4.4490   -4.4080   -0.2570 C   0  0  0  0  0  3  0  0  0  0  0  0
    4.7780   -4.8790   -1.5370 C   0  0  0  0  0  0  0  0  0  0  0  0
    5.9750   -5.6150   -1.7040 C   0  0  0  0  0  0  0  0  0  0  0  0
    6.7590   -5.9100   -0.5760 C   0  0  0  0  0  3  0  0  0  0  0  0
    6.4830   -6.0880   -3.0100 C   0  0  0  0  0  3  0  0  0  0  0  0
    6.3860   -5.3480   -4.1290 C   0  0  0  0  0  0  0  0  0  0  0  0
    5.7570   -3.9930   -4.1980 C   0  0  0  0  0  2  0  0  0  0  0  0
    4.3350   -4.1100   -3.8780 N   0  0  0  0  0  0  0  0  0  0  0  0
    3.8680   -4.5810   -2.6620 C   0  0  0  0  0  0  0  0  0  0  0  0
    2.4940   -4.7890   -2.8010 C   0  0  0  0  0  0  0  0  0  0  0  0
    2.1420   -4.4140   -4.1460 C   0  0  0  0  0  0  0  0  0  0  0  0
    0.9410   -4.4470   -4.8940 C   0  0  0  0  0  3  0  0  0  0  0  0
    0.9550   -4.1520   -6.2620 C   0  0  0  0  0  3  0  0  0  0  0  0
    2.1460   -3.7770   -6.8780 C   0  0  0  0  0  0  0  0  0  0  0  0
    3.3310   -3.6460   -6.1470 C   0  0  0  0  0  3  0  0  0  0  0  0
    3.3090   -3.9990   -4.7890 C   0  0  0  0  0  0  0  0  0  0  0  0
    2.2560   -3.6420   -8.3470 C   0  0  0  0  0  0  0  0  0  0  0  0
    2.9080   -2.7390   -8.8450 O   0  0  0  0  0  0  0  0  0  0  0  0
    1.6530   -4.6960   -9.0410 N   0  0  0  0  0  0  0  0  0  0  0  0
    1.8450   -5.0360  -10.6400 S   0  0  0  0  0  0  0  0  0  0  0  0
    0.9550   -6.1480  -10.8940 O   0  0  0  0  0  0  0  0  0  0  0  0
    1.7600   -3.8230  -11.4110 O   0  0  0  0  0  0  0  0  0  0  0  0
    3.4030   -5.6280  -10.6820 N   0  0  0  0  0  0  0  0  0  0  0  0
    4.5370   -4.7190  -10.4920 C   0  0  0  0  0  1  0  0  0  0  0  0
    3.6860   -7.0630  -10.4810 C   0  0  0  0  0  2  0  0  0  0  0  0
    3.2990   -7.6240   -9.1080 C   0  0  0  0  0  2  0  0  0  0  0  0
    4.0960   -7.0480   -8.0640 O   0  0  0  0  0  0  0  0  0  0  0  0
    4.2340   -7.9460   -6.9540 C   0  0  0  0  0  2  0  0  0  0  0  0
    5.0150   -7.3050   -5.7950 C   0  0  0  0  0  2  0  0  0  0  0  0
    6.3880   -6.8490   -6.0780 N   0  0  0  0  0  0  0  0  0  0  0  0
    7.1330   -7.5060   -7.1410 C   0  0  0  0  0  1  0  0  0  0  0  0
    7.0270   -5.8400   -5.3710 C   0  0  0  0  0  0  0  0  0  0  0  0
    8.1020   -5.3430   -5.6990 O   0  0  0  0  0  0  0  0  0  0  0  0
    1.2740   -5.4820   -8.5310 H   0  0  0  0  0  0  0  0  0  0  0  0
    1.5700   -5.4010   -1.7640 C   0  0  0  0  0  3  0  0  0  0  0  0
    0.4550   -4.4400   -1.3260 C   0  0  0  0  0  2  0  0  0  0  0  0
   -0.4420   -5.0690   -0.2620 C   0  0  0  0  0  2  0  0  0  0  0  0
   -1.0050   -6.4120   -0.7200 C   0  0  0  0  0  2  0  0  0  0  0  0
    0.1030   -7.3730   -1.1400 C   0  0  0  0  0  2  0  0  0  0  0  0
    1.0010   -6.7590   -2.2130 C   0  0  0  0  0  2  0  0  0  0  0  0
    7.5000   -7.2020    1.8840 C   0  0  0  0  0  1  0  0  0  0  0  0
    7.2750   -5.8110    1.6920 O   0  0  0  0  0  0  0  0  0  0  0  0
  1  2  1  0  0  0  0
  1 44  1  0  0  0  0
  3  2  2  0  0  0  0
  4  3  1  0  0  0  0
  5  4  2  0  0  0  0
  5  6  1  0  0  0  0
  6  1  2  0  0  0  0
  7  5  1  0  0  0  0
  8  7  2  0  0  0  0
  9  8  1  0  0  0  0
  9 10  1  0  0  0  0
 10 11  1  0  0  0  0
 11  4  1  0  0  0  0
 12 11  2  0  0  0  0
 12 37  1  0  0  0  0
 13 12  1  0  0  0  0
 14 13  2  0  0  0  0
 15 14  1  0  0  0  0
 16 15  2  0  0  0  0
 16 17  1  0  0  0  0
 17 18  2  0  0  0  0
 18 13  1  0  0  0  0
 18 10  1  0  0  0  0
 19 16  1  0  0  0  0
 20 19  2  0  0  0  0
 21 36  1  0  0  0  0
 21 19  1  0  0  0  0
 22 21  1  0  0  0  0
 23 22  2  0  0  0  0
 24 22  2  0  0  0  0
 25 22  1  0  0  0  0
 25 26  1  0  0  0  0
 25 27  1  0  0  0  0
 27 28  1  0  0  0  0
 28 29  1  0  0  0  0
 29 30  1  0  0  0  0
 30 31  1  0  0  0  0
 32 31  1  0  0  0  0
 32 34  1  0  0  0  0
 33 32  1  0  0  0  0
 34  8  1  0  0  0  0
 35 34  2  0  0  0  0
 37 38  1  0  0  0  0
 38 39  1  0  0  0  0
 40 39  1  0  0  0  0
 41 40  1  0  0  0  0
 42 37  1  0  0  0  0
 42 41  1  0  0  0  0
 44 43  1  0  0  0  0
M  END
>  <minimizedAffinity>
-4.60745907

$$$$

 OpenBabel09082221273D

 44 49  0  0  0  0  0  0  0  0999 V2000
    2.5710   -4.2260   -9.6290 C   0  0  0  0  0  0  0  0  0  0  0  0
    3.9530   -4.2870   -9.4750 C   0  0  0  0  0  3  0  0  0  0  0  0
    4.5110   -4.3670   -8.1940 C   0  0  0  0  0  3  0  0  0  0  0  0
    3.7030   -4.3950   -7.0470 C   0  0  0  0  0  0  0  0  0  0  0  0
    2.3000   -4.2880   -7.2000 C   0  0  0  0  0  0  0  0  0  0  0  0
    1.7560   -4.2290   -8.4940 C   0  0  0  0  0  3  0  0  0  0  0  0
    1.3460   -4.2120   -6.0730 C   0  0  0  0  0  3  0  0  0  0  0  0
    1.6140   -3.5210   -4.9500 C   0  0  0  0  0  0  0  0  0  0  0  0
    2.8830   -2.7700   -4.6980 C   0  0  0  0  0  2  0  0  0  0  0  0
    3.9970   -3.7180   -4.6540 N   0  0  0  0  0  0  0  0  0  0  0  0
    4.3480   -4.5250   -5.7240 C   0  0  0  0  0  0  0  0  0  0  0  0
    5.2720   -5.4590   -5.2490 C   0  0  0  0  0  0  0  0  0  0  0  0
    5.4780   -5.1790   -3.8520 C   0  0  0  0  0  0  0  0  0  0  0  0
    6.2380   -5.7930   -2.8280 C   0  0  0  0  0  3  0  0  0  0  0  0
    6.1060   -5.3670   -1.5010 C   0  0  0  0  0  3  0  0  0  0  0  0
    5.2610   -4.3030   -1.1950 C   0  0  0  0  0  0  0  0  0  0  0  0
    4.5660   -3.6170   -2.1970 C   0  0  0  0  0  3  0  0  0  0  0  0
    4.6690   -4.0930   -3.5130 C   0  0  0  0  0  0  0  0  0  0  0  0
    4.9380   -3.9390    0.2010 C   0  0  0  0  0  0  0  0  0  0  0  0
    4.8480   -2.7700    0.5380 O   0  0  0  0  0  0  0  0  0  0  0  0
    4.6460   -5.0470    1.0030 N   0  0  0  0  0  0  0  0  0  0  0  0
    3.9530   -5.0050    2.4960 S   0  0  0  0  0  0  0  0  0  0  0  0
    3.9450   -6.3820    2.9420 O   0  0  0  0  0  0  0  0  0  0  0  0
    4.5620   -3.9690    3.2880 O   0  0  0  0  0  0  0  0  0  0  0  0
    2.3790   -4.5930    2.1340 N   0  0  0  0  0  0  0  0  0  0  0  0
    2.0630   -3.2330    1.6840 C   0  0  0  0  0  1  0  0  0  0  0  0
    1.3620   -5.6220    1.8400 C   0  0  0  0  0  2  0  0  0  0  0  0
    1.6320   -6.4760    0.5970 C   0  0  0  0  0  2  0  0  0  0  0  0
    1.5690   -5.6910   -0.6020 O   0  0  0  0  0  0  0  0  0  0  0  0
    1.1740   -6.4870   -1.7290 C   0  0  0  0  0  2  0  0  0  0  0  0
    1.1860   -5.6730   -3.0340 C   0  0  0  0  0  2  0  0  0  0  0  0
    0.3170   -4.4830   -3.0950 N   0  0  0  0  0  0  0  0  0  0  0  0
   -0.8780   -4.4530   -2.2650 C   0  0  0  0  0  1  0  0  0  0  0  0
    0.5580   -3.3920   -3.9190 C   0  0  0  0  0  0  0  0  0  0  0  0
   -0.0630   -2.3340   -3.8610 O   0  0  0  0  0  0  0  0  0  0  0  0
    4.5920   -5.9670    0.5880 H   0  0  0  0  0  0  0  0  0  0  0  0
    5.8600   -6.6170   -6.0340 C   0  0  0  0  0  3  0  0  0  0  0  0
    7.3960   -6.5840   -6.0740 C   0  0  0  0  0  2  0  0  0  0  0  0
    7.9600   -7.7430   -6.8930 C   0  0  0  0  0  2  0  0  0  0  0  0
    7.4380   -9.0900   -6.3990 C   0  0  0  0  0  2  0  0  0  0  0  0
    5.9140   -9.1280   -6.3750 C   0  0  0  0  0  2  0  0  0  0  0  0
    5.3370   -7.9810   -5.5480 C   0  0  0  0  0  2  0  0  0  0  0  0
    1.5110   -2.8550  -11.2560 C   0  0  0  0  0  1  0  0  0  0  0  0
    1.8970   -4.1510  -10.8170 O   0  0  0  0  0  0  0  0  0  0  0  0
  1  2  2  0  0  0  0
  1  6  1  0  0  0  0
  2  3  1  0  0  0  0
  3  4  2  0  0  0  0
  4 11  1  0  0  0  0
  5  4  1  0  0  0  0
  5  7  1  0  0  0  0
  6  5  2  0  0  0  0
  7  8  2  0  0  0  0
  8  9  1  0  0  0  0
  8 34  1  0  0  0  0
  9 10  1  0  0  0  0
 10 18  1  0  0  0  0
 11 12  2  0  0  0  0
 11 10  1  0  0  0  0
 12 13  1  0  0  0  0
 13 18  2  0  0  0  0
 13 14  1  0  0  0  0
 14 15  2  0  0  0  0
 15 16  1  0  0  0  0
 16 19  1  0  0  0  0
 17 16  2  0  0  0  0
 18 17  1  0  0  0  0
 19 20  2  0  0  0  0
 19 21  1  0  0  0  0
 21 22  1  0  0  0  0
 22 23  2  0  0  0  0
 22 24  2  0  0  0  0
 25 22  1  0  0  0  0
 26 25  1  0  0  0  0
 27 25  1  0  0  0  0
 28 27  1  0  0  0  0
 29 28  1  0  0  0  0
 30 29  1  0  0  0  0
 31 30  1  0  0  0  0
 32 31  1  0  0  0  0
 32 33  1  0  0  0  0
 34 35  2  0  0  0  0
 34 32  1  0  0  0  0
 36 21  1  0  0  0  0
 37 42  1  0  0  0  0
 37 12  1  0  0  0  0
 38 37  1  0  0  0  0
 39 40  1  0  0  0  0
 39 38  1  0  0  0  0
 40 41  1  0  0  0  0
 41 42  1  0  0  0  0
 43 44  1  0  0  0  0
 44  1  1  0  0  0  0
M  END
>  <minimizedAffinity>
-4.60085821

$$$$

 OpenBabel09082221273D

 44 49  0  0  0  0  0  0  0  0999 V2000
   -0.5750   -0.3340  -12.7640 C   0  0  0  0  0  0  0  0  0  0  0  0
    0.2350   -1.2200  -13.4690 C   0  0  0  0  0  3  0  0  0  0  0  0
    1.0840   -2.0910  -12.7780 C   0  0  0  0  0  3  0  0  0  0  0  0
    1.1360   -2.1000  -11.3760 C   0  0  0  0  0  0  0  0  0  0  0  0
    0.3460   -1.1700  -10.6590 C   0  0  0  0  0  0  0  0  0  0  0  0
   -0.5160   -0.3150  -11.3680 C   0  0  0  0  0  3  0  0  0  0  0  0
    0.3780   -1.0130   -9.1890 C   0  0  0  0  0  3  0  0  0  0  0  0
    1.5190   -1.0970   -8.4820 C   0  0  0  0  0  0  0  0  0  0  0  0
    2.8660   -1.3670   -9.0740 C   0  0  0  0  0  2  0  0  0  0  0  0
    2.8660   -2.7040   -9.6690 N   0  0  0  0  0  0  0  0  0  0  0  0
    2.0200   -3.0730  -10.7010 C   0  0  0  0  0  0  0  0  0  0  0  0
    2.1210   -4.4600  -10.8400 C   0  0  0  0  0  0  0  0  0  0  0  0
    3.0710   -4.9160   -9.8590 C   0  0  0  0  0  0  0  0  0  0  0  0
    3.5510   -6.1890   -9.4730 C   0  0  0  0  0  3  0  0  0  0  0  0
    4.3790   -6.3210   -8.3520 C   0  0  0  0  0  3  0  0  0  0  0  0
    4.7700   -5.1880   -7.6430 C   0  0  0  0  0  0  0  0  0  0  0  0
    4.3870   -3.9070   -8.0540 C   0  0  0  0  0  3  0  0  0  0  0  0
    3.5140   -3.8000   -9.1470 C   0  0  0  0  0  0  0  0  0  0  0  0
    5.4800   -5.2830   -6.3490 C   0  0  0  0  0  0  0  0  0  0  0  0
    6.3850   -4.5130   -6.0740 O   0  0  0  0  0  0  0  0  0  0  0  0
    4.9240   -6.2360   -5.4880 N   0  0  0  0  0  0  0  0  0  0  0  0
    5.2480   -6.3930   -3.8820 S   0  0  0  0  0  0  0  0  0  0  0  0
    4.5060   -7.5640   -3.4650 O   0  0  0  0  0  0  0  0  0  0  0  0
    6.6670   -6.2920   -3.6570 O   0  0  0  0  0  0  0  0  0  0  0  0
    4.4750   -5.0620   -3.2420 N   0  0  0  0  0  0  0  0  0  0  0  0
    5.0210   -3.7200   -3.4660 C   0  0  0  0  0  1  0  0  0  0  0  0
    3.0600   -5.1220   -2.8240 C   0  0  0  0  0  2  0  0  0  0  0  0
    2.0560   -5.4120   -3.9440 C   0  0  0  0  0  2  0  0  0  0  0  0
    2.0060   -4.3400   -4.8950 O   0  0  0  0  0  0  0  0  0  0  0  0
    0.7210   -4.2580   -5.5260 C   0  0  0  0  0  2  0  0  0  0  0  0
    0.6850   -3.1650   -6.6080 C   0  0  0  0  0  2  0  0  0  0  0  0
    0.9800   -1.7850   -6.1820 N   0  0  0  0  0  0  0  0  0  0  0  0
    0.7070   -1.4090   -4.8030 C   0  0  0  0  0  1  0  0  0  0  0  0
    1.4850   -0.8080   -7.0300 C   0  0  0  0  0  0  0  0  0  0  0  0
    1.8860    0.2910   -6.6530 O   0  0  0  0  0  0  0  0  0  0  0  0
    4.0730   -6.7130   -5.7500 H   0  0  0  0  0  0  0  0  0  0  0  0
    1.2990   -5.3300  -11.7730 C   0  0  0  0  0  3  0  0  0  0  0  0
    2.1640   -6.0760  -12.8000 C   0  0  0  0  0  2  0  0  0  0  0  0
    1.3110   -6.9210  -13.7440 C   0  0  0  0  0  2  0  0  0  0  0  0
    0.3980   -7.8750  -12.9780 C   0  0  0  0  0  2  0  0  0  0  0  0
   -0.4730   -7.1330  -11.9690 C   0  0  0  0  0  2  0  0  0  0  0  0
    0.3700   -6.2930  -11.0110 C   0  0  0  0  0  2  0  0  0  0  0  0
   -1.4770    1.8660  -12.7410 C   0  0  0  0  0  1  0  0  0  0  0  0
   -1.4510    0.5640  -13.3110 O   0  0  0  0  0  0  0  0  0  0  0  0
  1  6  1  0  0  0  0
  2  3  1  0  0  0  0
  2  1  2  0  0  0  0
  3  4  2  0  0  0  0
  4 11  1  0  0  0  0
  4  5  1  0  0  0  0
  5  7  1  0  0  0  0
  6  5  2  0  0  0  0
  7  8  2  0  0  0  0
  8 34  1  0  0  0  0
  9  8  1  0  0  0  0
 10 18  1  0  0  0  0
 10  9  1  0  0  0  0
 11 10  1  0  0  0  0
 12 11  2  0  0  0  0
 12 13  1  0  0  0  0
 13 14  2  0  0  0  0
 13 18  1  0  0  0  0
 14 15  1  0  0  0  0
 15 16  2  0  0  0  0
 16 19  1  0  0  0  0
 17 16  1  0  0  0  0
 18 17  2  0  0  0  0
 19 20  2  0  0  0  0
 19 21  1  0  0  0  0
 21 22  1  0  0  0  0
 22 24  2  0  0  0  0
 22 23  2  0  0  0  0
 22 25  1  0  0  0  0
 25 27  1  0  0  0  0
 26 25  1  0  0  0  0
 28 27  1  0  0  0  0
 29 28  1  0  0  0  0
 30 29  1  0  0  0  0
 31 32  1  0  0  0  0
 31 30  1  0  0  0  0
 32 33  1  0  0  0  0
 34 35  2  0  0  0  0
 34 32  1  0  0  0  0
 36 21  1  0  0  0  0
 37 42  1  0  0  0  0
 37 12  1  0  0  0  0
 38 37  1  0  0  0  0
 39 40  1  0  0  0  0
 39 38  1  0  0  0  0
 40 41  1  0  0  0  0
 41 42  1  0  0  0  0
 44  1  1  0  0  0  0
 44 43  1  0  0  0  0
M  END
>  <minimizedAffinity>
-4.58677721

$$$$

 OpenBabel09082221273D

 44 49  0  0  0  0  0  0  0  0999 V2000
    8.7550   -8.3360   -7.5650 C   0  0  0  0  0  0  0  0  0  0  0  0
    9.2940   -7.7030   -6.4480 C   0  0  0  0  0  3  0  0  0  0  0  0
    8.4910   -6.8720   -5.6600 C   0  0  0  0  0  3  0  0  0  0  0  0
    7.1370   -6.6640   -5.9650 C   0  0  0  0  0  0  0  0  0  0  0  0
    6.5990   -7.2700   -7.1250 C   0  0  0  0  0  0  0  0  0  0  0  0
    7.4150   -8.1170   -7.8940 C   0  0  0  0  0  3  0  0  0  0  0  0
    5.2180   -7.0570   -7.6080 C   0  0  0  0  0  3  0  0  0  0  0  0
    4.6120   -5.8580   -7.5480 C   0  0  0  0  0  0  0  0  0  0  0  0
    5.2360   -4.6200   -6.9850 C   0  0  0  0  0  2  0  0  0  0  0  0
    5.4920   -4.8200   -5.5590 N   0  0  0  0  0  0  0  0  0  0  0  0
    6.3280   -5.8100   -5.0710 C   0  0  0  0  0  0  0  0  0  0  0  0
    6.1390   -5.8640   -3.6870 C   0  0  0  0  0  0  0  0  0  0  0  0
    5.1630   -4.8590   -3.3540 C   0  0  0  0  0  0  0  0  0  0  0  0
    4.5260   -4.4680   -2.1530 C   0  0  0  0  0  3  0  0  0  0  0  0
    3.4820   -3.5360   -2.1800 C   0  0  0  0  0  3  0  0  0  0  0  0
    3.1020   -2.9560   -3.3880 C   0  0  0  0  0  0  0  0  0  0  0  0
    3.7730   -3.2540   -4.5780 C   0  0  0  0  0  3  0  0  0  0  0  0
    4.7800   -4.2300   -4.5390 C   0  0  0  0  0  0  0  0  0  0  0  0
    1.8890   -2.1180   -3.5040 C   0  0  0  0  0  0  0  0  0  0  0  0
    1.8860   -1.1150   -4.1990 O   0  0  0  0  0  0  0  0  0  0  0  0
    0.7800   -2.6640   -2.8490 N   0  0  0  0  0  0  0  0  0  0  0  0
   -0.7830   -2.1780   -3.0240 S   0  0  0  0  0  0  0  0  0  0  0  0
   -1.5310   -2.9810   -2.0800 O   0  0  0  0  0  0  0  0  0  0  0  0
   -0.8530   -0.7400   -2.9980 O   0  0  0  0  0  0  0  0  0  0  0  0
   -1.1500   -2.7380   -4.5500 N   0  0  0  0  0  0  0  0  0  0  0  0
   -0.5640   -2.0900   -5.7280 C   0  0  0  0  0  1  0  0  0  0  0  0
   -1.6900   -4.0950   -4.7630 C   0  0  0  0  0  2  0  0  0  0  0  0
   -0.7640   -5.2440   -4.3500 C   0  0  0  0  0  2  0  0  0  0  0  0
    0.4090   -5.2930   -5.1750 O   0  0  0  0  0  0  0  0  0  0  0  0
    0.9270   -6.6270   -5.2690 C   0  0  0  0  0  2  0  0  0  0  0  0
    2.2320   -6.6760   -6.0810 C   0  0  0  0  0  2  0  0  0  0  0  0
    2.1770   -6.1990   -7.4750 N   0  0  0  0  0  0  0  0  0  0  0  0
    0.9100   -6.2760   -8.1870 C   0  0  0  0  0  1  0  0  0  0  0  0
    3.2750   -5.6980   -8.1630 C   0  0  0  0  0  0  0  0  0  0  0  0
    3.2080   -5.1500   -9.2610 O   0  0  0  0  0  0  0  0  0  0  0  0
    0.8450   -3.5830   -2.4330 H   0  0  0  0  0  0  0  0  0  0  0  0
    6.7610   -6.8690   -2.7350 C   0  0  0  0  0  3  0  0  0  0  0  0
    6.8730   -6.3320   -1.3000 C   0  0  0  0  0  2  0  0  0  0  0  0
    7.5280   -7.3500   -0.3700 C   0  0  0  0  0  2  0  0  0  0  0  0
    6.8110   -8.6970   -0.4120 C   0  0  0  0  0  2  0  0  0  0  0  0
    6.7130   -9.2380   -1.8350 C   0  0  0  0  0  2  0  0  0  0  0  0
    6.0490   -8.2330   -2.7740 C   0  0  0  0  0  2  0  0  0  0  0  0
   10.0130   -8.5860   -9.5680 C   0  0  0  0  0  1  0  0  0  0  0  0
    9.4230   -9.1740   -8.4150 O   0  0  0  0  0  0  0  0  0  0  0  0
  1  2  1  0  0  0  0
  2  3  2  0  0  0  0
  4  3  1  0  0  0  0
  4 11  1  0  0  0  0
  5  4  2  0  0  0  0
  6  1  2  0  0  0  0
  6  5  1  0  0  0  0
  7  8  2  0  0  0  0
  7  5  1  0  0  0  0
  8  9  1  0  0  0  0
  9 10  1  0  0  0  0
 10 11  1  0  0  0  0
 10 18  1  0  0  0  0
 11 12  2  0  0  0  0
 12 13  1  0  0  0  0
 12 37  1  0  0  0  0
 13 14  1  0  0  0  0
 15 14  2  0  0  0  0
 16 15  1  0  0  0  0
 17 18  1  0  0  0  0
 17 16  2  0  0  0  0
 18 13  2  0  0  0  0
 19 16  1  0  0  0  0
 19 21  1  0  0  0  0
 20 19  2  0  0  0  0
 21 36  1  0  0  0  0
 22 24  2  0  0  0  0
 22 21  1  0  0  0  0
 22 23  2  0  0  0  0
 25 22  1  0  0  0  0
 26 25  1  0  0  0  0
 27 25  1  0  0  0  0
 27 28  1  0  0  0  0
 29 28  1  0  0  0  0
 30 29  1  0  0  0  0
 31 30  1  0  0  0  0
 32 31  1  0  0  0  0
 33 32  1  0  0  0  0
 34  8  1  0  0  0  0
 34 32  1  0  0  0  0
 35 34  2  0  0  0  0
 37 38  1  0  0  0  0
 38 39  1  0  0  0  0
 40 39  1  0  0  0  0
 41 40  1  0  0  0  0
 42 37  1  0  0  0  0
 42 41  1  0  0  0  0
 43 44  1  0  0  0  0
 44  1  1  0  0  0  0
M  END
>  <minimizedAffinity>
-4.5732069

$$$$

 OpenBabel09082221273D

 44 49  0  0  0  0  0  0  0  0999 V2000
    3.9350   -6.9790   -1.5970 C   0  0  0  0  0  0  0  0  0  0  0  0
    4.5390   -7.6560   -2.6530 C   0  0  0  0  0  3  0  0  0  0  0  0
    4.3300   -7.2290   -3.9680 C   0  0  0  0  0  3  0  0  0  0  0  0
    3.5230   -6.1180   -4.2550 C   0  0  0  0  0  0  0  0  0  0  0  0
    2.8720   -5.4550   -3.1870 C   0  0  0  0  0  0  0  0  0  0  0  0
    3.1090   -5.8860   -1.8700 C   0  0  0  0  0  3  0  0  0  0  0  0
    1.9250   -4.3330   -3.3600 C   0  0  0  0  0  3  0  0  0  0  0  0
    1.0360   -4.2920   -4.3700 C   0  0  0  0  0  0  0  0  0  0  0  0
    0.9040   -5.3420   -5.4270 C   0  0  0  0  0  2  0  0  0  0  0  0
    2.1390   -5.3880   -6.2100 N   0  0  0  0  0  0  0  0  0  0  0  0
    3.3740   -5.6880   -5.6610 C   0  0  0  0  0  0  0  0  0  0  0  0
    4.3370   -5.3970   -6.6300 C   0  0  0  0  0  0  0  0  0  0  0  0
    3.6360   -4.9210   -7.7940 C   0  0  0  0  0  0  0  0  0  0  0  0
    4.0470   -4.4280   -9.0560 C   0  0  0  0  0  3  0  0  0  0  0  0
    3.1080   -3.8840   -9.9390 C   0  0  0  0  0  3  0  0  0  0  0  0
    1.7580   -3.8720   -9.5950 C   0  0  0  0  0  0  0  0  0  0  0  0
    1.3110   -4.4340   -8.3960 C   0  0  0  0  0  3  0  0  0  0  0  0
    2.2730   -4.9260   -7.5000 C   0  0  0  0  0  0  0  0  0  0  0  0
    0.7540   -3.1420  -10.3990 C   0  0  0  0  0  0  0  0  0  0  0  0
   -0.3540   -3.6140  -10.5950 O   0  0  0  0  0  0  0  0  0  0  0  0
    1.1780   -1.8630  -10.7760 N   0  0  0  0  0  0  0  0  0  0  0  0
    0.2260   -0.6720  -11.3940 S   0  0  0  0  0  0  0  0  0  0  0  0
    1.1350    0.4110  -11.7030 O   0  0  0  0  0  0  0  0  0  0  0  0
   -0.6500   -1.2180  -12.3980 O   0  0  0  0  0  0  0  0  0  0  0  0
   -0.6590   -0.2090  -10.0590 N   0  0  0  0  0  0  0  0  0  0  0  0
   -1.6990   -1.0960   -9.5270 C   0  0  0  0  0  1  0  0  0  0  0  0
   -0.1750    0.8400   -9.1410 C   0  0  0  0  0  2  0  0  0  0  0  0
    1.1330    0.5220   -8.4090 C   0  0  0  0  0  2  0  0  0  0  0  0
    0.9690   -0.5730   -7.4970 O   0  0  0  0  0  0  0  0  0  0  0  0
    1.8860   -0.4800   -6.3970 C   0  0  0  0  0  2  0  0  0  0  0  0
    1.7750   -1.6940   -5.4590 C   0  0  0  0  0  2  0  0  0  0  0  0
    0.4650   -1.9450   -4.8320 N   0  0  0  0  0  0  0  0  0  0  0  0
   -0.4320   -0.8190   -4.6220 C   0  0  0  0  0  1  0  0  0  0  0  0
    0.0410   -3.1960   -4.4040 C   0  0  0  0  0  0  0  0  0  0  0  0
   -1.1030   -3.4460   -4.0320 O   0  0  0  0  0  0  0  0  0  0  0  0
    2.0560   -1.5020  -10.4270 H   0  0  0  0  0  0  0  0  0  0  0  0
    5.8420   -5.4650   -6.4480 C   0  0  0  0  0  3  0  0  0  0  0  0
    6.3220   -4.6950   -5.2080 C   0  0  0  0  0  2  0  0  0  0  0  0
    7.8410   -4.7550   -5.0630 C   0  0  0  0  0  2  0  0  0  0  0  0
    8.3520   -6.1930   -5.0650 C   0  0  0  0  0  2  0  0  0  0  0  0
    7.8890   -6.9540   -6.3040 C   0  0  0  0  0  2  0  0  0  0  0  0
    6.3690   -6.9110   -6.4530 C   0  0  0  0  0  2  0  0  0  0  0  0
    3.6900   -6.2750    0.6610 C   0  0  0  0  0  1  0  0  0  0  0  0
    4.0580   -7.2850   -0.2700 O   0  0  0  0  0  0  0  0  0  0  0  0
  1 44  1  0  0  0  0
  2  1  2  0  0  0  0
  3  2  1  0  0  0  0
  4  3  2  0  0  0  0
  4  5  1  0  0  0  0
  5  6  2  0  0  0  0
  6  1  1  0  0  0  0
  7  5  1  0  0  0  0
  8  7  2  0  0  0  0
  9  8  1  0  0  0  0
 10 11  1  0  0  0  0
 10  9  1  0  0  0  0
 11  4  1  0  0  0  0
 12 37  1  0  0  0  0
 12 11  2  0  0  0  0
 13 18  1  0  0  0  0
 13 12  1  0  0  0  0
 14 13  2  0  0  0  0
 15 16  2  0  0  0  0
 15 14  1  0  0  0  0
 16 17  1  0  0  0  0
 17 18  2  0  0  0  0
 18 10  1  0  0  0  0
 19 16  1  0  0  0  0
 20 19  2  0  0  0  0
 21 36  1  0  0  0  0
 21 19  1  0  0  0  0
 22 21  1  0  0  0  0
 22 25  1  0  0  0  0
 23 22  2  0  0  0  0
 24 22  2  0  0  0  0
 25 26  1  0  0  0  0
 25 27  1  0  0  0  0
 27 28  1  0  0  0  0
 28 29  1  0  0  0  0
 29 30  1  0  0  0  0
 30 31  1  0  0  0  0
 31 32  1  0  0  0  0
 32 33  1  0  0  0  0
 32 34  1  0  0  0  0
 34  8  1  0  0  0  0
 34 35  2  0  0  0  0
 37 38  1  0  0  0  0
 38 39  1  0  0  0  0
 40 39  1  0  0  0  0
 41 40  1  0  0  0  0
 42 37  1  0  0  0  0
 42 41  1  0  0  0  0
 44 43  1  0  0  0  0
M  END
>  <minimizedAffinity>
-4.56511641

$$$$

 OpenBabel09082221273D

 44 49  0  0  0  0  0  0  0  0999 V2000
    8.5600   -6.9880   -6.0760 C   0  0  0  0  0  0  0  0  0  0  0  0
    8.4520   -5.8210   -5.3250 C   0  0  0  0  0  3  0  0  0  0  0  0
    7.2360   -5.1320   -5.2740 C   0  0  0  0  0  3  0  0  0  0  0  0
    6.1050   -5.5960   -5.9630 C   0  0  0  0  0  0  0  0  0  0  0  0
    6.2240   -6.7570   -6.7630 C   0  0  0  0  0  0  0  0  0  0  0  0
    7.4480   -7.4480   -6.7870 C   0  0  0  0  0  3  0  0  0  0  0  0
    5.1390   -7.2970   -7.6090 C   0  0  0  0  0  3  0  0  0  0  0  0
    4.3020   -6.5010   -8.2990 C   0  0  0  0  0  0  0  0  0  0  0  0
    4.3510   -5.0060   -8.2880 C   0  0  0  0  0  2  0  0  0  0  0  0
    4.0590   -4.5290   -6.9360 N   0  0  0  0  0  0  0  0  0  0  0  0
    4.8360   -4.8490   -5.8350 C   0  0  0  0  0  0  0  0  0  0  0  0
    4.1320   -4.4380   -4.7010 C   0  0  0  0  0  0  0  0  0  0  0  0
    2.9030   -3.8430   -5.1570 C   0  0  0  0  0  0  0  0  0  0  0  0
    1.7710   -3.3010   -4.5040 C   0  0  0  0  0  3  0  0  0  0  0  0
    0.6410   -2.9320   -5.2420 C   0  0  0  0  0  3  0  0  0  0  0  0
    0.6480   -3.0550   -6.6290 C   0  0  0  0  0  0  0  0  0  0  0  0
    1.7840   -3.5020   -7.3110 C   0  0  0  0  0  3  0  0  0  0  0  0
    2.8880   -3.9170   -6.5510 C   0  0  0  0  0  0  0  0  0  0  0  0
   -0.5760   -2.8650   -7.4370 C   0  0  0  0  0  0  0  0  0  0  0  0
   -0.5330   -2.2910   -8.5120 O   0  0  0  0  0  0  0  0  0  0  0  0
   -1.6960   -3.5010   -6.8920 N   0  0  0  0  0  0  0  0  0  0  0  0
   -3.1290   -3.7630   -7.6600 S   0  0  0  0  0  0  0  0  0  0  0  0
   -3.9840   -4.3640   -6.6590 O   0  0  0  0  0  0  0  0  0  0  0  0
   -3.5300   -2.5740   -8.3660 O   0  0  0  0  0  0  0  0  0  0  0  0
   -2.7230   -4.9600   -8.7480 N   0  0  0  0  0  0  0  0  0  0  0  0
   -1.8830   -4.6410   -9.9070 C   0  0  0  0  0  1  0  0  0  0  0  0
   -2.8090   -6.3890   -8.3870 C   0  0  0  0  0  2  0  0  0  0  0  0
   -1.8860   -6.8370   -7.2490 C   0  0  0  0  0  2  0  0  0  0  0  0
   -0.5050   -6.7410   -7.6260 O   0  0  0  0  0  0  0  0  0  0  0  0
    0.2980   -7.6970   -6.9190 C   0  0  0  0  0  2  0  0  0  0  0  0
    1.7910   -7.5450   -7.2530 C   0  0  0  0  0  2  0  0  0  0  0  0
    2.1850   -7.6990   -8.6660 N   0  0  0  0  0  0  0  0  0  0  0  0
    1.3580   -8.5260   -9.5320 C   0  0  0  0  0  1  0  0  0  0  0  0
    3.3190   -7.1200   -9.2180 C   0  0  0  0  0  0  0  0  0  0  0  0
    3.5700   -7.1060  -10.4210 O   0  0  0  0  0  0  0  0  0  0  0  0
   -1.5940   -4.0880   -6.0750 H   0  0  0  0  0  0  0  0  0  0  0  0
    4.5380   -4.6760   -3.2580 C   0  0  0  0  0  3  0  0  0  0  0  0
    4.5470   -3.3840   -2.4260 C   0  0  0  0  0  2  0  0  0  0  0  0
    4.9860   -3.6470   -0.9870 C   0  0  0  0  0  2  0  0  0  0  0  0
    4.1420   -4.7350   -0.3290 C   0  0  0  0  0  2  0  0  0  0  0  0
    4.1460   -6.0230   -1.1470 C   0  0  0  0  0  2  0  0  0  0  0  0
    3.6970   -5.7750   -2.5850 C   0  0  0  0  0  2  0  0  0  0  0  0
    9.8340   -8.4690   -7.4300 C   0  0  0  0  0  1  0  0  0  0  0  0
    9.6820   -7.7580   -6.2080 O   0  0  0  0  0  0  0  0  0  0  0  0
  1  2  1  0  0  0  0
  2  3  2  0  0  0  0
  4 11  1  0  0  0  0
  4  3  1  0  0  0  0
  5  4  2  0  0  0  0
  6  5  1  0  0  0  0
  6  1  2  0  0  0  0
  7  5  1  0  0  0  0
  8  9  1  0  0  0  0
  8  7  2  0  0  0  0
  9 10  1  0  0  0  0
 10 18  1  0  0  0  0
 10 11  1  0  0  0  0
 11 12  2  0  0  0  0
 12 37  1  0  0  0  0
 13 12  1  0  0  0  0
 13 14  1  0  0  0  0
 15 14  2  0  0  0  0
 16 15  1  0  0  0  0
 17 16  2  0  0  0  0
 17 18  1  0  0  0  0
 18 13  2  0  0  0  0
 19 21  1  0  0  0  0
 19 16  1  0  0  0  0
 20 19  2  0  0  0  0
 21 36  1  0  0  0  0
 22 21  1  0  0  0  0
 22 23  2  0  0  0  0
 24 22  2  0  0  0  0
 25 27  1  0  0  0  0
 25 22  1  0  0  0  0
 26 25  1  0  0  0  0
 27 28  1  0  0  0  0
 29 28  1  0  0  0  0
 29 30  1  0  0  0  0
 31 30  1  0  0  0  0
 32 31  1  0  0  0  0
 33 32  1  0  0  0  0
 34 32  1  0  0  0  0
 34  8  1  0  0  0  0
 35 34  2  0  0  0  0
 37 42  1  0  0  0  0
 37 38  1  0  0  0  0
 38 39  1  0  0  0  0
 39 40  1  0  0  0  0
 41 40  1  0  0  0  0
 42 41  1  0  0  0  0
 43 44  1  0  0  0  0
 44  1  1  0  0  0  0
M  END
>  <minimizedAffinity>
-4.51036167

$$$$
