
 OpenBabel09092210413D

 44 49  0  0  0  0  0  0  0  0999 V2000
    6.7600   -5.9060    0.4260 C   0  0  0  0  0  0  0  0  0  0  0  0
    5.8810   -5.0140    1.0330 C   0  0  0  0  0  3  0  0  0  0  0  0
    4.9140   -4.3550    0.2670 C   0  0  0  0  0  3  0  0  0  0  0  0
    4.8000   -4.5780   -1.1130 C   0  0  0  0  0  0  0  0  0  0  0  0
    5.7210   -5.4510   -1.7400 C   0  0  0  0  0  0  0  0  0  0  0  0
    6.6740   -6.1190   -0.9520 C   0  0  0  0  0  3  0  0  0  0  0  0
    5.7690   -5.7000   -3.1970 C   0  0  0  0  0  3  0  0  0  0  0  0
    5.5660   -4.7230   -4.1000 C   0  0  0  0  0  0  0  0  0  0  0  0
    5.2600   -3.3000   -3.7560 C   0  0  0  0  0  2  0  0  0  0  0  0
    3.9730   -3.2430   -3.0640 N   0  0  0  0  0  0  0  0  0  0  0  0
    3.7300   -3.8860   -1.8620 C   0  0  0  0  0  0  0  0  0  0  0  0
    2.3530   -3.8210   -1.6310 C   0  0  0  0  0  0  0  0  0  0  0  0
    1.7730   -3.1010   -2.7340 C   0  0  0  0  0  0  0  0  0  0  0  0
    0.4480   -2.7630   -3.0980 C   0  0  0  0  0  3  0  0  0  0  0  0
    0.1870   -2.1760   -4.3420 C   0  0  0  0  0  3  0  0  0  0  0  0
    1.2400   -1.8810   -5.2040 C   0  0  0  0  0  0  0  0  0  0  0  0
    2.5680   -2.1200   -4.8350 C   0  0  0  0  0  3  0  0  0  0  0  0
    2.8050   -2.7580   -3.6070 C   0  0  0  0  0  0  0  0  0  0  0  0
    1.0100   -1.4430   -6.5980 C   0  0  0  0  0  0  0  0  0  0  0  0
    1.7030   -0.5760   -7.1030 O   0  0  0  0  0  0  0  0  0  0  0  0
    0.0320   -2.1970   -7.2540 N   0  0  0  0  0  0  0  0  0  0  0  0
   -0.2600   -2.2000   -8.8740 S   0  0  0  0  0  0  0  0  0  0  0  0
   -1.4120   -3.0600   -9.0440 O   0  0  0  0  0  0  0  0  0  0  0  0
   -0.2600   -0.8490   -9.3740 O   0  0  0  0  0  0  0  0  0  0  0  0
    1.0640   -3.0240   -9.4630 N   0  0  0  0  0  0  0  0  0  0  0  0
    2.3840   -2.3870   -9.4590 C   0  0  0  0  0  1  0  0  0  0  0  0
    1.0580   -4.4950   -9.5960 C   0  0  0  0  0  2  0  0  0  0  0  0
    0.9090   -5.2730   -8.2850 C   0  0  0  0  0  2  0  0  0  0  0  0
    2.0490   -5.0890   -7.4340 O   0  0  0  0  0  0  0  0  0  0  0  0
    2.2520   -6.2220   -6.5780 C   0  0  0  0  0  2  0  0  0  0  0  0
    3.4210   -5.9970   -5.6030 C   0  0  0  0  0  2  0  0  0  0  0  0
    4.7470   -5.7300   -6.1890 N   0  0  0  0  0  0  0  0  0  0  0  0
    5.0370   -6.2500   -7.5170 C   0  0  0  0  0  1  0  0  0  0  0  0
    5.7510   -5.0270   -5.5380 C   0  0  0  0  0  0  0  0  0  0  0  0
    6.7940   -4.6600   -6.0730 O   0  0  0  0  0  0  0  0  0  0  0  0
   -0.3740   -3.0020   -6.7970 H   0  0  0  0  0  0  0  0  0  0  0  0
    1.6030   -4.4830   -0.4900 C   0  0  0  0  0  3  0  0  0  0  0  0
    0.8890   -3.4670    0.4150 C   0  0  0  0  0  2  0  0  0  0  0  0
    0.1670   -4.1560    1.5710 C   0  0  0  0  0  2  0  0  0  0  0  0
   -0.7890   -5.2380    1.0740 C   0  0  0  0  0  2  0  0  0  0  0  0
   -0.0770   -6.2560    0.1890 C   0  0  0  0  0  2  0  0  0  0  0  0
    0.6400   -5.5800   -0.9790 C   0  0  0  0  0  2  0  0  0  0  0  0
    8.2690   -7.7430    0.3600 C   0  0  0  0  0  1  0  0  0  0  0  0
    7.7450   -6.6180    1.0540 O   0  0  0  0  0  0  0  0  0  0  0  0
  1  2  1  0  0  0  0
  1 44  1  0  0  0  0
  3  2  2  0  0  0  0
  4  3  1  0  0  0  0
  5  4  2  0  0  0  0
  5  6  1  0  0  0  0
  6  1  2  0  0  0  0
  7  5  1  0  0  0  0
  8  9  1  0  0  0  0
  8  7  2  0  0  0  0
  9 10  1  0  0  0  0
 10 11  1  0  0  0  0
 11 12  2  0  0  0  0
 11  4  1  0  0  0  0
 12 37  1  0  0  0  0
 13 12  1  0  0  0  0
 14 13  1  0  0  0  0
 15 14  2  0  0  0  0
 16 17  2  0  0  0  0
 16 15  1  0  0  0  0
 17 18  1  0  0  0  0
 18 10  1  0  0  0  0
 18 13  2  0  0  0  0
 19 16  1  0  0  0  0
 20 19  2  0  0  0  0
 21 36  1  0  0  0  0
 21 19  1  0  0  0  0
 22 21  1  0  0  0  0
 23 22  2  0  0  0  0
 24 22  2  0  0  0  0
 25 26  1  0  0  0  0
 25 22  1  0  0  0  0
 27 25  1  0  0  0  0
 27 28  1  0  0  0  0
 28 29  1  0  0  0  0
 29 30  1  0  0  0  0
 30 31  1  0  0  0  0
 32 31  1  0  0  0  0
 32 34  1  0  0  0  0
 33 32  1  0  0  0  0
 34  8  1  0  0  0  0
 35 34  2  0  0  0  0
 37 38  1  0  0  0  0
 38 39  1  0  0  0  0
 40 39  1  0  0  0  0
 41 40  1  0  0  0  0
 42 37  1  0  0  0  0
 42 41  1  0  0  0  0
 43 44  1  0  0  0  0
M  END
>  <minimizedAffinity>
-4.87560177

$$$$
