
 OpenBabel09092210413D

 44 49  0  0  0  0  0  0  0  0999 V2000
    7.0060   -6.1090   -0.3020 C   0  0  0  0  0  0  0  0  0  0  0  0
    6.0540   -5.0950   -0.3660 C   0  0  0  0  0  3  0  0  0  0  0  0
    5.4140   -4.8130   -1.5780 C   0  0  0  0  0  3  0  0  0  0  0  0
    5.7050   -5.5380   -2.7430 C   0  0  0  0  0  0  0  0  0  0  0  0
    6.7050   -6.5380   -2.6910 C   0  0  0  0  0  0  0  0  0  0  0  0
    7.3230   -6.8220   -1.4610 C   0  0  0  0  0  3  0  0  0  0  0  0
    7.1710   -7.3090   -3.8630 C   0  0  0  0  0  3  0  0  0  0  0  0
    7.3230   -6.7480   -5.0770 C   0  0  0  0  0  0  0  0  0  0  0  0
    7.0350   -5.3140   -5.3910 C   0  0  0  0  0  2  0  0  0  0  0  0
    5.6070   -5.0610   -5.2000 N   0  0  0  0  0  0  0  0  0  0  0  0
    4.9650   -5.2230   -3.9830 C   0  0  0  0  0  0  0  0  0  0  0  0
    3.5920   -5.1390   -4.2270 C   0  0  0  0  0  0  0  0  0  0  0  0
    3.4260   -4.9070   -5.6380 C   0  0  0  0  0  0  0  0  0  0  0  0
    2.3020   -4.7890   -6.4890 C   0  0  0  0  0  3  0  0  0  0  0  0
    2.4730   -4.7190   -7.8770 C   0  0  0  0  0  3  0  0  0  0  0  0
    3.7560   -4.7180   -8.4180 C   0  0  0  0  0  0  0  0  0  0  0  0
    4.8880   -4.7430   -7.5980 C   0  0  0  0  0  3  0  0  0  0  0  0
    4.6970   -4.8670   -6.2140 C   0  0  0  0  0  0  0  0  0  0  0  0
    3.9890   -4.8400   -9.8730 C   0  0  0  0  0  0  0  0  0  0  0  0
    4.8650   -4.1930  -10.4220 O   0  0  0  0  0  0  0  0  0  0  0  0
    3.2020   -5.8280  -10.4740 N   0  0  0  0  0  0  0  0  0  0  0  0
    3.4120   -6.4450  -11.9850 S   0  0  0  0  0  0  0  0  0  0  0  0
    2.3040   -7.3580  -12.1720 O   0  0  0  0  0  0  0  0  0  0  0  0
    3.6640   -5.3790  -12.9190 O   0  0  0  0  0  0  0  0  0  0  0  0
    4.7870   -7.3690  -11.7930 N   0  0  0  0  0  0  0  0  0  0  0  0
    6.0880   -6.7160  -11.6170 C   0  0  0  0  0  1  0  0  0  0  0  0
    4.7120   -8.7820  -11.3720 C   0  0  0  0  0  2  0  0  0  0  0  0
    4.1170   -9.0230   -9.9800 C   0  0  0  0  0  2  0  0  0  0  0  0
    4.9570   -8.4840   -8.9510 O   0  0  0  0  0  0  0  0  0  0  0  0
    4.8080   -9.2080   -7.7210 C   0  0  0  0  0  2  0  0  0  0  0  0
    5.6420   -8.5850   -6.5880 C   0  0  0  0  0  2  0  0  0  0  0  0
    7.0990   -8.4950   -6.7940 N   0  0  0  0  0  0  0  0  0  0  0  0
    7.7360   -9.4580   -7.6800 C   0  0  0  0  0  1  0  0  0  0  0  0
    7.9100   -7.5560   -6.1710 C   0  0  0  0  0  0  0  0  0  0  0  0
    9.0900   -7.3670   -6.4560 O   0  0  0  0  0  0  0  0  0  0  0  0
    2.6170   -6.4220   -9.9010 H   0  0  0  0  0  0  0  0  0  0  0  0
    2.4860   -5.3620   -3.2120 C   0  0  0  0  0  3  0  0  0  0  0  0
    2.6460   -6.6840   -2.4450 C   0  0  0  0  0  2  0  0  0  0  0  0
    1.5060   -6.8980   -1.4520 C   0  0  0  0  0  2  0  0  0  0  0  0
    1.3530   -5.7110   -0.5040 C   0  0  0  0  0  2  0  0  0  0  0  0
    1.1780   -4.4010   -1.2650 C   0  0  0  0  0  2  0  0  0  0  0  0
    2.3190   -4.1690   -2.2540 C   0  0  0  0  0  2  0  0  0  0  0  0
    7.0150   -6.4120    2.0560 C   0  0  0  0  0  1  0  0  0  0  0  0
    7.7000   -6.4900    0.8130 O   0  0  0  0  0  0  0  0  0  0  0  0
  1 44  1  0  0  0  0
  2  1  1  0  0  0  0
  3  2  2  0  0  0  0
  4  5  2  0  0  0  0
  4  3  1  0  0  0  0
  5  6  1  0  0  0  0
  6  1  2  0  0  0  0
  7  5  1  0  0  0  0
  8  7  2  0  0  0  0
  9 10  1  0  0  0  0
  9  8  1  0  0  0  0
 10 11  1  0  0  0  0
 11  4  1  0  0  0  0
 12 11  2  0  0  0  0
 12 37  1  0  0  0  0
 13 12  1  0  0  0  0
 14 13  2  0  0  0  0
 15 14  1  0  0  0  0
 16 15  2  0  0  0  0
 16 17  1  0  0  0  0
 17 18  2  0  0  0  0
 18 13  1  0  0  0  0
 18 10  1  0  0  0  0
 19 16  1  0  0  0  0
 20 19  2  0  0  0  0
 21 36  1  0  0  0  0
 21 19  1  0  0  0  0
 22 25  1  0  0  0  0
 22 21  1  0  0  0  0
 23 22  2  0  0  0  0
 24 22  2  0  0  0  0
 25 26  1  0  0  0  0
 25 27  1  0  0  0  0
 27 28  1  0  0  0  0
 28 29  1  0  0  0  0
 29 30  1  0  0  0  0
 30 31  1  0  0  0  0
 32 31  1  0  0  0  0
 32 34  1  0  0  0  0
 33 32  1  0  0  0  0
 34  8  1  0  0  0  0
 35 34  2  0  0  0  0
 37 38  1  0  0  0  0
 37 42  1  0  0  0  0
 38 39  1  0  0  0  0
 39 40  1  0  0  0  0
 41 40  1  0  0  0  0
 42 41  1  0  0  0  0
 44 43  1  0  0  0  0
M  END
>  <minimizedAffinity>
-4.65049219

$$$$
