REMARK  Name = 
REMARK  8 active torsions:
REMARK  status: ('A' for Active; 'I' for Inactive)
REMARK    1  A    between atoms: C_2  and  C_3
REMARK    2  A    between atoms: C_3  and  C_4
REMARK    3  A    between atoms: C_4  and  C_5
REMARK    4  A    between atoms: N_10  and  CA_11
REMARK    5  A    between atoms: CA_11  and  C_28
REMARK    6  A    between atoms: C_12  and  C_13
REMARK    7  A    between atoms: C_16  and  O_17
REMARK    8  A    between atoms: O_17  and  C_18
REMARK                            x       y       z     vdW  Elec       q    Type
REMARK                         _______ _______ _______ _____ _____    ______ ____
ROOT
ATOM      1  CA  UNL     1       2.006   1.841  -2.489  0.00  0.00    +0.057 C 
ATOM      2  C   UNL     1       2.681   2.442  -3.490  0.00  0.00    +0.033 C 
ENDROOT
BRANCH   2   3
ATOM      3  C   UNL     1       4.136   2.444  -3.661  0.00  0.00    -0.023 A 
ATOM      4  C   UNL     1       4.850   3.639  -3.537  0.00  0.00    +0.011 A 
ATOM      5  C   UNL     1       6.237   3.647  -3.700  0.00  0.00    +0.047 A 
ATOM      6  C   UNL     1       6.914   2.457  -3.973  0.00  0.00    +0.129 A 
ATOM      7  C   UNL     1       6.204   1.263  -4.125  0.00  0.00    +0.047 A 
ATOM      8  C   UNL     1       4.818   1.259  -3.964  0.00  0.00    +0.011 A 
BRANCH   6   9
ATOM      9  O   UNL     1       8.277   2.543  -4.150  0.00  0.00    -0.455 OA
BRANCH   9  10
ATOM     10  C   UNL     1       9.045   1.574  -3.544  0.00  0.00    +0.142 A 
ATOM     11  C   UNL     1       8.974   1.375  -2.159  0.00  0.00    +0.050 A 
ATOM     12  C   UNL     1       9.791   0.421  -1.552  0.00  0.00    +0.042 A 
ATOM     13  C   UNL     1      10.680  -0.314  -2.329  0.00  0.00    +0.125 A 
ATOM     14  F   UNL     1      11.464  -1.229  -1.743  0.00  0.00    -0.205 F 
ATOM     15  C   UNL     1      10.777  -0.112  -3.701  0.00  0.00    +0.057 A 
ATOM     16  C   UNL     1       9.962   0.843  -4.310  0.00  0.00    +0.063 A 
ATOM     17 BR   UNL     1      10.124   1.105  -6.181  0.00  0.00    -0.046 Br
ENDBRANCH   9  10
ENDBRANCH   6   9
ENDBRANCH   2   3
BRANCH   1  20
ATOM     18  O   UNL     1       0.939  -0.038  -0.488  0.00  0.00    -0.275 OA
ATOM     19  C   UNL     1       2.079   0.411  -0.480  0.00  0.00    +0.217 C 
ATOM     20  N   UNL     1       2.663   1.218  -1.439  0.00  0.00    -0.284 N 
ATOM     21  H   UNL     1       3.662   1.354  -1.404  0.00  0.00    +0.155 HD
BRANCH  19  22
ATOM     22  C   UNL     1       3.042   0.074   0.649  0.00  0.00    +0.096 C 
BRANCH  22  23
ATOM     23  C   UNL     1       3.185  -1.433   0.886  0.00  0.00    +0.013 C 
BRANCH  23  24
ATOM     24  C   UNL     1       4.332  -2.136   0.145  0.00  0.00    -0.011 C 
ATOM     25  C   UNL     1       4.272  -2.080  -1.383  0.00  0.00    +0.003 C 
ATOM     26  C   UNL     1       5.716  -2.310  -1.802  0.00  0.00    +0.000 C 
ATOM     27  C   UNL     1       6.493  -1.473  -0.799  0.00  0.00    +0.000 C 
ATOM     28  C   UNL     1       5.741  -1.643   0.519  0.00  0.00    +0.003 C 
ENDBRANCH  23  24
ENDBRANCH  22  23
ENDBRANCH  19  22
ENDBRANCH   1  20
BRANCH   1  29
ATOM     29  C   UNL     1       0.452   2.010  -2.585  0.00  0.00    +0.086 C 
ATOM     30  O   UNL     1      -0.039   2.804  -1.728  0.00  0.00    -0.543 OA
ATOM     31  OXT UNL     1      -0.084   1.464  -3.596  0.00  0.00    -0.543 OA
ENDBRANCH   1  29
TORSDOF 8
