
 OpenBabel09122218323D

 31 33  0  0  0  0  0  0  0  0999 V2000
   10.1090    2.8650    0.3290 C   0  0  0  0  0  0  0  0  0  0  0  0
    9.5720    2.3220    1.4400 C   0  0  0  0  0  2  0  0  0  0  0  0
    9.5000    0.8910    1.7440 C   0  0  0  0  0  0  0  0  0  0  0  0
    9.3570   -0.0350    0.7070 C   0  0  0  0  0  3  0  0  0  0  0  0
    9.2870   -1.4010    0.9910 C   0  0  0  0  0  3  0  0  0  0  0  0
    9.3730   -1.8440    2.3120 C   0  0  0  0  0  0  0  0  0  0  0  0
    9.4890   -0.9220    3.3570 C   0  0  0  0  0  3  0  0  0  0  0  0
    9.5560    0.4420    3.0700 C   0  0  0  0  0  3  0  0  0  0  0  0
    9.2680   -3.2010    2.5220 O   0  0  0  0  0  0  0  0  0  0  0  0
    7.9970   -3.7320    2.5290 C   0  0  0  0  0  0  0  0  0  0  0  0
    7.1340   -3.4930    3.6060 C   0  0  0  0  0  3  0  0  0  0  0  0
    5.8660   -4.0750    3.6210 C   0  0  0  0  0  3  0  0  0  0  0  0
    5.4780   -4.8990    2.5700 C   0  0  0  0  0  0  0  0  0  0  0  0
    4.2600   -5.4570    2.5880 F   0  0  0  0  0  0  0  0  0  0  0  0
    6.3320   -5.1630    1.5060 C   0  0  0  0  0  3  0  0  0  0  0  0
    7.6010   -4.5830    1.4890 C   0  0  0  0  0  0  0  0  0  0  0  0
    8.7500   -4.9690    0.0310 Br  0  0  0  0  0  0  0  0  0  0  0  0
   12.8680    2.5560   -0.6520 O   0  0  0  0  0  0  0  0  0  0  0  0
   11.8840    2.0470   -1.1760 C   0  0  0  0  0  0  0  0  0  0  0  0
   10.5820    2.0790   -0.7100 N   0  0  0  0  0  4  0  0  0  0  0  0
    9.9090    1.4600   -1.1340 H   0  0  0  0  0  0  0  0  0  0  0  0
   12.0120    1.2470   -2.4640 C   0  0  0  0  0  2  0  0  0  0  0  0
   11.3410   -0.1290   -2.3850 C   0  0  0  0  0  2  0  0  0  0  0  0
   12.1730   -1.2600   -1.7630 C   0  0  0  0  0  3  0  0  0  0  0  0
   11.4730   -2.6160   -1.6490 C   0  0  0  0  0  2  0  0  0  0  0  0
   12.6270   -3.6030   -1.5660 C   0  0  0  0  0  2  0  0  0  0  0  0
   13.6040   -3.0640   -2.5980 C   0  0  0  0  0  2  0  0  0  0  0  0
   13.5080   -1.5460   -2.4720 C   0  0  0  0  0  2  0  0  0  0  0  0
   10.0440    4.4300    0.2970 C   0  0  0  0  0  0  0  0  0  0  0  0
    8.9720    4.8960   -0.1930 O   0  0  0  0  0  0  0  0  0  0  0  0
   10.9890    5.0170    0.9040 O   0  0  0  0  0  1  0  0  0  0  0  0
  1  2  1  0  0  0  0
  2  3  1  0  0  0  0
  3  8  1  0  0  0  0
  4  5  1  0  0  0  0
  4  3  2  0  0  0  0
  5  6  2  0  0  0  0
  6  9  1  0  0  0  0
  6  7  1  0  0  0  0
  8  7  2  0  0  0  0
  9 10  1  0  0  0  0
 10 11  1  0  0  0  0
 11 12  2  0  0  0  0
 13 14  1  0  0  0  0
 13 12  1  0  0  0  0
 15 13  2  0  0  0  0
 16 15  1  0  0  0  0
 16 10  2  0  0  0  0
 17 16  1  0  0  0  0
 19 20  1  0  0  0  0
 19 18  2  0  0  0  0
 20  1  2  0  0  0  0
 21 20  1  0  0  0  0
 22 23  1  0  0  0  0
 22 19  1  0  0  0  0
 23 24  1  0  0  0  0
 24 25  1  0  0  0  0
 25 26  1  0  0  0  0
 27 28  1  0  0  0  0
 27 26  1  0  0  0  0
 28 24  1  0  0  0  0
 29  1  1  0  0  0  0
 29 31  1  0  0  0  0
 30 29  2  0  0  0  0
M  END
>  <minimizedAffinity>
-7.5920701

$$$$

 OpenBabel09122218323D

 31 33  0  0  0  0  0  0  0  0999 V2000
   10.2010    2.5030    0.1850 C   0  0  0  0  0  0  0  0  0  0  0  0
    9.6320    1.9150    1.2560 C   0  0  0  0  0  2  0  0  0  0  0  0
    9.4820    0.4720    1.4610 C   0  0  0  0  0  0  0  0  0  0  0  0
    9.3010   -0.0330    2.7520 C   0  0  0  0  0  3  0  0  0  0  0  0
    9.1590   -1.4080    2.9530 C   0  0  0  0  0  3  0  0  0  0  0  0
    9.1830   -2.2790    1.8620 C   0  0  0  0  0  0  0  0  0  0  0  0
    9.3900   -1.7840    0.5720 C   0  0  0  0  0  3  0  0  0  0  0  0
    9.5350   -0.4100    0.3740 C   0  0  0  0  0  3  0  0  0  0  0  0
    9.0660   -3.6230    2.1370 O   0  0  0  0  0  0  0  0  0  0  0  0
    8.2180   -4.3500    1.3310 C   0  0  0  0  0  0  0  0  0  0  0  0
    8.6150   -4.7290    0.0420 C   0  0  0  0  0  3  0  0  0  0  0  0
    7.7290   -5.4260   -0.7800 C   0  0  0  0  0  3  0  0  0  0  0  0
    6.4540   -5.7260   -0.3150 C   0  0  0  0  0  0  0  0  0  0  0  0
    5.6050   -6.3950   -1.1070 F   0  0  0  0  0  0  0  0  0  0  0  0
    6.0390   -5.3380    0.9540 C   0  0  0  0  0  3  0  0  0  0  0  0
    6.9220   -4.6390    1.7770 C   0  0  0  0  0  0  0  0  0  0  0  0
    6.3250   -4.1130    3.4990 Br  0  0  0  0  0  0  0  0  0  0  0  0
   12.9340    2.1850   -0.8670 O   0  0  0  0  0  0  0  0  0  0  0  0
   11.9280    1.7300   -1.3990 C   0  0  0  0  0  0  0  0  0  0  0  0
   10.6370    1.7660   -0.9060 N   0  0  0  0  0  4  0  0  0  0  0  0
    9.9400    1.1870   -1.3500 H   0  0  0  0  0  0  0  0  0  0  0  0
   12.0130    1.0000   -2.7310 C   0  0  0  0  0  2  0  0  0  0  0  0
   11.4140   -0.4090   -2.6830 C   0  0  0  0  0  2  0  0  0  0  0  0
   12.4130   -1.5750   -2.6270 C   0  0  0  0  0  3  0  0  0  0  0  0
   13.8270   -1.2190   -2.1650 C   0  0  0  0  0  2  0  0  0  0  0  0
   14.3820   -2.5470   -1.6710 C   0  0  0  0  0  2  0  0  0  0  0  0
   13.2030   -3.1440   -0.9200 C   0  0  0  0  0  2  0  0  0  0  0  0
   11.9770   -2.7580   -1.7450 C   0  0  0  0  0  2  0  0  0  0  0  0
   10.2200    4.0680    0.2600 C   0  0  0  0  0  0  0  0  0  0  0  0
    9.1130    4.6160   -0.0240 O   0  0  0  0  0  0  0  0  0  0  0  0
   11.2800    4.5670    0.7450 O   0  0  0  0  0  1  0  0  0  0  0  0
  1 29  1  0  0  0  0
  1  2  1  0  0  0  0
  2  3  1  0  0  0  0
  3  4  1  0  0  0  0
  4  5  2  0  0  0  0
  6  9  1  0  0  0  0
  6  5  1  0  0  0  0
  7  6  2  0  0  0  0
  8  7  1  0  0  0  0
  8  3  2  0  0  0  0
 10 16  1  0  0  0  0
 10  9  1  0  0  0  0
 11 10  2  0  0  0  0
 12 13  2  0  0  0  0
 12 11  1  0  0  0  0
 13 15  1  0  0  0  0
 14 13  1  0  0  0  0
 15 16  2  0  0  0  0
 16 17  1  0  0  0  0
 19 20  1  0  0  0  0
 19 18  2  0  0  0  0
 20  1  2  0  0  0  0
 21 20  1  0  0  0  0
 22 23  1  0  0  0  0
 22 19  1  0  0  0  0
 23 24  1  0  0  0  0
 24 25  1  0  0  0  0
 24 28  1  0  0  0  0
 25 26  1  0  0  0  0
 26 27  1  0  0  0  0
 28 27  1  0  0  0  0
 29 31  1  0  0  0  0
 30 29  2  0  0  0  0
M  END
>  <minimizedAffinity>
-7.52150869

$$$$

 OpenBabel09122218323D

 31 33  0  0  0  0  0  0  0  0999 V2000
    9.2920   -2.4960    1.5270 C   0  0  0  0  0  0  0  0  0  0  0  0
    8.7560   -1.2750    1.7320 C   0  0  0  0  0  2  0  0  0  0  0  0
    9.3290   -0.0030    1.2860 C   0  0  0  0  0  0  0  0  0  0  0  0
    9.8980    0.0970    0.0130 C   0  0  0  0  0  3  0  0  0  0  0  0
   10.4470    1.3070   -0.4160 C   0  0  0  0  0  3  0  0  0  0  0  0
   10.4140    2.4240    0.4200 C   0  0  0  0  0  0  0  0  0  0  0  0
    9.8700    2.3250    1.7040 C   0  0  0  0  0  3  0  0  0  0  0  0
    9.3250    1.1140    2.1310 C   0  0  0  0  0  3  0  0  0  0  0  0
   10.9980    3.5760   -0.0560 O   0  0  0  0  0  0  0  0  0  0  0  0
   11.4040    4.5010    0.8800 C   0  0  0  0  0  0  0  0  0  0  0  0
   12.4090    4.1820    1.8030 C   0  0  0  0  0  3  0  0  0  0  0  0
   12.7790    5.1120    2.7750 C   0  0  0  0  0  3  0  0  0  0  0  0
   12.1330    6.3430    2.8260 C   0  0  0  0  0  0  0  0  0  0  0  0
   12.4900    7.2340    3.7610 F   0  0  0  0  0  0  0  0  0  0  0  0
   11.1190    6.6640    1.9310 C   0  0  0  0  0  3  0  0  0  0  0  0
   10.7470    5.7350    0.9590 C   0  0  0  0  0  0  0  0  0  0  0  0
    9.3530    6.1960   -0.2410 Br  0  0  0  0  0  0  0  0  0  0  0  0
    9.9520   -3.7400   -1.0590 O   0  0  0  0  0  0  0  0  0  0  0  0
   10.7800   -3.3300   -0.2550 C   0  0  0  0  0  0  0  0  0  0  0  0
   10.5310   -2.6550    0.9260 N   0  0  0  0  0  4  0  0  0  0  0  0
   11.3060   -2.2070    1.3920 H   0  0  0  0  0  0  0  0  0  0  0  0
   12.2700   -3.5050   -0.5120 C   0  0  0  0  0  2  0  0  0  0  0  0
   12.6190   -3.5660   -2.0020 C   0  0  0  0  0  2  0  0  0  0  0  0
   13.0580   -2.2470   -2.6560 C   0  0  0  0  0  3  0  0  0  0  0  0
   12.0380   -1.1080   -2.6110 C   0  0  0  0  0  2  0  0  0  0  0  0
   12.8930    0.1390   -2.7770 C   0  0  0  0  0  2  0  0  0  0  0  0
   14.0970   -0.1620   -1.9000 C   0  0  0  0  0  2  0  0  0  0  0  0
   14.3630   -1.6530   -2.0970 C   0  0  0  0  0  2  0  0  0  0  0  0
    8.4370   -3.6680    2.1180 C   0  0  0  0  0  0  0  0  0  0  0  0
    8.0510   -4.5150    1.2580 O   0  0  0  0  0  0  0  0  0  0  0  0
    8.3810   -3.7030    3.3840 O   0  0  0  0  0  1  0  0  0  0  0  0
  1  2  1  0  0  0  0
  1 29  1  0  0  0  0
  3  2  1  0  0  0  0
  3  8  1  0  0  0  0
  4  3  2  0  0  0  0
  5  4  1  0  0  0  0
  5  6  2  0  0  0  0
  6  7  1  0  0  0  0
  7  8  2  0  0  0  0
  9  6  1  0  0  0  0
  9 10  1  0  0  0  0
 10 16  2  0  0  0  0
 10 11  1  0  0  0  0
 11 12  2  0  0  0  0
 12 13  1  0  0  0  0
 13 14  1  0  0  0  0
 15 13  2  0  0  0  0
 16 15  1  0  0  0  0
 17 16  1  0  0  0  0
 18 19  2  0  0  0  0
 19 20  1  0  0  0  0
 20 21  1  0  0  0  0
 20  1  2  0  0  0  0
 22 19  1  0  0  0  0
 23 22  1  0  0  0  0
 24 25  1  0  0  0  0
 24 28  1  0  0  0  0
 24 23  1  0  0  0  0
 26 25  1  0  0  0  0
 26 27  1  0  0  0  0
 28 27  1  0  0  0  0
 29 31  1  0  0  0  0
 30 29  2  0  0  0  0
M  END
>  <minimizedAffinity>
-7.24331903

$$$$

 OpenBabel09122218323D

 31 33  0  0  0  0  0  0  0  0999 V2000
    9.3180   -3.2160    0.2500 C   0  0  0  0  0  0  0  0  0  0  0  0
    8.7500   -2.5680    1.2870 C   0  0  0  0  0  2  0  0  0  0  0  0
    9.1450   -1.2510    1.7930 C   0  0  0  0  0  0  0  0  0  0  0  0
    9.2310   -0.1660    0.9160 C   0  0  0  0  0  3  0  0  0  0  0  0
    9.6080    1.0920    1.3920 C   0  0  0  0  0  3  0  0  0  0  0  0
    9.8850    1.2700    2.7490 C   0  0  0  0  0  0  0  0  0  0  0  0
    9.8260    0.1840    3.6270 C   0  0  0  0  0  3  0  0  0  0  0  0
    9.4520   -1.0720    3.1470 C   0  0  0  0  0  3  0  0  0  0  0  0
   10.2780    2.5290    3.1440 O   0  0  0  0  0  0  0  0  0  0  0  0
   10.7640    3.3650    2.1630 C   0  0  0  0  0  0  0  0  0  0  0  0
    9.9380    3.7770    1.1090 C   0  0  0  0  0  3  0  0  0  0  0  0
   10.4560    4.5870    0.0980 C   0  0  0  0  0  3  0  0  0  0  0  0
   11.7940    4.9650    0.1410 C   0  0  0  0  0  0  0  0  0  0  0  0
   12.2890    5.7420   -0.8320 F   0  0  0  0  0  0  0  0  0  0  0  0
   12.6300    4.5460    1.1690 C   0  0  0  0  0  3  0  0  0  0  0  0
   12.1150    3.7340    2.1800 C   0  0  0  0  0  0  0  0  0  0  0  0
   13.2810    3.1680    3.5640 Br  0  0  0  0  0  0  0  0  0  0  0  0
   11.9380   -4.4830   -0.2030 O   0  0  0  0  0  0  0  0  0  0  0  0
   11.6640   -3.3280   -0.5050 C   0  0  0  0  0  0  0  0  0  0  0  0
   10.4310   -2.7100   -0.4040 N   0  0  0  0  0  4  0  0  0  0  0  0
   10.3020   -1.8230   -0.8660 H   0  0  0  0  0  0  0  0  0  0  0  0
   12.7210   -2.4050   -1.0940 C   0  0  0  0  0  2  0  0  0  0  0  0
   12.3890   -1.9430   -2.5170 C   0  0  0  0  0  2  0  0  0  0  0  0
   12.1300   -0.4410   -2.7060 C   0  0  0  0  0  3  0  0  0  0  0  0
   10.7800    0.0710   -2.2020 C   0  0  0  0  0  2  0  0  0  0  0  0
   11.0230    1.5570   -1.9870 C   0  0  0  0  0  2  0  0  0  0  0  0
   12.4040    1.5820   -1.3530 C   0  0  0  0  0  2  0  0  0  0  0  0
   13.1840    0.4810   -2.0680 C   0  0  0  0  0  2  0  0  0  0  0  0
    8.6680   -4.6080   -0.0570 C   0  0  0  0  0  0  0  0  0  0  0  0
    8.1890   -5.1940    0.9600 O   0  0  0  0  0  1  0  0  0  0  0  0
    8.5630   -4.8900   -1.2880 O   0  0  0  0  0  0  0  0  0  0  0  0
  1  2  1  0  0  0  0
  2  3  1  0  0  0  0
  3  8  1  0  0  0  0
  4  5  1  0  0  0  0
  4  3  2  0  0  0  0
  5  6  2  0  0  0  0
  6  9  1  0  0  0  0
  6  7  1  0  0  0  0
  8  7  2  0  0  0  0
 10 16  1  0  0  0  0
 10  9  1  0  0  0  0
 11 10  2  0  0  0  0
 12 13  2  0  0  0  0
 12 11  1  0  0  0  0
 13 15  1  0  0  0  0
 14 13  1  0  0  0  0
 15 16  2  0  0  0  0
 16 17  1  0  0  0  0
 19 20  1  0  0  0  0
 19 18  2  0  0  0  0
 20  1  2  0  0  0  0
 21 20  1  0  0  0  0
 22 19  1  0  0  0  0
 23 22  1  0  0  0  0
 24 23  1  0  0  0  0
 24 25  1  0  0  0  0
 24 28  1  0  0  0  0
 25 26  1  0  0  0  0
 26 27  1  0  0  0  0
 28 27  1  0  0  0  0
 29  1  1  0  0  0  0
 29 30  1  0  0  0  0
 31 29  2  0  0  0  0
M  END
>  <minimizedAffinity>
-7.21673107

$$$$

 OpenBabel09122218323D

 31 33  0  0  0  0  0  0  0  0999 V2000
    9.2220   -3.2930    0.3450 C   0  0  0  0  0  0  0  0  0  0  0  0
    8.6630   -2.7600    1.4510 C   0  0  0  0  0  2  0  0  0  0  0  0
    8.9950   -1.4580    2.0360 C   0  0  0  0  0  0  0  0  0  0  0  0
    9.3820   -1.3760    3.3760 C   0  0  0  0  0  3  0  0  0  0  0  0
    9.6990   -0.1380    3.9390 C   0  0  0  0  0  3  0  0  0  0  0  0
    9.6440    1.0180    3.1590 C   0  0  0  0  0  0  0  0  0  0  0  0
    9.2320    0.9470    1.8250 C   0  0  0  0  0  3  0  0  0  0  0  0
    8.9140   -0.2910    1.2660 C   0  0  0  0  0  3  0  0  0  0  0  0
    9.9410    2.2080    3.7860 O   0  0  0  0  0  0  0  0  0  0  0  0
   11.2710    2.5560    3.8600 C   0  0  0  0  0  0  0  0  0  0  0  0
   12.0550    2.1410    4.9450 C   0  0  0  0  0  3  0  0  0  0  0  0
   13.3890    2.5390    5.0300 C   0  0  0  0  0  3  0  0  0  0  0  0
   13.9240    3.3580    4.0410 C   0  0  0  0  0  0  0  0  0  0  0  0
   15.2060    3.7390    4.1260 F   0  0  0  0  0  0  0  0  0  0  0  0
   13.1530    3.7950    2.9700 C   0  0  0  0  0  3  0  0  0  0  0  0
   11.8170    3.3990    2.8840 C   0  0  0  0  0  0  0  0  0  0  0  0
   10.7860    4.0200    1.4190 Br  0  0  0  0  0  0  0  0  0  0  0  0
   11.9260   -4.3110   -0.2250 O   0  0  0  0  0  0  0  0  0  0  0  0
   11.5470   -3.1730   -0.4720 C   0  0  0  0  0  0  0  0  0  0  0  0
   10.2690   -2.6680   -0.3150 N   0  0  0  0  0  4  0  0  0  0  0  0
   10.0530   -1.7770   -0.7360 H   0  0  0  0  0  0  0  0  0  0  0  0
   12.5040   -2.1400   -1.0480 C   0  0  0  0  0  2  0  0  0  0  0  0
   12.0890   -1.6450   -2.4380 C   0  0  0  0  0  2  0  0  0  0  0  0
   11.7020   -0.1630   -2.5480 C   0  0  0  0  0  3  0  0  0  0  0  0
   10.5530    0.2950   -1.6470 C   0  0  0  0  0  2  0  0  0  0  0  0
   10.7710    1.7970   -1.5340 C   0  0  0  0  0  2  0  0  0  0  0  0
   12.2780    1.9050   -1.3690 C   0  0  0  0  0  2  0  0  0  0  0  0
   12.8510    0.8260   -2.2850 C   0  0  0  0  0  2  0  0  0  0  0  0
    8.6490   -4.7000   -0.0360 C   0  0  0  0  0  0  0  0  0  0  0  0
    8.1220   -5.3270    0.9310 O   0  0  0  0  0  1  0  0  0  0  0  0
    8.6430   -4.9550   -1.2780 O   0  0  0  0  0  0  0  0  0  0  0  0
  1  2  1  0  0  0  0
  2  3  1  0  0  0  0
  3  4  1  0  0  0  0
  4  5  2  0  0  0  0
  6  9  1  0  0  0  0
  6  5  1  0  0  0  0
  7  6  2  0  0  0  0
  8  7  1  0  0  0  0
  8  3  2  0  0  0  0
  9 10  1  0  0  0  0
 10 11  1  0  0  0  0
 11 12  2  0  0  0  0
 13 14  1  0  0  0  0
 13 12  1  0  0  0  0
 15 13  2  0  0  0  0
 16 15  1  0  0  0  0
 16 10  2  0  0  0  0
 17 16  1  0  0  0  0
 19 20  1  0  0  0  0
 19 18  2  0  0  0  0
 20  1  2  0  0  0  0
 21 20  1  0  0  0  0
 22 19  1  0  0  0  0
 23 22  1  0  0  0  0
 24 23  1  0  0  0  0
 24 28  1  0  0  0  0
 24 25  1  0  0  0  0
 25 26  1  0  0  0  0
 26 27  1  0  0  0  0
 28 27  1  0  0  0  0
 29  1  1  0  0  0  0
 29 30  1  0  0  0  0
 31 29  2  0  0  0  0
M  END
>  <minimizedAffinity>
-7.08526707

$$$$

 OpenBabel09122218323D

 31 33  0  0  0  0  0  0  0  0999 V2000
   13.0030   -1.9690   -1.9410 C   0  0  0  0  0  0  0  0  0  0  0  0
   12.8850   -0.7040   -2.3920 C   0  0  0  0  0  2  0  0  0  0  0  0
   12.1330    0.3710   -1.7400 C   0  0  0  0  0  0  0  0  0  0  0  0
   10.8130    0.1520   -1.3380 C   0  0  0  0  0  3  0  0  0  0  0  0
   10.0910    1.1740   -0.7160 C   0  0  0  0  0  3  0  0  0  0  0  0
   10.6940    2.4110   -0.4830 C   0  0  0  0  0  0  0  0  0  0  0  0
   12.0050    2.6460   -0.9060 C   0  0  0  0  0  3  0  0  0  0  0  0
   12.7220    1.6240   -1.5290 C   0  0  0  0  0  3  0  0  0  0  0  0
    9.9150    3.3810    0.1080 O   0  0  0  0  0  0  0  0  0  0  0  0
   10.3260    3.8450    1.3370 C   0  0  0  0  0  0  0  0  0  0  0  0
   10.5210    2.9570    2.4030 C   0  0  0  0  0  3  0  0  0  0  0  0
   10.8940    3.4460    3.6550 C   0  0  0  0  0  3  0  0  0  0  0  0
   11.0540    4.8160    3.8360 C   0  0  0  0  0  0  0  0  0  0  0  0
   11.4110    5.2830    5.0400 F   0  0  0  0  0  0  0  0  0  0  0  0
   10.8420    5.7110    2.7940 C   0  0  0  0  0  3  0  0  0  0  0  0
   10.4680    5.2240    1.5410 C   0  0  0  0  0  0  0  0  0  0  0  0
   10.1740    6.4690    0.1410 Br  0  0  0  0  0  0  0  0  0  0  0  0
   10.9550   -4.0730   -1.7170 O   0  0  0  0  0  0  0  0  0  0  0  0
   11.3050   -3.3440   -0.7960 C   0  0  0  0  0  0  0  0  0  0  0  0
   12.3220   -2.4080   -0.8160 N   0  0  0  0  0  4  0  0  0  0  0  0
   12.6290   -2.0180    0.0620 H   0  0  0  0  0  0  0  0  0  0  0  0
   10.6300   -3.4280    0.5650 C   0  0  0  0  0  2  0  0  0  0  0  0
    9.1010   -3.4760    0.4740 C   0  0  0  0  0  2  0  0  0  0  0  0
    8.4740   -4.8550    0.2230 C   0  0  0  0  0  3  0  0  0  0  0  0
    7.5090   -5.3550    1.3000 C   0  0  0  0  0  2  0  0  0  0  0  0
    6.6550   -6.3760    0.5630 C   0  0  0  0  0  2  0  0  0  0  0  0
    6.4000   -5.6970   -0.7730 C   0  0  0  0  0  2  0  0  0  0  0  0
    7.7090   -4.9840   -1.1060 C   0  0  0  0  0  2  0  0  0  0  0  0
   13.8820   -2.8860   -2.8580 C   0  0  0  0  0  0  0  0  0  0  0  0
   14.4950   -3.8060   -2.2380 O   0  0  0  0  0  1  0  0  0  0  0  0
   13.7390   -2.6930   -4.1020 O   0  0  0  0  0  0  0  0  0  0  0  0
  1 20  2  0  0  0  0
  2  1  1  0  0  0  0
  2  3  1  0  0  0  0
  3  8  2  0  0  0  0
  3  4  1  0  0  0  0
  4  5  2  0  0  0  0
  5  6  1  0  0  0  0
  6  9  1  0  0  0  0
  7  6  2  0  0  0  0
  8  7  1  0  0  0  0
  9 10  1  0  0  0  0
 10 16  2  0  0  0  0
 10 11  1  0  0  0  0
 11 12  2  0  0  0  0
 12 13  1  0  0  0  0
 13 14  1  0  0  0  0
 15 13  2  0  0  0  0
 16 15  1  0  0  0  0
 17 16  1  0  0  0  0
 18 19  2  0  0  0  0
 19 22  1  0  0  0  0
 20 19  1  0  0  0  0
 20 21  1  0  0  0  0
 23 22  1  0  0  0  0
 24 23  1  0  0  0  0
 24 25  1  0  0  0  0
 26 25  1  0  0  0  0
 27 26  1  0  0  0  0
 28 27  1  0  0  0  0
 28 24  1  0  0  0  0
 29 30  1  0  0  0  0
 29  1  1  0  0  0  0
 31 29  2  0  0  0  0
M  END
>  <minimizedAffinity>
-6.92974472

$$$$

 OpenBabel09122218323D

 31 33  0  0  0  0  0  0  0  0999 V2000
    8.9930   -2.7120    1.7520 C   0  0  0  0  0  0  0  0  0  0  0  0
    8.5470   -1.4720    2.0420 C   0  0  0  0  0  2  0  0  0  0  0  0
    9.2230   -0.2180    1.7020 C   0  0  0  0  0  0  0  0  0  0  0  0
    9.6240    0.0220    0.3850 C   0  0  0  0  0  3  0  0  0  0  0  0
   10.2700    1.2160    0.0550 C   0  0  0  0  0  3  0  0  0  0  0  0
   10.5030    2.1780    1.0400 C   0  0  0  0  0  0  0  0  0  0  0  0
   10.1300    1.9330    2.3640 C   0  0  0  0  0  3  0  0  0  0  0  0
    9.4870    0.7380    2.6910 C   0  0  0  0  0  3  0  0  0  0  0  0
   11.1700    3.3180    0.6500 O   0  0  0  0  0  0  0  0  0  0  0  0
   11.0360    4.4240    1.4600 C   0  0  0  0  0  0  0  0  0  0  0  0
   10.0430    5.3770    1.2010 C   0  0  0  0  0  3  0  0  0  0  0  0
    9.9480    6.5160    2.0020 C   0  0  0  0  0  3  0  0  0  0  0  0
   10.8520    6.6980    3.0430 C   0  0  0  0  0  0  0  0  0  0  0  0
   10.7590    7.7930    3.8100 F   0  0  0  0  0  0  0  0  0  0  0  0
   11.8560    5.7710    3.2980 C   0  0  0  0  0  3  0  0  0  0  0  0
   11.9540    4.6330    2.4970 C   0  0  0  0  0  0  0  0  0  0  0  0
   13.3400    3.3910    2.8610 Br  0  0  0  0  0  0  0  0  0  0  0  0
    9.6060   -3.8350   -0.9000 O   0  0  0  0  0  0  0  0  0  0  0  0
   10.4480   -3.5360   -0.0620 C   0  0  0  0  0  0  0  0  0  0  0  0
   10.2280   -2.9200    1.1570 N   0  0  0  0  0  4  0  0  0  0  0  0
   11.0240   -2.5590    1.6590 H   0  0  0  0  0  0  0  0  0  0  0  0
   11.9260   -3.8000   -0.3120 C   0  0  0  0  0  2  0  0  0  0  0  0
   12.4660   -3.0700   -1.5460 C   0  0  0  0  0  2  0  0  0  0  0  0
   12.2880   -1.5440   -1.5700 C   0  0  0  0  0  3  0  0  0  0  0  0
   13.5030   -0.7390   -2.0350 C   0  0  0  0  0  2  0  0  0  0  0  0
   12.8990    0.5790   -2.4950 C   0  0  0  0  0  2  0  0  0  0  0  0
   11.6490    0.1330   -3.2370 C   0  0  0  0  0  2  0  0  0  0  0  0
   11.1120   -1.0440   -2.4260 C   0  0  0  0  0  2  0  0  0  0  0  0
    8.0410   -3.8550    2.2410 C   0  0  0  0  0  0  0  0  0  0  0  0
    7.8660   -4.7830    1.3950 O   0  0  0  0  0  0  0  0  0  0  0  0
    7.7040   -3.7860    3.4610 O   0  0  0  0  0  1  0  0  0  0  0  0
  1  2  1  0  0  0  0
  1 29  1  0  0  0  0
  3  2  1  0  0  0  0
  3  8  1  0  0  0  0
  4  3  2  0  0  0  0
  5  4  1  0  0  0  0
  5  6  2  0  0  0  0
  6  7  1  0  0  0  0
  7  8  2  0  0  0  0
  9  6  1  0  0  0  0
  9 10  1  0  0  0  0
 10 16  1  0  0  0  0
 11 10  2  0  0  0  0
 11 12  1  0  0  0  0
 12 13  2  0  0  0  0
 13 15  1  0  0  0  0
 13 14  1  0  0  0  0
 16 17  1  0  0  0  0
 16 15  2  0  0  0  0
 18 19  2  0  0  0  0
 19 20  1  0  0  0  0
 20 21  1  0  0  0  0
 20  1  2  0  0  0  0
 22 19  1  0  0  0  0
 23 22  1  0  0  0  0
 24 23  1  0  0  0  0
 25 24  1  0  0  0  0
 26 25  1  0  0  0  0
 27 26  1  0  0  0  0
 27 28  1  0  0  0  0
 28 24  1  0  0  0  0
 29 31  1  0  0  0  0
 30 29  2  0  0  0  0
M  END
>  <minimizedAffinity>
-6.75625134

$$$$

 OpenBabel09122218323D

 31 33  0  0  0  0  0  0  0  0999 V2000
   12.9820   -2.0390   -1.9130 C   0  0  0  0  0  0  0  0  0  0  0  0
   12.7720   -0.8200   -2.4480 C   0  0  0  0  0  2  0  0  0  0  0  0
   12.0590    0.2870   -1.8050 C   0  0  0  0  0  0  0  0  0  0  0  0
   10.7100    0.1440   -1.4680 C   0  0  0  0  0  3  0  0  0  0  0  0
   10.0250    1.1950   -0.8560 C   0  0  0  0  0  3  0  0  0  0  0  0
   10.6920    2.3870   -0.5660 C   0  0  0  0  0  0  0  0  0  0  0  0
   12.0330    2.5470   -0.9240 C   0  0  0  0  0  3  0  0  0  0  0  0
   12.7140    1.4950   -1.5380 C   0  0  0  0  0  3  0  0  0  0  0  0
    9.9480    3.3920    0.0120 O   0  0  0  0  0  0  0  0  0  0  0  0
   10.3350    3.8080    1.2670 C   0  0  0  0  0  0  0  0  0  0  0  0
   10.4440    2.8890    2.3180 C   0  0  0  0  0  3  0  0  0  0  0  0
   10.7920    3.3320    3.5940 C   0  0  0  0  0  3  0  0  0  0  0  0
   11.0140    4.6870    3.8120 C   0  0  0  0  0  0  0  0  0  0  0  0
   11.3480    5.1100    5.0390 F   0  0  0  0  0  0  0  0  0  0  0  0
   10.8880    5.6140    2.7840 C   0  0  0  0  0  3  0  0  0  0  0  0
   10.5380    5.1730    1.5070 C   0  0  0  0  0  0  0  0  0  0  0  0
   10.3630    6.4610    0.1260 Br  0  0  0  0  0  0  0  0  0  0  0  0
   10.7020   -3.8120   -1.3380 O   0  0  0  0  0  0  0  0  0  0  0  0
   11.3120   -3.1700   -0.4910 C   0  0  0  0  0  0  0  0  0  0  0  0
   12.4430   -2.3990   -0.6870 N   0  0  0  0  0  4  0  0  0  0  0  0
   12.9520   -2.0840    0.1260 H   0  0  0  0  0  0  0  0  0  0  0  0
   10.8740   -3.1860    0.9660 C   0  0  0  0  0  2  0  0  0  0  0  0
    9.3600   -3.0300    1.1390 C   0  0  0  0  0  2  0  0  0  0  0  0
    8.8890   -2.2680    2.3870 C   0  0  0  0  0  3  0  0  0  0  0  0
    9.3670   -2.8260    3.7290 C   0  0  0  0  0  2  0  0  0  0  0  0
    9.2610   -1.6330    4.6660 C   0  0  0  0  0  2  0  0  0  0  0  0
    9.7860   -0.4900    3.8130 C   0  0  0  0  0  2  0  0  0  0  0  0
    9.2580   -0.7740    2.4090 C   0  0  0  0  0  2  0  0  0  0  0  0
   13.7860   -3.0080   -2.8440 C   0  0  0  0  0  0  0  0  0  0  0  0
   13.7450   -2.7020   -4.0730 O   0  0  0  0  0  0  0  0  0  0  0  0
   14.4960   -3.8660   -2.2380 O   0  0  0  0  0  1  0  0  0  0  0  0
  1 20  2  0  0  0  0
  2  1  1  0  0  0  0
  2  3  1  0  0  0  0
  3  8  2  0  0  0  0
  3  4  1  0  0  0  0
  4  5  2  0  0  0  0
  5  6  1  0  0  0  0
  6  9  1  0  0  0  0
  7  6  2  0  0  0  0
  8  7  1  0  0  0  0
  9 10  1  0  0  0  0
 10 16  2  0  0  0  0
 10 11  1  0  0  0  0
 11 12  2  0  0  0  0
 12 13  1  0  0  0  0
 13 14  1  0  0  0  0
 15 13  2  0  0  0  0
 16 15  1  0  0  0  0
 17 16  1  0  0  0  0
 18 19  2  0  0  0  0
 19 22  1  0  0  0  0
 20 19  1  0  0  0  0
 20 21  1  0  0  0  0
 22 23  1  0  0  0  0
 23 24  1  0  0  0  0
 24 28  1  0  0  0  0
 24 25  1  0  0  0  0
 25 26  1  0  0  0  0
 27 26  1  0  0  0  0
 28 27  1  0  0  0  0
 29 31  1  0  0  0  0
 29  1  1  0  0  0  0
 30 29  2  0  0  0  0
M  END
>  <minimizedAffinity>
-6.72383261

$$$$

 OpenBabel09122218323D

 31 33  0  0  0  0  0  0  0  0999 V2000
    9.0380   -2.6780    1.8380 C   0  0  0  0  0  0  0  0  0  0  0  0
    8.5610   -1.4690    2.1970 C   0  0  0  0  0  2  0  0  0  0  0  0
    9.2710   -0.1950    2.0650 C   0  0  0  0  0  0  0  0  0  0  0  0
    9.6450    0.5160    3.2080 C   0  0  0  0  0  3  0  0  0  0  0  0
   10.3220    1.7320    3.0880 C   0  0  0  0  0  3  0  0  0  0  0  0
   10.6380    2.2320    1.8240 C   0  0  0  0  0  0  0  0  0  0  0  0
   10.2440    1.5400    0.6750 C   0  0  0  0  0  3  0  0  0  0  0  0
    9.5660    0.3270    0.7990 C   0  0  0  0  0  3  0  0  0  0  0  0
   11.2800    3.4500    1.7790 O   0  0  0  0  0  0  0  0  0  0  0  0
   10.5590    4.5150    1.2870 C   0  0  0  0  0  0  0  0  0  0  0  0
    9.9210    4.4260    0.0430 C   0  0  0  0  0  3  0  0  0  0  0  0
    9.2320    5.5290   -0.4630 C   0  0  0  0  0  3  0  0  0  0  0  0
    9.1990    6.7110    0.2680 C   0  0  0  0  0  0  0  0  0  0  0  0
    8.5370    7.7680   -0.2220 F   0  0  0  0  0  0  0  0  0  0  0  0
    9.8460    6.8200    1.4940 C   0  0  0  0  0  3  0  0  0  0  0  0
   10.5370    5.7200    2.0010 C   0  0  0  0  0  0  0  0  0  0  0  0
   11.4200    5.9010    3.6700 Br  0  0  0  0  0  0  0  0  0  0  0  0
    9.9930   -2.9100   -0.9380 O   0  0  0  0  0  0  0  0  0  0  0  0
   10.7040   -3.0300    0.0520 C   0  0  0  0  0  0  0  0  0  0  0  0
   10.3330   -2.8400    1.3710 N   0  0  0  0  0  4  0  0  0  0  0  0
   11.0610   -2.7840    2.0680 H   0  0  0  0  0  0  0  0  0  0  0  0
   12.1750   -3.3950   -0.0820 C   0  0  0  0  0  2  0  0  0  0  0  0
   12.5880   -3.7000   -1.5260 C   0  0  0  0  0  2  0  0  0  0  0  0
   13.6770   -2.8010   -2.1300 C   0  0  0  0  0  3  0  0  0  0  0  0
   13.4050   -1.2960   -2.0780 C   0  0  0  0  0  2  0  0  0  0  0  0
   14.7920   -0.6820   -2.1860 C   0  0  0  0  0  2  0  0  0  0  0  0
   15.6270   -1.5810   -1.2880 C   0  0  0  0  0  2  0  0  0  0  0  0
   15.0780   -2.9860   -1.5210 C   0  0  0  0  0  2  0  0  0  0  0  0
    8.0360   -3.8540    2.0960 C   0  0  0  0  0  0  0  0  0  0  0  0
    7.3920   -3.7590    3.1830 O   0  0  0  0  0  1  0  0  0  0  0  0
    7.8850   -4.6520    1.1220 O   0  0  0  0  0  0  0  0  0  0  0  0
  1 29  1  0  0  0  0
  1  2  1  0  0  0  0
  3  2  1  0  0  0  0
  3  4  1  0  0  0  0
  5  4  2  0  0  0  0
  6  5  1  0  0  0  0
  7  8  1  0  0  0  0
  7  6  2  0  0  0  0
  8  3  2  0  0  0  0
  9  6  1  0  0  0  0
 10  9  1  0  0  0  0
 10 16  1  0  0  0  0
 11 10  2  0  0  0  0
 12 11  1  0  0  0  0
 12 13  2  0  0  0  0
 13 15  1  0  0  0  0
 14 13  1  0  0  0  0
 15 16  2  0  0  0  0
 16 17  1  0  0  0  0
 18 19  2  0  0  0  0
 19 20  1  0  0  0  0
 20  1  2  0  0  0  0
 20 21  1  0  0  0  0
 22 19  1  0  0  0  0
 23 22  1  0  0  0  0
 24 25  1  0  0  0  0
 24 23  1  0  0  0  0
 24 28  1  0  0  0  0
 26 25  1  0  0  0  0
 26 27  1  0  0  0  0
 28 27  1  0  0  0  0
 29 30  1  0  0  0  0
 31 29  2  0  0  0  0
M  END
>  <minimizedAffinity>
-6.66946363

$$$$

 OpenBabel09122218323D

 31 33  0  0  0  0  0  0  0  0999 V2000
   10.6970    2.9490    2.6020 C   0  0  0  0  0  0  0  0  0  0  0  0
    9.9500    2.1420    3.3820 C   0  0  0  0  0  2  0  0  0  0  0  0
    9.6800    0.7230    3.1350 C   0  0  0  0  0  0  0  0  0  0  0  0
    9.9960   -0.2260    4.1110 C   0  0  0  0  0  3  0  0  0  0  0  0
    9.7420   -1.5800    3.8810 C   0  0  0  0  0  3  0  0  0  0  0  0
    9.1580   -1.9850    2.6800 C   0  0  0  0  0  0  0  0  0  0  0  0
    8.8630   -1.0450    1.6890 C   0  0  0  0  0  3  0  0  0  0  0  0
    9.1210    0.3060    1.9210 C   0  0  0  0  0  3  0  0  0  0  0  0
    8.9620   -3.3380    2.5080 O   0  0  0  0  0  0  0  0  0  0  0  0
    7.6700   -3.7990    2.6300 C   0  0  0  0  0  0  0  0  0  0  0  0
    6.8880   -3.4370    3.7340 C   0  0  0  0  0  3  0  0  0  0  0  0
    5.5970   -3.9480    3.8670 C   0  0  0  0  0  3  0  0  0  0  0  0
    5.1050   -4.8260    2.9080 C   0  0  0  0  0  0  0  0  0  0  0  0
    3.8650   -5.3160    3.0390 F   0  0  0  0  0  0  0  0  0  0  0  0
    5.8780   -5.2120    1.8190 C   0  0  0  0  0  3  0  0  0  0  0  0
    7.1700   -4.7030    1.6840 C   0  0  0  0  0  0  0  0  0  0  0  0
    8.2060   -5.2550    0.1950 Br  0  0  0  0  0  0  0  0  0  0  0  0
    9.9790    3.7470   -0.1410 O   0  0  0  0  0  0  0  0  0  0  0  0
   10.7820    2.8650    0.1380 C   0  0  0  0  0  0  0  0  0  0  0  0
   11.2270    2.5110    1.3980 N   0  0  0  0  0  4  0  0  0  0  0  0
   12.0290    1.9020    1.4670 H   0  0  0  0  0  0  0  0  0  0  0  0
   11.4390    2.0350   -0.9560 C   0  0  0  0  0  2  0  0  0  0  0  0
   10.5200    0.9440   -1.5150 C   0  0  0  0  0  2  0  0  0  0  0  0
   11.2090   -0.2520   -2.1880 C   0  0  0  0  0  3  0  0  0  0  0  0
   12.7130   -0.1060   -2.4290 C   0  0  0  0  0  2  0  0  0  0  0  0
   13.1940   -1.5450   -2.5430 C   0  0  0  0  0  2  0  0  0  0  0  0
   12.4200   -2.2450   -1.4380 C   0  0  0  0  0  2  0  0  0  0  0  0
   11.0390   -1.5940   -1.4540 C   0  0  0  0  0  2  0  0  0  0  0  0
   10.8070    4.4170    3.1350 C   0  0  0  0  0  0  0  0  0  0  0  0
   10.0910    4.6560    4.1530 O   0  0  0  0  0  1  0  0  0  0  0  0
   11.7080    5.1200    2.5860 O   0  0  0  0  0  0  0  0  0  0  0  0
  1 29  1  0  0  0  0
  1  2  1  0  0  0  0
  3  2  1  0  0  0  0
  3  4  1  0  0  0  0
  5  4  2  0  0  0  0
  6  5  1  0  0  0  0
  7  8  1  0  0  0  0
  7  6  2  0  0  0  0
  8  3  2  0  0  0  0
  9 10  1  0  0  0  0
  9  6  1  0  0  0  0
 10 11  1  0  0  0  0
 11 12  2  0  0  0  0
 13 14  1  0  0  0  0
 13 12  1  0  0  0  0
 15 13  2  0  0  0  0
 16 15  1  0  0  0  0
 16 10  2  0  0  0  0
 17 16  1  0  0  0  0
 18 19  2  0  0  0  0
 19 20  1  0  0  0  0
 20 21  1  0  0  0  0
 20  1  2  0  0  0  0
 22 19  1  0  0  0  0
 23 22  1  0  0  0  0
 24 23  1  0  0  0  0
 24 28  1  0  0  0  0
 25 24  1  0  0  0  0
 26 25  1  0  0  0  0
 26 27  1  0  0  0  0
 28 27  1  0  0  0  0
 29 30  1  0  0  0  0
 31 29  2  0  0  0  0
M  END
>  <minimizedAffinity>
-6.49239492

$$$$
