
 OpenBabel09122222393D

 31 33  0  0  0  0  0  0  0  0999 V2000
    9.2920   -2.4960    1.5270 C   0  0  0  0  0  0  0  0  0  0  0  0
    8.7560   -1.2750    1.7320 C   0  0  0  0  0  2  0  0  0  0  0  0
    9.3290   -0.0030    1.2860 C   0  0  0  0  0  0  0  0  0  0  0  0
    9.8980    0.0970    0.0130 C   0  0  0  0  0  3  0  0  0  0  0  0
   10.4470    1.3070   -0.4160 C   0  0  0  0  0  3  0  0  0  0  0  0
   10.4140    2.4240    0.4200 C   0  0  0  0  0  0  0  0  0  0  0  0
    9.8700    2.3250    1.7040 C   0  0  0  0  0  3  0  0  0  0  0  0
    9.3250    1.1140    2.1310 C   0  0  0  0  0  3  0  0  0  0  0  0
   10.9980    3.5760   -0.0560 O   0  0  0  0  0  0  0  0  0  0  0  0
   11.4040    4.5010    0.8800 C   0  0  0  0  0  0  0  0  0  0  0  0
   12.4090    4.1820    1.8030 C   0  0  0  0  0  3  0  0  0  0  0  0
   12.7790    5.1120    2.7750 C   0  0  0  0  0  3  0  0  0  0  0  0
   12.1330    6.3430    2.8260 C   0  0  0  0  0  0  0  0  0  0  0  0
   12.4900    7.2340    3.7610 F   0  0  0  0  0  0  0  0  0  0  0  0
   11.1190    6.6640    1.9310 C   0  0  0  0  0  3  0  0  0  0  0  0
   10.7470    5.7350    0.9590 C   0  0  0  0  0  0  0  0  0  0  0  0
    9.3530    6.1960   -0.2410 Br  0  0  0  0  0  0  0  0  0  0  0  0
    9.9520   -3.7400   -1.0590 O   0  0  0  0  0  0  0  0  0  0  0  0
   10.7800   -3.3300   -0.2550 C   0  0  0  0  0  0  0  0  0  0  0  0
   10.5310   -2.6550    0.9260 N   0  0  0  0  0  4  0  0  0  0  0  0
   11.3060   -2.2070    1.3920 H   0  0  0  0  0  0  0  0  0  0  0  0
   12.2700   -3.5050   -0.5120 C   0  0  0  0  0  2  0  0  0  0  0  0
   12.6190   -3.5660   -2.0020 C   0  0  0  0  0  2  0  0  0  0  0  0
   13.0580   -2.2470   -2.6560 C   0  0  0  0  0  3  0  0  0  0  0  0
   12.0380   -1.1080   -2.6110 C   0  0  0  0  0  2  0  0  0  0  0  0
   12.8930    0.1390   -2.7770 C   0  0  0  0  0  2  0  0  0  0  0  0
   14.0970   -0.1620   -1.9000 C   0  0  0  0  0  2  0  0  0  0  0  0
   14.3630   -1.6530   -2.0970 C   0  0  0  0  0  2  0  0  0  0  0  0
    8.4370   -3.6680    2.1180 C   0  0  0  0  0  0  0  0  0  0  0  0
    8.0510   -4.5150    1.2580 O   0  0  0  0  0  0  0  0  0  0  0  0
    8.3810   -3.7030    3.3840 O   0  0  0  0  0  1  0  0  0  0  0  0
  1  2  1  0  0  0  0
  1 29  1  0  0  0  0
  3  2  1  0  0  0  0
  3  8  1  0  0  0  0
  4  3  2  0  0  0  0
  5  4  1  0  0  0  0
  5  6  2  0  0  0  0
  6  7  1  0  0  0  0
  7  8  2  0  0  0  0
  9  6  1  0  0  0  0
  9 10  1  0  0  0  0
 10 16  2  0  0  0  0
 10 11  1  0  0  0  0
 11 12  2  0  0  0  0
 12 13  1  0  0  0  0
 13 14  1  0  0  0  0
 15 13  2  0  0  0  0
 16 15  1  0  0  0  0
 17 16  1  0  0  0  0
 18 19  2  0  0  0  0
 19 20  1  0  0  0  0
 20 21  1  0  0  0  0
 20  1  2  0  0  0  0
 22 19  1  0  0  0  0
 23 22  1  0  0  0  0
 24 25  1  0  0  0  0
 24 28  1  0  0  0  0
 24 23  1  0  0  0  0
 26 25  1  0  0  0  0
 26 27  1  0  0  0  0
 28 27  1  0  0  0  0
 29 31  1  0  0  0  0
 30 29  2  0  0  0  0
M  END
>  <minimizedAffinity>
-7.24331903

$$$$
