
 OpenBabel09122222393D

 31 33  0  0  0  0  0  0  0  0999 V2000
   10.2010    2.5030    0.1850 C   0  0  0  0  0  0  0  0  0  0  0  0
    9.6320    1.9150    1.2560 C   0  0  0  0  0  2  0  0  0  0  0  0
    9.4820    0.4720    1.4610 C   0  0  0  0  0  0  0  0  0  0  0  0
    9.3010   -0.0330    2.7520 C   0  0  0  0  0  3  0  0  0  0  0  0
    9.1590   -1.4080    2.9530 C   0  0  0  0  0  3  0  0  0  0  0  0
    9.1830   -2.2790    1.8620 C   0  0  0  0  0  0  0  0  0  0  0  0
    9.3900   -1.7840    0.5720 C   0  0  0  0  0  3  0  0  0  0  0  0
    9.5350   -0.4100    0.3740 C   0  0  0  0  0  3  0  0  0  0  0  0
    9.0660   -3.6230    2.1370 O   0  0  0  0  0  0  0  0  0  0  0  0
    8.2180   -4.3500    1.3310 C   0  0  0  0  0  0  0  0  0  0  0  0
    8.6150   -4.7290    0.0420 C   0  0  0  0  0  3  0  0  0  0  0  0
    7.7290   -5.4260   -0.7800 C   0  0  0  0  0  3  0  0  0  0  0  0
    6.4540   -5.7260   -0.3150 C   0  0  0  0  0  0  0  0  0  0  0  0
    5.6050   -6.3950   -1.1070 F   0  0  0  0  0  0  0  0  0  0  0  0
    6.0390   -5.3380    0.9540 C   0  0  0  0  0  3  0  0  0  0  0  0
    6.9220   -4.6390    1.7770 C   0  0  0  0  0  0  0  0  0  0  0  0
    6.3250   -4.1130    3.4990 Br  0  0  0  0  0  0  0  0  0  0  0  0
   12.9340    2.1850   -0.8670 O   0  0  0  0  0  0  0  0  0  0  0  0
   11.9280    1.7300   -1.3990 C   0  0  0  0  0  0  0  0  0  0  0  0
   10.6370    1.7660   -0.9060 N   0  0  0  0  0  4  0  0  0  0  0  0
    9.9400    1.1870   -1.3500 H   0  0  0  0  0  0  0  0  0  0  0  0
   12.0130    1.0000   -2.7310 C   0  0  0  0  0  2  0  0  0  0  0  0
   11.4140   -0.4090   -2.6830 C   0  0  0  0  0  2  0  0  0  0  0  0
   12.4130   -1.5750   -2.6270 C   0  0  0  0  0  3  0  0  0  0  0  0
   13.8270   -1.2190   -2.1650 C   0  0  0  0  0  2  0  0  0  0  0  0
   14.3820   -2.5470   -1.6710 C   0  0  0  0  0  2  0  0  0  0  0  0
   13.2030   -3.1440   -0.9200 C   0  0  0  0  0  2  0  0  0  0  0  0
   11.9770   -2.7580   -1.7450 C   0  0  0  0  0  2  0  0  0  0  0  0
   10.2200    4.0680    0.2600 C   0  0  0  0  0  0  0  0  0  0  0  0
    9.1130    4.6160   -0.0240 O   0  0  0  0  0  0  0  0  0  0  0  0
   11.2800    4.5670    0.7450 O   0  0  0  0  0  1  0  0  0  0  0  0
  1 29  1  0  0  0  0
  1  2  1  0  0  0  0
  2  3  1  0  0  0  0
  3  4  1  0  0  0  0
  4  5  2  0  0  0  0
  6  9  1  0  0  0  0
  6  5  1  0  0  0  0
  7  6  2  0  0  0  0
  8  7  1  0  0  0  0
  8  3  2  0  0  0  0
 10 16  1  0  0  0  0
 10  9  1  0  0  0  0
 11 10  2  0  0  0  0
 12 13  2  0  0  0  0
 12 11  1  0  0  0  0
 13 15  1  0  0  0  0
 14 13  1  0  0  0  0
 15 16  2  0  0  0  0
 16 17  1  0  0  0  0
 19 20  1  0  0  0  0
 19 18  2  0  0  0  0
 20  1  2  0  0  0  0
 21 20  1  0  0  0  0
 22 23  1  0  0  0  0
 22 19  1  0  0  0  0
 23 24  1  0  0  0  0
 24 25  1  0  0  0  0
 24 28  1  0  0  0  0
 25 26  1  0  0  0  0
 26 27  1  0  0  0  0
 28 27  1  0  0  0  0
 29 31  1  0  0  0  0
 30 29  2  0  0  0  0
M  END
>  <minimizedAffinity>
-7.52150869

$$$$
