
 OpenBabel09122222393D

 31 33  0  0  0  0  0  0  0  0999 V2000
   10.6970    2.9490    2.6020 C   0  0  0  0  0  0  0  0  0  0  0  0
    9.9500    2.1420    3.3820 C   0  0  0  0  0  2  0  0  0  0  0  0
    9.6800    0.7230    3.1350 C   0  0  0  0  0  0  0  0  0  0  0  0
    9.9960   -0.2260    4.1110 C   0  0  0  0  0  3  0  0  0  0  0  0
    9.7420   -1.5800    3.8810 C   0  0  0  0  0  3  0  0  0  0  0  0
    9.1580   -1.9850    2.6800 C   0  0  0  0  0  0  0  0  0  0  0  0
    8.8630   -1.0450    1.6890 C   0  0  0  0  0  3  0  0  0  0  0  0
    9.1210    0.3060    1.9210 C   0  0  0  0  0  3  0  0  0  0  0  0
    8.9620   -3.3380    2.5080 O   0  0  0  0  0  0  0  0  0  0  0  0
    7.6700   -3.7990    2.6300 C   0  0  0  0  0  0  0  0  0  0  0  0
    6.8880   -3.4370    3.7340 C   0  0  0  0  0  3  0  0  0  0  0  0
    5.5970   -3.9480    3.8670 C   0  0  0  0  0  3  0  0  0  0  0  0
    5.1050   -4.8260    2.9080 C   0  0  0  0  0  0  0  0  0  0  0  0
    3.8650   -5.3160    3.0390 F   0  0  0  0  0  0  0  0  0  0  0  0
    5.8780   -5.2120    1.8190 C   0  0  0  0  0  3  0  0  0  0  0  0
    7.1700   -4.7030    1.6840 C   0  0  0  0  0  0  0  0  0  0  0  0
    8.2060   -5.2550    0.1950 Br  0  0  0  0  0  0  0  0  0  0  0  0
    9.9790    3.7470   -0.1410 O   0  0  0  0  0  0  0  0  0  0  0  0
   10.7820    2.8650    0.1380 C   0  0  0  0  0  0  0  0  0  0  0  0
   11.2270    2.5110    1.3980 N   0  0  0  0  0  4  0  0  0  0  0  0
   12.0290    1.9020    1.4670 H   0  0  0  0  0  0  0  0  0  0  0  0
   11.4390    2.0350   -0.9560 C   0  0  0  0  0  2  0  0  0  0  0  0
   10.5200    0.9440   -1.5150 C   0  0  0  0  0  2  0  0  0  0  0  0
   11.2090   -0.2520   -2.1880 C   0  0  0  0  0  3  0  0  0  0  0  0
   12.7130   -0.1060   -2.4290 C   0  0  0  0  0  2  0  0  0  0  0  0
   13.1940   -1.5450   -2.5430 C   0  0  0  0  0  2  0  0  0  0  0  0
   12.4200   -2.2450   -1.4380 C   0  0  0  0  0  2  0  0  0  0  0  0
   11.0390   -1.5940   -1.4540 C   0  0  0  0  0  2  0  0  0  0  0  0
   10.8070    4.4170    3.1350 C   0  0  0  0  0  0  0  0  0  0  0  0
   10.0910    4.6560    4.1530 O   0  0  0  0  0  1  0  0  0  0  0  0
   11.7080    5.1200    2.5860 O   0  0  0  0  0  0  0  0  0  0  0  0
  1 29  1  0  0  0  0
  1  2  1  0  0  0  0
  3  2  1  0  0  0  0
  3  4  1  0  0  0  0
  5  4  2  0  0  0  0
  6  5  1  0  0  0  0
  7  8  1  0  0  0  0
  7  6  2  0  0  0  0
  8  3  2  0  0  0  0
  9 10  1  0  0  0  0
  9  6  1  0  0  0  0
 10 11  1  0  0  0  0
 11 12  2  0  0  0  0
 13 14  1  0  0  0  0
 13 12  1  0  0  0  0
 15 13  2  0  0  0  0
 16 15  1  0  0  0  0
 16 10  2  0  0  0  0
 17 16  1  0  0  0  0
 18 19  2  0  0  0  0
 19 20  1  0  0  0  0
 20 21  1  0  0  0  0
 20  1  2  0  0  0  0
 22 19  1  0  0  0  0
 23 22  1  0  0  0  0
 24 23  1  0  0  0  0
 24 28  1  0  0  0  0
 25 24  1  0  0  0  0
 26 25  1  0  0  0  0
 26 27  1  0  0  0  0
 28 27  1  0  0  0  0
 29 30  1  0  0  0  0
 31 29  2  0  0  0  0
M  END
>  <minimizedAffinity>
-6.49239492

$$$$
