REMARK  Name = 
REMARK  6 active torsions:
REMARK  status: ('A' for Active; 'I' for Inactive)
REMARK    1  A    between atoms: C_2  and  CA_4
REMARK    2  A    between atoms: CA_4  and  N_21
REMARK    3  A    between atoms: C_5  and  C_6
REMARK    4  A    between atoms: C_9  and  C_10
REMARK    5  A    between atoms: C_13  and  C_14
REMARK    6  A    between atoms: C_22  and  C_24
REMARK                            x       y       z     vdW  Elec       q    Type
REMARK                         _______ _______ _______ _____ _____    ______ ____
ROOT
ATOM      1  CA  UNL     1       3.316  -0.145  -1.478  0.00  0.00    +0.060 C 
ATOM      2  C   UNL     1       2.797  -0.840  -2.511  0.00  0.00    +0.071 C 
ENDROOT
BRANCH   2   3
ATOM      3  C   UNL     1       3.431  -1.920  -3.184  0.00  0.00    +0.130 A 
ATOM      4  C   UNL     1       4.211  -2.964  -2.698  0.00  0.00    +0.050 A 
ATOM      5  C   UNL     1       4.578  -3.785  -3.791  0.00  0.00    +0.050 A 
ATOM      6  C   UNL     1       3.997  -3.227  -4.908  0.00  0.00    +0.136 A 
ATOM      7  O   UNL     1       3.292  -2.120  -4.540  0.00  0.00    -0.455 OA
BRANCH   6   8
ATOM      8  C   UNL     1       3.976  -3.562  -6.331  0.00  0.00    +0.017 A 
ATOM      9  C   UNL     1       3.341  -2.730  -7.264  0.00  0.00    +0.012 A 
ATOM     10  C   UNL     1       3.327  -3.048  -8.626  0.00  0.00    +0.013 A 
ATOM     11  C   UNL     1       3.944  -4.217  -9.090  0.00  0.00    +0.055 A 
ATOM     12  C   UNL     1       4.588  -5.049  -8.164  0.00  0.00    +0.013 A 
ATOM     13  C   UNL     1       4.600  -4.726  -6.802  0.00  0.00    +0.012 A 
BRANCH  11  14
ATOM     14  C   UNL     1       3.955  -4.555 -10.559  0.00  0.00    +0.417 C 
ATOM     15  F   UNL     1       2.921  -4.000 -11.252  0.00  0.00    -0.166 F 
ATOM     16  F   UNL     1       5.090  -4.133 -11.183  0.00  0.00    -0.166 F 
ATOM     17  F   UNL     1       3.879  -5.896 -10.797  0.00  0.00    -0.166 F 
ENDBRANCH  11  14
ENDBRANCH   6   8
ENDBRANCH   2   3
BRANCH   1  18
ATOM     18  N   UNL     1       4.617  -0.323  -1.024  0.00  0.00    -0.280 N 
ATOM     19  C   UNL     1       5.281   0.206   0.060  0.00  0.00    +0.248 C 
ATOM     20  O   UNL     1       6.511   0.118   0.116  0.00  0.00    -0.270 OA
ATOM     21  H   UNL     1       5.242  -0.825  -1.638  0.00  0.00    +0.155 HD
BRANCH  19  22
ATOM     22  C   UNL     1       4.571   0.778   1.225  0.00  0.00    +0.037 A 
ATOM     23  C   UNL     1       5.076   1.947   1.807  0.00  0.00    +0.013 A 
ATOM     24  C   UNL     1       4.478   2.473   2.953  0.00  0.00    +0.001 A 
ATOM     25  C   UNL     1       3.385   1.824   3.529  0.00  0.00    +0.000 A 
ATOM     26  C   UNL     1       2.895   0.645   2.965  0.00  0.00    +0.001 A 
ATOM     27  C   UNL     1       3.495   0.112   1.822  0.00  0.00    +0.013 A 
ENDBRANCH  19  22
ENDBRANCH   1  18
BRANCH   1  29
ATOM     28  O   UNL     1       1.218   0.539  -0.563  0.00  0.00    -0.543 OA
ATOM     29  C   UNL     1       2.340   0.963  -0.969  0.00  0.00    +0.086 C 
ATOM     30  OXT UNL     1       2.782   2.143  -1.058  0.00  0.00    -0.543 OA
ENDBRANCH   1  29
TORSDOF 6
