
 OpenBabel09122223413D

 30 32  0  0  0  0  0  0  0  0999 V2000
    9.5420   -0.8090    3.1450 C   0  0  0  0  0  0  0  0  0  0  0  0
    9.0130   -1.0870    1.9360 C   0  0  0  0  0  2  0  0  0  0  0  0
    8.8830   -2.3840    1.3670 C   0  0  0  0  0  0  0  0  0  0  0  0
    9.5790   -2.9980    0.3320 C   0  0  0  0  0  3  0  0  0  0  0  0
    9.0700   -4.3090    0.1760 C   0  0  0  0  0  3  0  0  0  0  0  0
    8.0910   -4.4610    1.1320 C   0  0  0  0  0  0  0  0  0  0  0  0
    7.9940   -3.3130    1.8600 O   0  0  0  0  0  0  0  0  0  0  0  0
    7.1860   -5.5450    1.5120 C   0  0  0  0  0  0  0  0  0  0  0  0
    5.9310   -5.2790    2.0780 C   0  0  0  0  0  3  0  0  0  0  0  0
    5.0630   -6.3160    2.4350 C   0  0  0  0  0  3  0  0  0  0  0  0
    5.4340   -7.6530    2.2420 C   0  0  0  0  0  0  0  0  0  0  0  0
    6.6840   -7.9260    1.6690 C   0  0  0  0  0  3  0  0  0  0  0  0
    7.5480   -6.8850    1.3120 C   0  0  0  0  0  3  0  0  0  0  0  0
    4.4950   -8.7760    2.6010 C   0  0  0  0  0  0  0  0  0  0  0  0
    4.9900   -9.6130    3.5560 F   0  0  0  0  0  0  0  0  0  0  0  0
    3.3030   -8.3250    3.0830 F   0  0  0  0  0  0  0  0  0  0  0  0
    4.1870   -9.5720    1.5380 F   0  0  0  0  0  0  0  0  0  0  0  0
   10.1550   -1.7680    3.9420 N   0  0  0  0  0  4  0  0  0  0  0  0
    9.7830   -2.3210    5.1470 C   0  0  0  0  0  0  0  0  0  0  0  0
   10.6140   -2.9580    5.8000 O   0  0  0  0  0  0  0  0  0  0  0  0
   11.0920   -2.0370    3.6790 H   0  0  0  0  0  0  0  0  0  0  0  0
    8.3890   -2.2830    5.6420 C   0  0  0  0  0  0  0  0  0  0  0  0
    8.0830   -1.4300    6.7100 C   0  0  0  0  0  3  0  0  0  0  0  0
    6.7980   -1.4240    7.2540 C   0  0  0  0  0  3  0  0  0  0  0  0
    5.8210   -2.2790    6.7430 C   0  0  0  0  0  3  0  0  0  0  0  0
    6.1300   -3.1470    5.6950 C   0  0  0  0  0  3  0  0  0  0  0  0
    7.4170   -3.1620    5.1520 C   0  0  0  0  0  3  0  0  0  0  0  0
    9.1360    1.4550    2.4990 O   0  0  0  0  0  0  0  0  0  0  0  0
    9.5100    0.7200    3.4600 C   0  0  0  0  0  0  0  0  0  0  0  0
    9.8930    1.0320    4.6230 O   0  0  0  0  0  1  0  0  0  0  0  0
  1 29  1  0  0  0  0
  1 18  2  0  0  0  0
  2  1  1  0  0  0  0
  3  7  1  0  0  0  0
  3  2  1  0  0  0  0
  4  3  2  0  0  0  0
  5  4  1  0  0  0  0
  5  6  2  0  0  0  0
  6  8  1  0  0  0  0
  6  7  1  0  0  0  0
  8  9  1  0  0  0  0
  9 10  2  0  0  0  0
 11 10  1  0  0  0  0
 11 14  1  0  0  0  0
 12 11  2  0  0  0  0
 13  8  2  0  0  0  0
 13 12  1  0  0  0  0
 14 16  1  0  0  0  0
 14 15  1  0  0  0  0
 17 14  1  0  0  0  0
 18 19  1  0  0  0  0
 19 22  1  0  0  0  0
 19 20  2  0  0  0  0
 21 18  1  0  0  0  0
 22 23  1  0  0  0  0
 23 24  2  0  0  0  0
 25 24  1  0  0  0  0
 26 25  2  0  0  0  0
 27 22  2  0  0  0  0
 27 26  1  0  0  0  0
 28 29  2  0  0  0  0
 29 30  1  0  0  0  0
M  END
>  <minimizedAffinity>
-6.74887991

$$$$

 OpenBabel09122223413D

 30 32  0  0  0  0  0  0  0  0999 V2000
    3.0450   -6.5300    5.5510 C   0  0  0  0  0  0  0  0  0  0  0  0
    2.8680   -7.0660    4.3260 C   0  0  0  0  0  2  0  0  0  0  0  0
    3.8610   -7.1590    3.3120 C   0  0  0  0  0  0  0  0  0  0  0  0
    4.1040   -8.1470    2.3630 C   0  0  0  0  0  3  0  0  0  0  0  0
    5.2040   -7.7370    1.5730 C   0  0  0  0  0  3  0  0  0  0  0  0
    5.5880   -6.5040    2.0520 C   0  0  0  0  0  0  0  0  0  0  0  0
    4.7690   -6.1490    3.0810 O   0  0  0  0  0  0  0  0  0  0  0  0
    6.6340   -5.5450    1.6990 C   0  0  0  0  0  0  0  0  0  0  0  0
    6.9140   -4.4410    2.5170 C   0  0  0  0  0  3  0  0  0  0  0  0
    7.9190   -3.5280    2.1820 C   0  0  0  0  0  3  0  0  0  0  0  0
    8.6680   -3.6930    1.0100 C   0  0  0  0  0  0  0  0  0  0  0  0
    8.3990   -4.7990    0.1920 C   0  0  0  0  0  3  0  0  0  0  0  0
    7.3930   -5.7100    0.5320 C   0  0  0  0  0  3  0  0  0  0  0  0
    9.7690   -2.7270    0.6540 C   0  0  0  0  0  0  0  0  0  0  0  0
    9.3140   -1.5040    0.2610 F   0  0  0  0  0  0  0  0  0  0  0  0
   10.6140   -2.4920    1.6960 F   0  0  0  0  0  0  0  0  0  0  0  0
   10.5570   -3.1720   -0.3680 F   0  0  0  0  0  0  0  0  0  0  0  0
    4.2100   -5.8740    5.9290 N   0  0  0  0  0  4  0  0  0  0  0  0
    4.5850   -4.5540    5.8200 C   0  0  0  0  0  0  0  0  0  0  0  0
    5.7700   -4.2480    5.9780 O   0  0  0  0  0  0  0  0  0  0  0  0
    4.9780   -6.4580    6.2270 H   0  0  0  0  0  0  0  0  0  0  0  0
    3.6040   -3.4620    5.6340 C   0  0  0  0  0  0  0  0  0  0  0  0
    3.2270   -2.7060    6.7500 C   0  0  0  0  0  3  0  0  0  0  0  0
    2.2480   -1.7190    6.6290 C   0  0  0  0  0  3  0  0  0  0  0  0
    1.6320   -1.4960    5.3960 C   0  0  0  0  0  3  0  0  0  0  0  0
    1.9880   -2.2660    4.2880 C   0  0  0  0  0  3  0  0  0  0  0  0
    2.9630   -3.2590    4.4070 C   0  0  0  0  0  3  0  0  0  0  0  0
    0.8110   -7.2950    5.9110 O   0  0  0  0  0  0  0  0  0  0  0  0
    1.7480   -6.6100    6.4170 C   0  0  0  0  0  0  0  0  0  0  0  0
    1.7880   -5.9540    7.4960 O   0  0  0  0  0  1  0  0  0  0  0  0
  1 18  2  3  0  0  0
  1 29  1  0  0  0  0
  2  1  1  0  0  0  0
  3  2  1  0  0  0  0
  4  3  2  0  0  0  0
  5  6  2  0  0  0  0
  5  4  1  0  0  0  0
  6  7  1  0  0  0  0
  7  3  1  0  0  0  0
  8  6  1  0  0  0  0
  8  9  1  0  0  0  0
 10  9  2  0  0  0  0
 11 10  1  0  0  0  0
 12 13  1  0  0  0  0
 12 11  2  0  0  0  0
 13  8  2  0  0  0  0
 14 11  1  0  0  0  0
 14 16  1  0  0  0  0
 15 14  1  0  0  0  0
 17 14  1  0  0  0  0
 18 21  1  0  0  0  0
 19 18  1  0  0  0  0
 19 20  2  0  0  0  0
 22 19  1  0  0  0  0
 22 23  1  0  0  0  0
 24 23  2  0  0  0  0
 25 24  1  0  0  0  0
 26 27  1  0  0  0  0
 26 25  2  0  0  0  0
 27 22  2  0  0  0  0
 28 29  2  0  0  0  0
 29 30  1  0  0  0  0
M  END
>  <minimizedAffinity>
-6.73814917

$$$$

 OpenBabel09122223413D

 30 32  0  0  0  0  0  0  0  0999 V2000
    5.8000   -6.1080    0.2440 C   0  0  0  0  0  0  0  0  0  0  0  0
    6.8940   -5.8150   -0.4900 C   0  0  0  0  0  2  0  0  0  0  0  0
    7.9180   -4.9010   -0.1200 C   0  0  0  0  0  0  0  0  0  0  0  0
    9.0130   -4.4240   -0.8330 C   0  0  0  0  0  3  0  0  0  0  0  0
    9.7110   -3.5100   -0.0080 C   0  0  0  0  0  3  0  0  0  0  0  0
    9.0110   -3.4440    1.1770 C   0  0  0  0  0  0  0  0  0  0  0  0
    7.9240   -4.2630    1.1010 O   0  0  0  0  0  0  0  0  0  0  0  0
    9.1810   -2.7120    2.4310 C   0  0  0  0  0  0  0  0  0  0  0  0
    9.3850   -1.3250    2.4400 C   0  0  0  0  0  3  0  0  0  0  0  0
    9.5410   -0.6240    3.6400 C   0  0  0  0  0  3  0  0  0  0  0  0
    9.5040   -1.2980    4.8680 C   0  0  0  0  0  0  0  0  0  0  0  0
    9.2910   -2.6830    4.8660 C   0  0  0  0  0  3  0  0  0  0  0  0
    9.1360   -3.3800    3.6620 C   0  0  0  0  0  3  0  0  0  0  0  0
    9.6460   -0.5470    6.1670 C   0  0  0  0  0  0  0  0  0  0  0  0
   10.6090   -1.0560    6.9860 F   0  0  0  0  0  0  0  0  0  0  0  0
    9.9710    0.7620    5.9800 F   0  0  0  0  0  0  0  0  0  0  0  0
    8.5000   -0.5420    6.9060 F   0  0  0  0  0  0  0  0  0  0  0  0
    5.4730   -5.4360    1.4150 N   0  0  0  0  0  4  0  0  0  0  0  0
    4.9100   -5.8810    2.5900 C   0  0  0  0  0  0  0  0  0  0  0  0
    4.4640   -5.0580    3.3950 O   0  0  0  0  0  0  0  0  0  0  0  0
    5.5360   -4.4290    1.3880 H   0  0  0  0  0  0  0  0  0  0  0  0
    4.9200   -7.3060    2.9860 C   0  0  0  0  0  0  0  0  0  0  0  0
    3.8670   -7.7880    3.7740 C   0  0  0  0  0  3  0  0  0  0  0  0
    3.8810   -9.1070    4.2310 C   0  0  0  0  0  3  0  0  0  0  0  0
    4.9540   -9.9420    3.9140 C   0  0  0  0  0  3  0  0  0  0  0  0
    6.0160   -9.4570    3.1500 C   0  0  0  0  0  3  0  0  0  0  0  0
    6.0090   -8.1360    2.6970 C   0  0  0  0  0  3  0  0  0  0  0  0
    5.5180   -8.0930   -1.0540 O   0  0  0  0  0  0  0  0  0  0  0  0
    4.8930   -7.1690   -0.4560 C   0  0  0  0  0  0  0  0  0  0  0  0
    3.6520   -6.9510   -0.3640 O   0  0  0  0  0  1  0  0  0  0  0  0
  1 18  2  0  0  0  0
  2  3  1  0  0  0  0
  2  1  1  0  0  0  0
  3  7  1  0  0  0  0
  4  3  2  0  0  0  0
  4  5  1  0  0  0  0
  5  6  2  0  0  0  0
  6  8  1  0  0  0  0
  7  6  1  0  0  0  0
  8  9  2  0  0  0  0
  8 13  1  0  0  0  0
  9 10  1  0  0  0  0
 10 11  2  0  0  0  0
 11 14  1  0  0  0  0
 12 11  1  0  0  0  0
 13 12  2  0  0  0  0
 14 17  1  0  0  0  0
 14 15  1  0  0  0  0
 16 14  1  0  0  0  0
 18 19  1  0  0  0  0
 19 22  1  0  0  0  0
 19 20  2  0  0  0  0
 21 18  1  0  0  0  0
 22 23  1  0  0  0  0
 23 24  2  0  0  0  0
 25 24  1  0  0  0  0
 26 25  2  0  0  0  0
 27 22  2  0  0  0  0
 27 26  1  0  0  0  0
 28 29  2  0  0  0  0
 29 30  1  0  0  0  0
 29  1  1  0  0  0  0
M  END
>  <minimizedAffinity>
-6.62747002

$$$$

 OpenBabel09122223413D

 30 32  0  0  0  0  0  0  0  0999 V2000
    4.0700   -8.3520    0.7880 C   0  0  0  0  0  0  0  0  0  0  0  0
    4.2260   -7.2500    0.0260 C   0  0  0  0  0  2  0  0  0  0  0  0
    5.4150   -6.4780   -0.0790 C   0  0  0  0  0  0  0  0  0  0  0  0
    6.2890   -6.2900   -1.1450 C   0  0  0  0  0  3  0  0  0  0  0  0
    7.3090   -5.4020   -0.7270 C   0  0  0  0  0  3  0  0  0  0  0  0
    7.0170   -5.0610    0.5750 C   0  0  0  0  0  0  0  0  0  0  0  0
    5.8700   -5.6910    0.9560 O   0  0  0  0  0  0  0  0  0  0  0  0
    7.6480   -4.2050    1.5780 C   0  0  0  0  0  0  0  0  0  0  0  0
    8.8590   -3.5480    1.3160 C   0  0  0  0  0  3  0  0  0  0  0  0
    9.4570   -2.7240    2.2740 C   0  0  0  0  0  3  0  0  0  0  0  0
    8.8610   -2.5410    3.5280 C   0  0  0  0  0  0  0  0  0  0  0  0
    7.6460   -3.1870    3.7940 C   0  0  0  0  0  3  0  0  0  0  0  0
    7.0500   -4.0100    2.8320 C   0  0  0  0  0  3  0  0  0  0  0  0
    9.4870   -1.6350    4.5570 C   0  0  0  0  0  0  0  0  0  0  0  0
    8.6620   -1.3520    5.6050 F   0  0  0  0  0  0  0  0  0  0  0  0
   10.6140   -2.1670    5.1050 F   0  0  0  0  0  0  0  0  0  0  0  0
    9.8590   -0.4260    4.0460 F   0  0  0  0  0  0  0  0  0  0  0  0
    5.0350   -8.7960    1.6830 N   0  0  0  0  0  4  0  0  0  0  0  0
    5.3020   -8.4370    2.9850 C   0  0  0  0  0  0  0  0  0  0  0  0
    6.3760   -8.7690    3.4950 O   0  0  0  0  0  0  0  0  0  0  0  0
    5.7530   -9.3980    1.3050 H   0  0  0  0  0  0  0  0  0  0  0  0
    4.3030   -7.7630    3.8430 C   0  0  0  0  0  0  0  0  0  0  0  0
    3.4150   -8.5540    4.5820 C   0  0  0  0  0  3  0  0  0  0  0  0
    2.4110   -7.9540    5.3430 C   0  0  0  0  0  3  0  0  0  0  0  0
    2.2810   -6.5650    5.3550 C   0  0  0  0  0  3  0  0  0  0  0  0
    3.1500   -5.7750    4.6010 C   0  0  0  0  0  3  0  0  0  0  0  0
    4.1530   -6.3720    3.8320 C   0  0  0  0  0  3  0  0  0  0  0  0
    1.9230   -8.4390   -0.2560 O   0  0  0  0  0  0  0  0  0  0  0  0
    2.6380   -8.9610    0.6500 C   0  0  0  0  0  0  0  0  0  0  0  0
    2.3650   -9.8730    1.4800 O   0  0  0  0  0  1  0  0  0  0  0  0
  1 18  2  3  0  0  0
  2  1  1  0  0  0  0
  3  2  1  0  0  0  0
  3  7  1  0  0  0  0
  4  5  1  0  0  0  0
  4  3  2  0  0  0  0
  5  6  2  0  0  0  0
  6  7  1  0  0  0  0
  6  8  1  0  0  0  0
  8 13  1  0  0  0  0
  9  8  2  0  0  0  0
  9 10  1  0  0  0  0
 10 11  2  0  0  0  0
 11 12  1  0  0  0  0
 11 14  1  0  0  0  0
 13 12  2  0  0  0  0
 14 16  1  0  0  0  0
 14 15  1  0  0  0  0
 17 14  1  0  0  0  0
 18 19  1  0  0  0  0
 19 20  2  0  0  0  0
 19 22  1  0  0  0  0
 21 18  1  0  0  0  0
 22 23  1  0  0  0  0
 23 24  2  0  0  0  0
 24 25  1  0  0  0  0
 26 25  2  0  0  0  0
 27 22  2  0  0  0  0
 27 26  1  0  0  0  0
 28 29  2  0  0  0  0
 29  1  1  0  0  0  0
 29 30  1  0  0  0  0
M  END
>  <minimizedAffinity>
-6.48064613

$$$$

 OpenBabel09122223413D

 30 32  0  0  0  0  0  0  0  0999 V2000
    2.4670   -6.2160    5.1760 C   0  0  0  0  0  0  0  0  0  0  0  0
    3.1540   -7.2610    4.6690 C   0  0  0  0  0  2  0  0  0  0  0  0
    3.8600   -7.2660    3.4350 C   0  0  0  0  0  0  0  0  0  0  0  0
    3.7030   -8.0530    2.2990 C   0  0  0  0  0  3  0  0  0  0  0  0
    4.6530   -7.6340    1.3380 C   0  0  0  0  0  3  0  0  0  0  0  0
    5.3510   -6.5930    1.9100 C   0  0  0  0  0  0  0  0  0  0  0  0
    4.8600   -6.3600    3.1600 O   0  0  0  0  0  0  0  0  0  0  0  0
    6.4460   -5.7280    1.4750 C   0  0  0  0  0  0  0  0  0  0  0  0
    7.0190   -5.8660    0.2020 C   0  0  0  0  0  3  0  0  0  0  0  0
    8.0620   -5.0340   -0.2160 C   0  0  0  0  0  3  0  0  0  0  0  0
    8.5680   -4.0440    0.6360 C   0  0  0  0  0  0  0  0  0  0  0  0
    7.9950   -3.8950    1.9070 C   0  0  0  0  0  3  0  0  0  0  0  0
    6.9500   -4.7300    2.3200 C   0  0  0  0  0  3  0  0  0  0  0  0
    9.6760   -3.1270    0.1850 C   0  0  0  0  0  0  0  0  0  0  0  0
    9.2350   -1.9080   -0.2360 F   0  0  0  0  0  0  0  0  0  0  0  0
   10.5800   -2.8750    1.1730 F   0  0  0  0  0  0  0  0  0  0  0  0
   10.3970   -3.6360   -0.8550 F   0  0  0  0  0  0  0  0  0  0  0  0
    2.2560   -5.0370    4.4730 N   0  0  0  0  0  4  0  0  0  0  0  0
    2.6280   -3.7390    4.7440 C   0  0  0  0  0  0  0  0  0  0  0  0
    2.1010   -2.8160    4.1150 O   0  0  0  0  0  0  0  0  0  0  0  0
    1.6230   -5.0890    3.6880 H   0  0  0  0  0  0  0  0  0  0  0  0
    3.7240   -3.4060    5.6800 C   0  0  0  0  0  0  0  0  0  0  0  0
    3.5930   -2.2660    6.4830 C   0  0  0  0  0  3  0  0  0  0  0  0
    4.6380   -1.8780    7.3220 C   0  0  0  0  0  3  0  0  0  0  0  0
    5.8210   -2.6170    7.3500 C   0  0  0  0  0  3  0  0  0  0  0  0
    5.9630   -3.7400    6.5330 C   0  0  0  0  0  3  0  0  0  0  0  0
    4.9220   -4.1280    5.6870 C   0  0  0  0  0  3  0  0  0  0  0  0
    0.6800   -7.0850    6.5020 O   0  0  0  0  0  0  0  0  0  0  0  0
    1.8280   -6.5530    6.5610 C   0  0  0  0  0  0  0  0  0  0  0  0
    2.5230   -6.2220    7.5620 O   0  0  0  0  0  1  0  0  0  0  0  0
  1 29  1  0  0  0  0
  2  1  1  0  0  0  0
  3  2  1  0  0  0  0
  4  3  2  0  0  0  0
  5  6  2  0  0  0  0
  5  4  1  0  0  0  0
  6  7  1  0  0  0  0
  7  3  1  0  0  0  0
  8  6  1  0  0  0  0
  8 13  1  0  0  0  0
  9  8  2  0  0  0  0
 10  9  1  0  0  0  0
 10 11  2  0  0  0  0
 11 12  1  0  0  0  0
 12 13  2  0  0  0  0
 14 11  1  0  0  0  0
 14 16  1  0  0  0  0
 15 14  1  0  0  0  0
 17 14  1  0  0  0  0
 18 19  1  0  0  0  0
 18  1  2  0  0  0  0
 19 22  1  0  0  0  0
 20 19  2  0  0  0  0
 21 18  1  0  0  0  0
 22 27  2  0  0  0  0
 22 23  1  0  0  0  0
 23 24  2  0  0  0  0
 24 25  1  0  0  0  0
 26 25  2  0  0  0  0
 27 26  1  0  0  0  0
 28 29  2  0  0  0  0
 29 30  1  0  0  0  0
M  END
>  <minimizedAffinity>
-6.48033333

$$$$

 OpenBabel09122223413D

 30 32  0  0  0  0  0  0  0  0999 V2000
    8.3190   -1.9510    6.0110 C   0  0  0  0  0  0  0  0  0  0  0  0
    8.7290   -1.6300    4.7660 C   0  0  0  0  0  2  0  0  0  0  0  0
    8.6010   -2.4530    3.6140 C   0  0  0  0  0  0  0  0  0  0  0  0
    9.3750   -2.5320    2.4610 C   0  0  0  0  0  3  0  0  0  0  0  0
    8.8250   -3.5380    1.6310 C   0  0  0  0  0  3  0  0  0  0  0  0
    7.7430   -4.0530    2.3090 C   0  0  0  0  0  0  0  0  0  0  0  0
    7.6210   -3.4160    3.5080 O   0  0  0  0  0  0  0  0  0  0  0  0
    6.7530   -5.0910    2.0270 C   0  0  0  0  0  0  0  0  0  0  0  0
    7.0130   -6.1100    1.0990 C   0  0  0  0  0  3  0  0  0  0  0  0
    6.0670   -7.1060    0.8340 C   0  0  0  0  0  3  0  0  0  0  0  0
    4.8290   -7.1030    1.4890 C   0  0  0  0  0  0  0  0  0  0  0  0
    4.5660   -6.0930    2.4230 C   0  0  0  0  0  3  0  0  0  0  0  0
    5.5150   -5.0980    2.6850 C   0  0  0  0  0  3  0  0  0  0  0  0
    3.8140   -8.1870    1.2280 C   0  0  0  0  0  0  0  0  0  0  0  0
    3.0000   -7.9250    0.1670 F   0  0  0  0  0  0  0  0  0  0  0  0
    4.3930   -9.3920    0.9640 F   0  0  0  0  0  0  0  0  0  0  0  0
    2.9810   -8.4020    2.2860 F   0  0  0  0  0  0  0  0  0  0  0  0
    7.8300   -3.2080    6.3450 N   0  0  0  0  0  4  0  0  0  0  0  0
    6.5950   -3.6090    6.8040 C   0  0  0  0  0  0  0  0  0  0  0  0
    6.4700   -4.7370    7.2900 O   0  0  0  0  0  0  0  0  0  0  0  0
    8.5060   -3.9570    6.3820 H   0  0  0  0  0  0  0  0  0  0  0  0
    5.3790   -2.7850    6.6360 C   0  0  0  0  0  0  0  0  0  0  0  0
    5.1160   -1.7810    7.5750 C   0  0  0  0  0  3  0  0  0  0  0  0
    3.9400   -1.0350    7.4920 C   0  0  0  0  0  3  0  0  0  0  0  0
    3.0160   -1.3000    6.4800 C   0  0  0  0  0  3  0  0  0  0  0  0
    3.2640   -2.3170    5.5570 C   0  0  0  0  0  3  0  0  0  0  0  0
    4.4370   -3.0700    5.6410 C   0  0  0  0  0  3  0  0  0  0  0  0
    7.6450    0.0110    7.1950 O   0  0  0  0  0  0  0  0  0  0  0  0
    8.6000   -0.8050    7.0340 C   0  0  0  0  0  0  0  0  0  0  0  0
    9.7550   -0.8190    7.5450 O   0  0  0  0  0  1  0  0  0  0  0  0
  1 18  2  0  0  0  0
  1 29  1  0  0  0  0
  2  1  1  0  0  0  0
  3  2  1  0  0  0  0
  4  3  2  0  0  0  0
  5  6  2  0  0  0  0
  5  4  1  0  0  0  0
  6  7  1  0  0  0  0
  7  3  1  0  0  0  0
  8  6  1  0  0  0  0
  8 13  1  0  0  0  0
  9  8  2  0  0  0  0
 10  9  1  0  0  0  0
 10 11  2  0  0  0  0
 11 12  1  0  0  0  0
 12 13  2  0  0  0  0
 14 11  1  0  0  0  0
 14 17  1  0  0  0  0
 15 14  1  0  0  0  0
 16 14  1  0  0  0  0
 18 21  1  0  0  0  0
 18 19  1  0  0  0  0
 19 20  2  0  0  0  0
 22 19  1  0  0  0  0
 22 23  1  0  0  0  0
 24 23  2  0  0  0  0
 25 24  1  0  0  0  0
 26 27  1  0  0  0  0
 26 25  2  0  0  0  0
 27 22  2  0  0  0  0
 29 28  2  0  0  0  0
 29 30  1  0  0  0  0
M  END
>  <minimizedAffinity>
-6.45373869

$$$$

 OpenBabel09122223413D

 30 32  0  0  0  0  0  0  0  0999 V2000
    3.1880   -8.2250    5.0520 C   0  0  0  0  0  0  0  0  0  0  0  0
    4.1260   -8.6420    4.1780 C   0  0  0  0  0  2  0  0  0  0  0  0
    4.3980   -8.0560    2.9110 C   0  0  0  0  0  0  0  0  0  0  0  0
    3.7150   -8.1400    1.7030 C   0  0  0  0  0  3  0  0  0  0  0  0
    4.3990   -7.3430    0.7540 C   0  0  0  0  0  3  0  0  0  0  0  0
    5.4680   -6.7820    1.4170 C   0  0  0  0  0  0  0  0  0  0  0  0
    5.4550   -7.1940    2.7160 O   0  0  0  0  0  0  0  0  0  0  0  0
    6.5530   -5.8790    1.0370 C   0  0  0  0  0  0  0  0  0  0  0  0
    7.1720   -5.0480    1.9820 C   0  0  0  0  0  3  0  0  0  0  0  0
    8.2150   -4.1900    1.6180 C   0  0  0  0  0  3  0  0  0  0  0  0
    8.6610   -4.1340    0.2920 C   0  0  0  0  0  0  0  0  0  0  0  0
    8.0530   -4.9680   -0.6560 C   0  0  0  0  0  3  0  0  0  0  0  0
    7.0110   -5.8270   -0.2880 C   0  0  0  0  0  3  0  0  0  0  0  0
    9.8000   -3.2300   -0.1040 C   0  0  0  0  0  0  0  0  0  0  0  0
   10.6140   -2.8940    0.9370 F   0  0  0  0  0  0  0  0  0  0  0  0
   10.6110   -3.7920   -1.0430 F   0  0  0  0  0  0  0  0  0  0  0  0
    9.3800   -2.0470   -0.6380 F   0  0  0  0  0  0  0  0  0  0  0  0
    2.2670   -7.2280    4.7530 N   0  0  0  0  0  4  0  0  0  0  0  0
    2.2210   -5.8980    5.1080 C   0  0  0  0  0  0  0  0  0  0  0  0
    1.1700   -5.2680    4.9530 O   0  0  0  0  0  0  0  0  0  0  0  0
    1.4130   -7.5250    4.3020 H   0  0  0  0  0  0  0  0  0  0  0  0
    3.4160   -5.1560    5.5630 C   0  0  0  0  0  0  0  0  0  0  0  0
    4.2480   -4.5730    4.5990 C   0  0  0  0  0  3  0  0  0  0  0  0
    5.4240   -3.9300    4.9860 C   0  0  0  0  0  3  0  0  0  0  0  0
    5.7810   -3.8820    6.3340 C   0  0  0  0  0  3  0  0  0  0  0  0
    4.9670   -4.4840    7.2950 C   0  0  0  0  0  3  0  0  0  0  0  0
    3.7920   -5.1330    6.9110 C   0  0  0  0  0  3  0  0  0  0  0  0
    4.2910   -9.1820    6.9410 O   0  0  0  0  0  1  0  0  0  0  0  0
    3.1740   -9.0880    6.3530 C   0  0  0  0  0  0  0  0  0  0  0  0
    2.0580   -9.6090    6.6340 O   0  0  0  0  0  0  0  0  0  0  0  0
  1 29  1  0  0  0  0
  2  1  1  0  0  0  0
  3  2  1  0  0  0  0
  4  3  2  0  0  0  0
  5  6  2  0  0  0  0
  5  4  1  0  0  0  0
  6  7  1  0  0  0  0
  7  3  1  0  0  0  0
  8  6  1  0  0  0  0
  8  9  1  0  0  0  0
 10  9  2  0  0  0  0
 11 10  1  0  0  0  0
 12 13  1  0  0  0  0
 12 11  2  0  0  0  0
 13  8  2  0  0  0  0
 14 11  1  0  0  0  0
 14 15  1  0  0  0  0
 16 14  1  0  0  0  0
 17 14  1  0  0  0  0
 18  1  2  3  0  0  0
 18 19  1  0  0  0  0
 19 22  1  0  0  0  0
 20 19  2  0  0  0  0
 21 18  1  0  0  0  0
 22 27  1  0  0  0  0
 23 24  1  0  0  0  0
 23 22  2  0  0  0  0
 24 25  2  0  0  0  0
 25 26  1  0  0  0  0
 27 26  2  0  0  0  0
 29 30  2  0  0  0  0
 29 28  1  0  0  0  0
M  END
>  <minimizedAffinity>
-6.39883137

$$$$

 OpenBabel09122223413D

 30 32  0  0  0  0  0  0  0  0999 V2000
    5.7470   -5.3450    2.0430 C   0  0  0  0  0  0  0  0  0  0  0  0
    5.4850   -4.6480    3.1680 C   0  0  0  0  0  2  0  0  0  0  0  0
    4.2010   -4.4670    3.7500 C   0  0  0  0  0  0  0  0  0  0  0  0
    3.4500   -3.3150    3.9610 C   0  0  0  0  0  3  0  0  0  0  0  0
    2.2230   -3.6930    4.5570 C   0  0  0  0  0  3  0  0  0  0  0  0
    2.2550   -5.0640    4.6770 C   0  0  0  0  0  0  0  0  0  0  0  0
    3.4330   -5.5300    4.1730 O   0  0  0  0  0  0  0  0  0  0  0  0
    1.3340   -6.0720    5.1990 C   0  0  0  0  0  0  0  0  0  0  0  0
    1.7600   -7.0390    6.1200 C   0  0  0  0  0  3  0  0  0  0  0  0
    0.8760   -7.9980    6.6250 C   0  0  0  0  0  3  0  0  0  0  0  0
   -0.4620   -8.0190    6.2110 C   0  0  0  0  0  0  0  0  0  0  0  0
   -0.8980   -7.0500    5.2960 C   0  0  0  0  0  3  0  0  0  0  0  0
   -0.0090   -6.0920    4.7950 C   0  0  0  0  0  3  0  0  0  0  0  0
   -1.4280   -9.0340    6.7670 C   0  0  0  0  0  0  0  0  0  0  0  0
   -0.8370   -9.9610    7.5730 F   0  0  0  0  0  0  0  0  0  0  0  0
   -2.4110   -8.4630    7.5170 F   0  0  0  0  0  0  0  0  0  0  0  0
   -2.0700   -9.7460    5.7970 F   0  0  0  0  0  0  0  0  0  0  0  0
    4.7510   -5.8720    1.2300 N   0  0  0  0  0  4  0  0  0  0  0  0
    4.2580   -7.1520    1.1130 C   0  0  0  0  0  0  0  0  0  0  0  0
    3.5600   -7.4420    0.1370 O   0  0  0  0  0  0  0  0  0  0  0  0
    4.3920   -5.2640    0.5080 H   0  0  0  0  0  0  0  0  0  0  0  0
    4.4330   -8.1710    2.1700 C   0  0  0  0  0  0  0  0  0  0  0  0
    3.3410   -8.4760    2.9910 C   0  0  0  0  0  3  0  0  0  0  0  0
    3.4890   -9.3760    4.0480 C   0  0  0  0  0  3  0  0  0  0  0  0
    4.7320   -9.9610    4.2960 C   0  0  0  0  0  3  0  0  0  0  0  0
    5.8280   -9.6390    3.4940 C   0  0  0  0  0  3  0  0  0  0  0  0
    5.6850   -8.7340    2.4400 C   0  0  0  0  0  3  0  0  0  0  0  0
    7.6860   -6.4110    1.1440 O   0  0  0  0  0  0  0  0  0  0  0  0
    7.2710   -5.3530    1.7010 C   0  0  0  0  0  0  0  0  0  0  0  0
    7.9010   -4.3160    2.0540 O   0  0  0  0  0  1  0  0  0  0  0  0
  1  2  1  0  0  0  0
  2  3  1  0  0  0  0
  3  4  2  0  0  0  0
  3  7  1  0  0  0  0
  4  5  1  0  0  0  0
  5  6  2  0  0  0  0
  6  8  1  0  0  0  0
  7  6  1  0  0  0  0
  8  9  1  0  0  0  0
  9 10  2  0  0  0  0
 11 10  1  0  0  0  0
 11 14  1  0  0  0  0
 12 11  2  0  0  0  0
 13  8  2  0  0  0  0
 13 12  1  0  0  0  0
 14 16  1  0  0  0  0
 14 15  1  0  0  0  0
 17 14  1  0  0  0  0
 18  1  2  3  0  0  0
 19 18  1  0  0  0  0
 19 22  1  0  0  0  0
 20 19  2  0  0  0  0
 21 18  1  0  0  0  0
 22 27  2  0  0  0  0
 22 23  1  0  0  0  0
 23 24  2  0  0  0  0
 24 25  1  0  0  0  0
 26 25  2  0  0  0  0
 27 26  1  0  0  0  0
 28 29  2  0  0  0  0
 29  1  1  0  0  0  0
 29 30  1  0  0  0  0
M  END
>  <minimizedAffinity>
-6.28963566

$$$$

 OpenBabel09122223413D

 30 32  0  0  0  0  0  0  0  0999 V2000
    1.1830   -7.8820    5.8800 C   0  0  0  0  0  0  0  0  0  0  0  0
    1.3480   -8.3350    4.6200 C   0  0  0  0  0  2  0  0  0  0  0  0
    2.5880   -8.6950    4.0250 C   0  0  0  0  0  0  0  0  0  0  0  0
    3.2360   -9.9230    3.9410 C   0  0  0  0  0  3  0  0  0  0  0  0
    4.4390   -9.7380    3.2200 C   0  0  0  0  0  3  0  0  0  0  0  0
    4.4820   -8.4060    2.8710 C   0  0  0  0  0  0  0  0  0  0  0  0
    3.3610   -7.7860    3.3360 O   0  0  0  0  0  0  0  0  0  0  0  0
    5.4270   -7.5660    2.1380 C   0  0  0  0  0  0  0  0  0  0  0  0
    5.0240   -6.3550    1.5570 C   0  0  0  0  0  3  0  0  0  0  0  0
    5.9310   -5.5480    0.8620 C   0  0  0  0  0  3  0  0  0  0  0  0
    7.2690   -5.9390    0.7220 C   0  0  0  0  0  0  0  0  0  0  0  0
    7.6810   -7.1450    1.3070 C   0  0  0  0  0  3  0  0  0  0  0  0
    6.7700   -7.9480    2.0030 C   0  0  0  0  0  3  0  0  0  0  0  0
    8.2590   -5.0650   -0.0050 C   0  0  0  0  0  0  0  0  0  0  0  0
    8.3000   -3.7860    0.4630 F   0  0  0  0  0  0  0  0  0  0  0  0
    9.5340   -5.5350    0.0840 F   0  0  0  0  0  0  0  0  0  0  0  0
    7.9960   -4.9590   -1.3390 F   0  0  0  0  0  0  0  0  0  0  0  0
    2.2470   -7.5840    6.7220 N   0  0  0  0  0  4  0  0  0  0  0  0
    3.2840   -6.6870    6.5920 C   0  0  0  0  0  0  0  0  0  0  0  0
    4.2610   -6.7820    7.3400 O   0  0  0  0  0  0  0  0  0  0  0  0
    2.3770   -8.1950    7.5150 H   0  0  0  0  0  0  0  0  0  0  0  0
    3.2270   -5.5350    5.6660 C   0  0  0  0  0  0  0  0  0  0  0  0
    4.4090   -5.1240    5.0370 C   0  0  0  0  0  3  0  0  0  0  0  0
    4.4090   -3.9950    4.2170 C   0  0  0  0  0  3  0  0  0  0  0  0
    3.2340   -3.2650    4.0360 C   0  0  0  0  0  3  0  0  0  0  0  0
    2.0600   -3.6580    4.6820 C   0  0  0  0  0  3  0  0  0  0  0  0
    2.0570   -4.7830    5.5090 C   0  0  0  0  0  3  0  0  0  0  0  0
   -1.0860   -7.5670    5.2020 O   0  0  0  0  0  0  0  0  0  0  0  0
   -0.3170   -7.6010    6.2080 C   0  0  0  0  0  0  0  0  0  0  0  0
   -0.5670   -7.4100    7.4320 O   0  0  0  0  0  1  0  0  0  0  0  0
  1 29  1  0  0  0  0
  1 18  2  0  0  0  0
  2  1  1  0  0  0  0
  3  2  1  0  0  0  0
  4  3  2  0  0  0  0
  5  4  1  0  0  0  0
  6  5  2  0  0  0  0
  6  7  1  0  0  0  0
  7  3  1  0  0  0  0
  8  6  1  0  0  0  0
  9  8  2  0  0  0  0
 10  9  1  0  0  0  0
 11 10  2  0  0  0  0
 11 12  1  0  0  0  0
 12 13  2  0  0  0  0
 13  8  1  0  0  0  0
 14 16  1  0  0  0  0
 14 15  1  0  0  0  0
 14 11  1  0  0  0  0
 17 14  1  0  0  0  0
 18 21  1  0  0  0  0
 19 18  1  0  0  0  0
 19 20  2  0  0  0  0
 22 19  1  0  0  0  0
 23 22  2  0  0  0  0
 24 23  1  0  0  0  0
 25 24  2  0  0  0  0
 25 26  1  0  0  0  0
 26 27  2  0  0  0  0
 27 22  1  0  0  0  0
 28 29  2  0  0  0  0
 29 30  1  0  0  0  0
M  END
>  <minimizedAffinity>
-6.20587158

$$$$

 OpenBabel09122223413D

 30 32  0  0  0  0  0  0  0  0999 V2000
    6.2170   -7.0250    0.2000 C   0  0  0  0  0  0  0  0  0  0  0  0
    6.4110   -5.7200   -0.0810 C   0  0  0  0  0  2  0  0  0  0  0  0
    7.5120   -4.9350    0.3570 C   0  0  0  0  0  0  0  0  0  0  0  0
    8.7130   -4.6190   -0.2690 C   0  0  0  0  0  3  0  0  0  0  0  0
    9.4550   -3.7810    0.5970 C   0  0  0  0  0  3  0  0  0  0  0  0
    8.6770   -3.5950    1.7180 C   0  0  0  0  0  0  0  0  0  0  0  0
    7.5030   -4.2710    1.5650 O   0  0  0  0  0  0  0  0  0  0  0  0
    8.8380   -2.8580    2.9700 C   0  0  0  0  0  0  0  0  0  0  0  0
    8.2780   -3.3270    4.1670 C   0  0  0  0  0  3  0  0  0  0  0  0
    8.4390   -2.6240    5.3650 C   0  0  0  0  0  3  0  0  0  0  0  0
    9.1600   -1.4240    5.3950 C   0  0  0  0  0  0  0  0  0  0  0  0
    9.7300   -0.9540    4.2040 C   0  0  0  0  0  3  0  0  0  0  0  0
    9.5670   -1.6610    3.0070 C   0  0  0  0  0  3  0  0  0  0  0  0
    9.3590   -0.6730    6.6870 C   0  0  0  0  0  0  0  0  0  0  0  0
    8.2430   -0.6310    7.4680 F   0  0  0  0  0  0  0  0  0  0  0  0
   10.3370   -1.2190    7.4630 F   0  0  0  0  0  0  0  0  0  0  0  0
    9.7230    0.6280    6.4950 F   0  0  0  0  0  0  0  0  0  0  0  0
    7.0210   -7.7380    1.0790 N   0  0  0  0  0  4  0  0  0  0  0  0
    6.7670   -8.2480    2.3330 C   0  0  0  0  0  0  0  0  0  0  0  0
    7.7120   -8.6120    3.0390 O   0  0  0  0  0  0  0  0  0  0  0  0
    8.0000   -7.8060    0.8380 H   0  0  0  0  0  0  0  0  0  0  0  0
    5.3950   -8.4880    2.8300 C   0  0  0  0  0  0  0  0  0  0  0  0
    4.7960   -9.7260    2.5670 C   0  0  0  0  0  3  0  0  0  0  0  0
    3.4750   -9.9600    2.9530 C   0  0  0  0  0  3  0  0  0  0  0  0
    2.7460   -8.9540    3.5880 C   0  0  0  0  0  3  0  0  0  0  0  0
    3.3330   -7.7110    3.8300 C   0  0  0  0  0  3  0  0  0  0  0  0
    4.6520   -7.4700    3.4390 C   0  0  0  0  0  3  0  0  0  0  0  0
    3.8700   -6.8960   -0.2290 O   0  0  0  0  0  1  0  0  0  0  0  0
    4.9120   -7.5770   -0.4590 C   0  0  0  0  0  0  0  0  0  0  0  0
    5.0580   -8.6500   -1.1100 O   0  0  0  0  0  0  0  0  0  0  0  0
  1 18  2  0  0  0  0
  2  1  1  0  0  0  0
  2  3  1  0  0  0  0
  3  7  1  0  0  0  0
  4  3  2  0  0  0  0
  4  5  1  0  0  0  0
  5  6  2  0  0  0  0
  6  8  1  0  0  0  0
  7  6  1  0  0  0  0
  8 13  2  0  0  0  0
  8  9  1  0  0  0  0
  9 10  2  0  0  0  0
 10 11  1  0  0  0  0
 11 14  1  0  0  0  0
 12 11  2  0  0  0  0
 13 12  1  0  0  0  0
 14 16  1  0  0  0  0
 14 15  1  0  0  0  0
 17 14  1  0  0  0  0
 18 19  1  0  0  0  0
 19 22  1  0  0  0  0
 19 20  2  0  0  0  0
 21 18  1  0  0  0  0
 22 27  1  0  0  0  0
 23 22  2  0  0  0  0
 23 24  1  0  0  0  0
 24 25  2  0  0  0  0
 25 26  1  0  0  0  0
 27 26  2  0  0  0  0
 29 28  1  0  0  0  0
 29  1  1  0  0  0  0
 30 29  2  0  0  0  0
M  END
>  <minimizedAffinity>
-5.8705616

$$$$
