
 OpenBabel09132204463D

 30 32  0  0  0  0  0  0  0  0999 V2000
    3.1880   -8.2250    5.0520 C   0  0  0  0  0  0  0  0  0  0  0  0
    4.1260   -8.6420    4.1780 C   0  0  0  0  0  2  0  0  0  0  0  0
    4.3980   -8.0560    2.9110 C   0  0  0  0  0  0  0  0  0  0  0  0
    3.7150   -8.1400    1.7030 C   0  0  0  0  0  3  0  0  0  0  0  0
    4.3990   -7.3430    0.7540 C   0  0  0  0  0  3  0  0  0  0  0  0
    5.4680   -6.7820    1.4170 C   0  0  0  0  0  0  0  0  0  0  0  0
    5.4550   -7.1940    2.7160 O   0  0  0  0  0  0  0  0  0  0  0  0
    6.5530   -5.8790    1.0370 C   0  0  0  0  0  0  0  0  0  0  0  0
    7.1720   -5.0480    1.9820 C   0  0  0  0  0  3  0  0  0  0  0  0
    8.2150   -4.1900    1.6180 C   0  0  0  0  0  3  0  0  0  0  0  0
    8.6610   -4.1340    0.2920 C   0  0  0  0  0  0  0  0  0  0  0  0
    8.0530   -4.9680   -0.6560 C   0  0  0  0  0  3  0  0  0  0  0  0
    7.0110   -5.8270   -0.2880 C   0  0  0  0  0  3  0  0  0  0  0  0
    9.8000   -3.2300   -0.1040 C   0  0  0  0  0  0  0  0  0  0  0  0
   10.6140   -2.8940    0.9370 F   0  0  0  0  0  0  0  0  0  0  0  0
   10.6110   -3.7920   -1.0430 F   0  0  0  0  0  0  0  0  0  0  0  0
    9.3800   -2.0470   -0.6380 F   0  0  0  0  0  0  0  0  0  0  0  0
    2.2670   -7.2280    4.7530 N   0  0  0  0  0  4  0  0  0  0  0  0
    2.2210   -5.8980    5.1080 C   0  0  0  0  0  0  0  0  0  0  0  0
    1.1700   -5.2680    4.9530 O   0  0  0  0  0  0  0  0  0  0  0  0
    1.4130   -7.5250    4.3020 H   0  0  0  0  0  0  0  0  0  0  0  0
    3.4160   -5.1560    5.5630 C   0  0  0  0  0  0  0  0  0  0  0  0
    4.2480   -4.5730    4.5990 C   0  0  0  0  0  3  0  0  0  0  0  0
    5.4240   -3.9300    4.9860 C   0  0  0  0  0  3  0  0  0  0  0  0
    5.7810   -3.8820    6.3340 C   0  0  0  0  0  3  0  0  0  0  0  0
    4.9670   -4.4840    7.2950 C   0  0  0  0  0  3  0  0  0  0  0  0
    3.7920   -5.1330    6.9110 C   0  0  0  0  0  3  0  0  0  0  0  0
    4.2910   -9.1820    6.9410 O   0  0  0  0  0  1  0  0  0  0  0  0
    3.1740   -9.0880    6.3530 C   0  0  0  0  0  0  0  0  0  0  0  0
    2.0580   -9.6090    6.6340 O   0  0  0  0  0  0  0  0  0  0  0  0
  1 29  1  0  0  0  0
  2  1  1  0  0  0  0
  3  2  1  0  0  0  0
  4  3  2  0  0  0  0
  5  6  2  0  0  0  0
  5  4  1  0  0  0  0
  6  7  1  0  0  0  0
  7  3  1  0  0  0  0
  8  6  1  0  0  0  0
  8  9  1  0  0  0  0
 10  9  2  0  0  0  0
 11 10  1  0  0  0  0
 12 13  1  0  0  0  0
 12 11  2  0  0  0  0
 13  8  2  0  0  0  0
 14 11  1  0  0  0  0
 14 15  1  0  0  0  0
 16 14  1  0  0  0  0
 17 14  1  0  0  0  0
 18  1  2  3  0  0  0
 18 19  1  0  0  0  0
 19 22  1  0  0  0  0
 20 19  2  0  0  0  0
 21 18  1  0  0  0  0
 22 27  1  0  0  0  0
 23 24  1  0  0  0  0
 23 22  2  0  0  0  0
 24 25  2  0  0  0  0
 25 26  1  0  0  0  0
 27 26  2  0  0  0  0
 29 30  2  0  0  0  0
 29 28  1  0  0  0  0
M  END
>  <minimizedAffinity>
-6.39883137

$$$$
