
 OpenBabel09132204463D

 30 32  0  0  0  0  0  0  0  0999 V2000
    8.3190   -1.9510    6.0110 C   0  0  0  0  0  0  0  0  0  0  0  0
    8.7290   -1.6300    4.7660 C   0  0  0  0  0  2  0  0  0  0  0  0
    8.6010   -2.4530    3.6140 C   0  0  0  0  0  0  0  0  0  0  0  0
    9.3750   -2.5320    2.4610 C   0  0  0  0  0  3  0  0  0  0  0  0
    8.8250   -3.5380    1.6310 C   0  0  0  0  0  3  0  0  0  0  0  0
    7.7430   -4.0530    2.3090 C   0  0  0  0  0  0  0  0  0  0  0  0
    7.6210   -3.4160    3.5080 O   0  0  0  0  0  0  0  0  0  0  0  0
    6.7530   -5.0910    2.0270 C   0  0  0  0  0  0  0  0  0  0  0  0
    7.0130   -6.1100    1.0990 C   0  0  0  0  0  3  0  0  0  0  0  0
    6.0670   -7.1060    0.8340 C   0  0  0  0  0  3  0  0  0  0  0  0
    4.8290   -7.1030    1.4890 C   0  0  0  0  0  0  0  0  0  0  0  0
    4.5660   -6.0930    2.4230 C   0  0  0  0  0  3  0  0  0  0  0  0
    5.5150   -5.0980    2.6850 C   0  0  0  0  0  3  0  0  0  0  0  0
    3.8140   -8.1870    1.2280 C   0  0  0  0  0  0  0  0  0  0  0  0
    3.0000   -7.9250    0.1670 F   0  0  0  0  0  0  0  0  0  0  0  0
    4.3930   -9.3920    0.9640 F   0  0  0  0  0  0  0  0  0  0  0  0
    2.9810   -8.4020    2.2860 F   0  0  0  0  0  0  0  0  0  0  0  0
    7.8300   -3.2080    6.3450 N   0  0  0  0  0  4  0  0  0  0  0  0
    6.5950   -3.6090    6.8040 C   0  0  0  0  0  0  0  0  0  0  0  0
    6.4700   -4.7370    7.2900 O   0  0  0  0  0  0  0  0  0  0  0  0
    8.5060   -3.9570    6.3820 H   0  0  0  0  0  0  0  0  0  0  0  0
    5.3790   -2.7850    6.6360 C   0  0  0  0  0  0  0  0  0  0  0  0
    5.1160   -1.7810    7.5750 C   0  0  0  0  0  3  0  0  0  0  0  0
    3.9400   -1.0350    7.4920 C   0  0  0  0  0  3  0  0  0  0  0  0
    3.0160   -1.3000    6.4800 C   0  0  0  0  0  3  0  0  0  0  0  0
    3.2640   -2.3170    5.5570 C   0  0  0  0  0  3  0  0  0  0  0  0
    4.4370   -3.0700    5.6410 C   0  0  0  0  0  3  0  0  0  0  0  0
    7.6450    0.0110    7.1950 O   0  0  0  0  0  0  0  0  0  0  0  0
    8.6000   -0.8050    7.0340 C   0  0  0  0  0  0  0  0  0  0  0  0
    9.7550   -0.8190    7.5450 O   0  0  0  0  0  1  0  0  0  0  0  0
  1 18  2  0  0  0  0
  1 29  1  0  0  0  0
  2  1  1  0  0  0  0
  3  2  1  0  0  0  0
  4  3  2  0  0  0  0
  5  6  2  0  0  0  0
  5  4  1  0  0  0  0
  6  7  1  0  0  0  0
  7  3  1  0  0  0  0
  8  6  1  0  0  0  0
  8 13  1  0  0  0  0
  9  8  2  0  0  0  0
 10  9  1  0  0  0  0
 10 11  2  0  0  0  0
 11 12  1  0  0  0  0
 12 13  2  0  0  0  0
 14 11  1  0  0  0  0
 14 17  1  0  0  0  0
 15 14  1  0  0  0  0
 16 14  1  0  0  0  0
 18 21  1  0  0  0  0
 18 19  1  0  0  0  0
 19 20  2  0  0  0  0
 22 19  1  0  0  0  0
 22 23  1  0  0  0  0
 24 23  2  0  0  0  0
 25 24  1  0  0  0  0
 26 27  1  0  0  0  0
 26 25  2  0  0  0  0
 27 22  2  0  0  0  0
 29 28  2  0  0  0  0
 29 30  1  0  0  0  0
M  END
>  <minimizedAffinity>
-6.45373869

$$$$
