
 OpenBabel09132204463D

 30 32  0  0  0  0  0  0  0  0999 V2000
    4.0700   -8.3520    0.7880 C   0  0  0  0  0  0  0  0  0  0  0  0
    4.2260   -7.2500    0.0260 C   0  0  0  0  0  2  0  0  0  0  0  0
    5.4150   -6.4780   -0.0790 C   0  0  0  0  0  0  0  0  0  0  0  0
    6.2890   -6.2900   -1.1450 C   0  0  0  0  0  3  0  0  0  0  0  0
    7.3090   -5.4020   -0.7270 C   0  0  0  0  0  3  0  0  0  0  0  0
    7.0170   -5.0610    0.5750 C   0  0  0  0  0  0  0  0  0  0  0  0
    5.8700   -5.6910    0.9560 O   0  0  0  0  0  0  0  0  0  0  0  0
    7.6480   -4.2050    1.5780 C   0  0  0  0  0  0  0  0  0  0  0  0
    8.8590   -3.5480    1.3160 C   0  0  0  0  0  3  0  0  0  0  0  0
    9.4570   -2.7240    2.2740 C   0  0  0  0  0  3  0  0  0  0  0  0
    8.8610   -2.5410    3.5280 C   0  0  0  0  0  0  0  0  0  0  0  0
    7.6460   -3.1870    3.7940 C   0  0  0  0  0  3  0  0  0  0  0  0
    7.0500   -4.0100    2.8320 C   0  0  0  0  0  3  0  0  0  0  0  0
    9.4870   -1.6350    4.5570 C   0  0  0  0  0  0  0  0  0  0  0  0
    8.6620   -1.3520    5.6050 F   0  0  0  0  0  0  0  0  0  0  0  0
   10.6140   -2.1670    5.1050 F   0  0  0  0  0  0  0  0  0  0  0  0
    9.8590   -0.4260    4.0460 F   0  0  0  0  0  0  0  0  0  0  0  0
    5.0350   -8.7960    1.6830 N   0  0  0  0  0  4  0  0  0  0  0  0
    5.3020   -8.4370    2.9850 C   0  0  0  0  0  0  0  0  0  0  0  0
    6.3760   -8.7690    3.4950 O   0  0  0  0  0  0  0  0  0  0  0  0
    5.7530   -9.3980    1.3050 H   0  0  0  0  0  0  0  0  0  0  0  0
    4.3030   -7.7630    3.8430 C   0  0  0  0  0  0  0  0  0  0  0  0
    3.4150   -8.5540    4.5820 C   0  0  0  0  0  3  0  0  0  0  0  0
    2.4110   -7.9540    5.3430 C   0  0  0  0  0  3  0  0  0  0  0  0
    2.2810   -6.5650    5.3550 C   0  0  0  0  0  3  0  0  0  0  0  0
    3.1500   -5.7750    4.6010 C   0  0  0  0  0  3  0  0  0  0  0  0
    4.1530   -6.3720    3.8320 C   0  0  0  0  0  3  0  0  0  0  0  0
    1.9230   -8.4390   -0.2560 O   0  0  0  0  0  0  0  0  0  0  0  0
    2.6380   -8.9610    0.6500 C   0  0  0  0  0  0  0  0  0  0  0  0
    2.3650   -9.8730    1.4800 O   0  0  0  0  0  1  0  0  0  0  0  0
  1 18  2  3  0  0  0
  2  1  1  0  0  0  0
  3  2  1  0  0  0  0
  3  7  1  0  0  0  0
  4  5  1  0  0  0  0
  4  3  2  0  0  0  0
  5  6  2  0  0  0  0
  6  7  1  0  0  0  0
  6  8  1  0  0  0  0
  8 13  1  0  0  0  0
  9  8  2  0  0  0  0
  9 10  1  0  0  0  0
 10 11  2  0  0  0  0
 11 12  1  0  0  0  0
 11 14  1  0  0  0  0
 13 12  2  0  0  0  0
 14 16  1  0  0  0  0
 14 15  1  0  0  0  0
 17 14  1  0  0  0  0
 18 19  1  0  0  0  0
 19 20  2  0  0  0  0
 19 22  1  0  0  0  0
 21 18  1  0  0  0  0
 22 23  1  0  0  0  0
 23 24  2  0  0  0  0
 24 25  1  0  0  0  0
 26 25  2  0  0  0  0
 27 22  2  0  0  0  0
 27 26  1  0  0  0  0
 28 29  2  0  0  0  0
 29  1  1  0  0  0  0
 29 30  1  0  0  0  0
M  END
>  <minimizedAffinity>
-6.48064613

$$$$
