REMARK  Name = 
REMARK  7 active torsions:
REMARK  status: ('A' for Active; 'I' for Inactive)
REMARK    1  A    between atoms: C_1  and  O_2
REMARK    2  A    between atoms: O_2  and  C_3
REMARK    3  A    between atoms: C_8  and  C_9
REMARK    4  A    between atoms: C_12  and  C_13
REMARK    5  A    between atoms: CA_14  and  N_15
REMARK    6  A    between atoms: CA_14  and  C_24
REMARK    7  A    between atoms: C_16  and  C_18
REMARK                            x       y       z     vdW  Elec       q    Type
REMARK                         _______ _______ _______ _____ _____    ______ ____
ROOT
ATOM      1  C   UNL     1       5.511   0.721   1.520  0.00  0.00    +0.071 C 
ATOM      2  CA  UNL     1       5.668   1.995   1.934  0.00  0.00    +0.060 C 
ENDROOT
BRANCH   1   6
ATOM      3  C   UNL     1       3.139   0.415  -1.179  0.00  0.00    +0.139 A 
ATOM      4  C   UNL     1       3.429  -0.919  -1.009  0.00  0.00    +0.050 A 
ATOM      5  C   UNL     1       4.383  -0.990   0.034  0.00  0.00    +0.050 A 
ATOM      6  C   UNL     1       4.638   0.304   0.474  0.00  0.00    +0.130 A 
ATOM      7  O   UNL     1       3.867   1.151  -0.293  0.00  0.00    -0.455 OA
BRANCH   3  13
ATOM      8  C   UNL     1       1.030   0.659  -2.520  0.00  0.00    +0.131 A 
ATOM      9  C   UNL     1       0.232   1.385  -3.412  0.00  0.00    +0.046 A 
ATOM     10  C   UNL     1       0.620   2.661  -3.815  0.00  0.00    +0.004 A 
ATOM     11  C   UNL     1       1.809   3.205  -3.335  0.00  0.00    +0.001 A 
ATOM     12  C   UNL     1       2.617   2.467  -2.465  0.00  0.00    +0.015 A 
ATOM     13  C   UNL     1       2.251   1.173  -2.054  0.00  0.00    +0.059 A 
BRANCH   8  15
ATOM     14  C   UNL     1      -0.175  -0.482  -0.938  0.00  0.00    +0.277 C 
ATOM     15  O   UNL     1       0.577  -0.586  -2.151  0.00  0.00    -0.494 OA
ENDBRANCH   8  15
ENDBRANCH   3  13
ENDBRANCH   1   6
BRANCH   2  16
ATOM     16  N   UNL     1       4.953   3.049   1.380  0.00  0.00    -0.280 N 
ATOM     17  C   UNL     1       4.987   4.404   1.608  0.00  0.00    +0.248 C 
ATOM     18  O   UNL     1       4.092   5.124   1.153  0.00  0.00    -0.270 OA
ATOM     19  H   UNL     1       4.221   2.782   0.731  0.00  0.00    +0.155 HD
BRANCH  17  20
ATOM     20  C   UNL     1       6.109   5.062   2.307  0.00  0.00    +0.037 A 
ATOM     21  C   UNL     1       5.818   6.013   3.293  0.00  0.00    +0.013 A 
ATOM     22  C   UNL     1       6.854   6.709   3.918  0.00  0.00    +0.001 A 
ATOM     23  C   UNL     1       8.177   6.470   3.546  0.00  0.00    +0.000 A 
ATOM     24  C   UNL     1       8.466   5.542   2.544  0.00  0.00    +0.001 A 
ATOM     25  C   UNL     1       7.433   4.847   1.913  0.00  0.00    +0.013 A 
ENDBRANCH  17  20
ENDBRANCH   2  16
BRANCH   2  26
ATOM     26  C   UNL     1       6.641   2.091   3.145  0.00  0.00    +0.086 C 
ATOM     27  O   UNL     1       7.827   1.713   2.908  0.00  0.00    -0.543 OA
ATOM     28  OXT UNL     1       6.112   2.476   4.226  0.00  0.00    -0.543 OA
ENDBRANCH   2  26
TORSDOF 6
