
 OpenBabel09132204463D

 28 30  0  0  0  0  0  0  0  0999 V2000
    8.4660   -3.2100    1.9390 C   0  0  0  0  0  2  0  0  0  0  0  0
    9.1280   -3.8050    0.9260 C   0  0  0  0  0  0  0  0  0  0  0  0
    9.8940   -0.8070    4.2180 C   0  0  0  0  0  0  0  0  0  0  0  0
   10.1430   -1.9500    4.9430 C   0  0  0  0  0  3  0  0  0  0  0  0
    9.6220   -3.0250    4.1830 C   0  0  0  0  0  3  0  0  0  0  0  0
    9.0800   -2.5040    3.0140 C   0  0  0  0  0  0  0  0  0  0  0  0
    9.2520   -1.1370    3.0630 O   0  0  0  0  0  0  0  0  0  0  0  0
   10.5540    1.1490    5.6470 C   0  0  0  0  0  0  0  0  0  0  0  0
   10.7460    2.5260    5.8120 C   0  0  0  0  0  3  0  0  0  0  0  0
   10.6030    3.3850    4.7240 C   0  0  0  0  0  3  0  0  0  0  0  0
   10.2580    2.8690    3.4770 C   0  0  0  0  0  3  0  0  0  0  0  0
   10.0410    1.4970    3.3220 C   0  0  0  0  0  3  0  0  0  0  0  0
   10.1690    0.6130    4.4070 C   0  0  0  0  0  0  0  0  0  0  0  0
    9.8780    0.8190    7.8130 C   0  0  0  0  0  1  0  0  0  0  0  0
   10.7290    0.3590    6.7590 O   0  0  0  0  0  0  0  0  0  0  0  0
   10.5140   -3.8080    0.8460 N   0  0  0  0  0  4  0  0  0  0  0  0
   11.3920   -3.1050    0.0550 C   0  0  0  0  0  0  0  0  0  0  0  0
   12.5790   -3.4440    0.0070 O   0  0  0  0  0  0  0  0  0  0  0  0
   10.9800   -4.4960    1.4270 H   0  0  0  0  0  0  0  0  0  0  0  0
   10.9940   -1.8890   -0.6820 C   0  0  0  0  0  0  0  0  0  0  0  0
   11.3130   -1.7970   -2.0430 C   0  0  0  0  0  3  0  0  0  0  0  0
   11.0200   -0.6300   -2.7500 C   0  0  0  0  0  3  0  0  0  0  0  0
   10.4280    0.4500   -2.0970 C   0  0  0  0  0  3  0  0  0  0  0  0
   10.1350    0.3690   -0.7340 C   0  0  0  0  0  3  0  0  0  0  0  0
   10.4300   -0.7940   -0.0220 C   0  0  0  0  0  3  0  0  0  0  0  0
    8.1580   -4.5500   -0.0360 C   0  0  0  0  0  0  0  0  0  0  0  0
    7.1140   -5.0150    0.5120 O   0  0  0  0  0  1  0  0  0  0  0  0
    8.5620   -4.6510   -1.2290 O   0  0  0  0  0  0  0  0  0  0  0  0
  1  6  1  0  0  0  0
  2  1  1  0  0  0  0
  3 13  1  0  0  0  0
  3  4  2  0  0  0  0
  5  4  1  0  0  0  0
  6  7  1  0  0  0  0
  6  5  2  0  0  0  0
  7  3  1  0  0  0  0
  8  9  1  0  0  0  0
  8 15  1  0  0  0  0
 10  9  2  0  0  0  0
 11 10  1  0  0  0  0
 12 11  2  0  0  0  0
 12 13  1  0  0  0  0
 13  8  2  0  0  0  0
 15 14  1  0  0  0  0
 16  2  2  0  0  0  0
 16 19  1  0  0  0  0
 17 16  1  0  0  0  0
 18 17  2  0  0  0  0
 20 25  1  0  0  0  0
 20 17  1  0  0  0  0
 21 20  2  0  0  0  0
 22 23  2  0  0  0  0
 22 21  1  0  0  0  0
 23 24  1  0  0  0  0
 24 25  2  0  0  0  0
 26 27  1  0  0  0  0
 26  2  1  0  0  0  0
 28 26  2  0  0  0  0
M  END
>  <minimizedAffinity>
-6.33925962

$$$$
