
 OpenBabel09132204463D

 28 30  0  0  0  0  0  0  0  0999 V2000
    8.9270   -2.8940    3.8720 C   0  0  0  0  0  2  0  0  0  0  0  0
    8.3960   -2.6930    2.6490 C   0  0  0  0  0  0  0  0  0  0  0  0
   10.3470    0.0860    5.3230 C   0  0  0  0  0  0  0  0  0  0  0  0
   10.9940   -0.8470    6.0990 C   0  0  0  0  0  3  0  0  0  0  0  0
   10.5350   -2.1140    5.6650 C   0  0  0  0  0  3  0  0  0  0  0  0
    9.6280   -1.9130    4.6300 C   0  0  0  0  0  0  0  0  0  0  0  0
    9.5230   -0.5510    4.4440 O   0  0  0  0  0  0  0  0  0  0  0  0
    9.6550    2.3620    6.1290 C   0  0  0  0  0  0  0  0  0  0  0  0
    9.6370    3.7530    5.9770 C   0  0  0  0  0  3  0  0  0  0  0  0
   10.3690    4.3530    4.9550 C   0  0  0  0  0  3  0  0  0  0  0  0
   11.1090    3.5610    4.0800 C   0  0  0  0  0  3  0  0  0  0  0  0
   11.1040    2.1700    4.2170 C   0  0  0  0  0  3  0  0  0  0  0  0
   10.3630    1.5430    5.2350 C   0  0  0  0  0  0  0  0  0  0  0  0
    8.1690    2.8820    7.7950 C   0  0  0  0  0  1  0  0  0  0  0  0
    8.9240    1.8400    7.1700 O   0  0  0  0  0  0  0  0  0  0  0  0
    8.5090   -1.4800    1.9820 N   0  0  0  0  0  4  0  0  0  0  0  0
    9.4350   -1.0060    1.0840 C   0  0  0  0  0  0  0  0  0  0  0  0
    9.4510    0.1950    0.7970 O   0  0  0  0  0  0  0  0  0  0  0  0
    7.8240   -0.7780    2.2410 H   0  0  0  0  0  0  0  0  0  0  0  0
   10.3710   -1.8960    0.3670 C   0  0  0  0  0  0  0  0  0  0  0  0
   11.1440   -2.7940    1.1130 C   0  0  0  0  0  3  0  0  0  0  0  0
   12.0930   -3.5940    0.4740 C   0  0  0  0  0  3  0  0  0  0  0  0
   12.2830   -3.4840   -0.9030 C   0  0  0  0  0  3  0  0  0  0  0  0
   11.5310   -2.5700   -1.6430 C   0  0  0  0  0  3  0  0  0  0  0  0
   10.5840   -1.7640   -1.0080 C   0  0  0  0  0  3  0  0  0  0  0  0
    7.7650   -3.9940    2.0730 C   0  0  0  0  0  0  0  0  0  0  0  0
    6.8280   -4.4860    2.7700 O   0  0  0  0  0  1  0  0  0  0  0  0
    8.3060   -4.4280    1.0170 O   0  0  0  0  0  0  0  0  0  0  0  0
  1  6  1  0  0  0  0
  2  1  1  0  0  0  0
  3  4  2  0  0  0  0
  5  4  1  0  0  0  0
  6  5  2  0  0  0  0
  7  6  1  0  0  0  0
  7  3  1  0  0  0  0
  8 15  1  0  0  0  0
  9  8  1  0  0  0  0
 10  9  2  0  0  0  0
 11 12  2  0  0  0  0
 11 10  1  0  0  0  0
 12 13  1  0  0  0  0
 13  3  1  0  0  0  0
 13  8  2  0  0  0  0
 15 14  1  0  0  0  0
 16 19  1  0  0  0  0
 16  2  2  0  0  0  0
 17 16  1  0  0  0  0
 18 17  2  0  0  0  0
 20 17  1  0  0  0  0
 20 21  1  0  0  0  0
 22 21  2  0  0  0  0
 23 22  1  0  0  0  0
 24 25  1  0  0  0  0
 24 23  2  0  0  0  0
 25 20  2  0  0  0  0
 26  2  1  0  0  0  0
 26 27  1  0  0  0  0
 28 26  2  0  0  0  0
M  END
>  <minimizedAffinity>
-6.44992542

$$$$
