
 OpenBabel09132204463D

 28 30  0  0  0  0  0  0  0  0999 V2000
    9.4570   -2.1820    4.2300 C   0  0  0  0  0  2  0  0  0  0  0  0
    9.7250   -0.9250    4.6400 C   0  0  0  0  0  0  0  0  0  0  0  0
   10.0000   -2.8350    0.7250 C   0  0  0  0  0  0  0  0  0  0  0  0
    8.8260   -3.5340    0.8840 C   0  0  0  0  0  3  0  0  0  0  0  0
    8.4600   -3.3950    2.2440 C   0  0  0  0  0  3  0  0  0  0  0  0
    9.4190   -2.6070    2.8700 C   0  0  0  0  0  0  0  0  0  0  0  0
   10.3600   -2.2820    1.9170 O   0  0  0  0  0  0  0  0  0  0  0  0
   10.9380   -1.3140   -1.0390 C   0  0  0  0  0  0  0  0  0  0  0  0
   11.7560   -1.1040   -2.1550 C   0  0  0  0  0  3  0  0  0  0  0  0
   12.5830   -2.1260   -2.6160 C   0  0  0  0  0  3  0  0  0  0  0  0
   12.5820   -3.3590   -1.9700 C   0  0  0  0  0  3  0  0  0  0  0  0
   11.7440   -3.5750   -0.8720 C   0  0  0  0  0  3  0  0  0  0  0  0
   10.8930   -2.5620   -0.3960 C   0  0  0  0  0  0  0  0  0  0  0  0
   10.7250    0.9680   -1.1120 C   0  0  0  0  0  1  0  0  0  0  0  0
   10.1610   -0.2560   -0.6280 O   0  0  0  0  0  0  0  0  0  0  0  0
    9.9720    0.1100    3.7470 N   0  0  0  0  0  4  0  0  0  0  0  0
   10.2770    1.4360    3.9390 C   0  0  0  0  0  0  0  0  0  0  0  0
   10.2310    2.2190    2.9840 O   0  0  0  0  0  0  0  0  0  0  0  0
    9.8450   -0.1230    2.7680 H   0  0  0  0  0  0  0  0  0  0  0  0
   10.7530    1.9610    5.2340 C   0  0  0  0  0  0  0  0  0  0  0  0
    9.8600    2.6870    6.0310 C   0  0  0  0  0  3  0  0  0  0  0  0
   10.2990    3.2620    7.2250 C   0  0  0  0  0  3  0  0  0  0  0  0
   11.6320    3.1280    7.6130 C   0  0  0  0  0  3  0  0  0  0  0  0
   12.5290    2.4280    6.8060 C   0  0  0  0  0  3  0  0  0  0  0  0
   12.0960    1.8550    5.6090 C   0  0  0  0  0  3  0  0  0  0  0  0
    9.6110   -0.7880    6.1860 C   0  0  0  0  0  0  0  0  0  0  0  0
   10.6700   -1.0610    6.8250 O   0  0  0  0  0  1  0  0  0  0  0  0
    8.4620   -0.4800    6.6110 O   0  0  0  0  0  0  0  0  0  0  0  0
  1  2  1  0  0  0  0
  2 26  1  0  0  0  0
  3  4  2  0  0  0  0
  3  7  1  0  0  0  0
  4  5  1  0  0  0  0
  5  6  2  0  0  0  0
  6  1  1  0  0  0  0
  7  6  1  0  0  0  0
  8 15  1  0  0  0  0
  8 13  1  0  0  0  0
  9  8  2  0  0  0  0
 10  9  1  0  0  0  0
 10 11  2  0  0  0  0
 11 12  1  0  0  0  0
 12 13  2  0  0  0  0
 13  3  1  0  0  0  0
 14 15  1  0  0  0  0
 16 17  1  0  0  0  0
 16  2  2  0  0  0  0
 17 20  1  0  0  0  0
 18 17  2  0  0  0  0
 19 16  1  0  0  0  0
 20 25  2  0  0  0  0
 20 21  1  0  0  0  0
 21 22  2  0  0  0  0
 22 23  1  0  0  0  0
 24 23  2  0  0  0  0
 25 24  1  0  0  0  0
 26 28  2  0  0  0  0
 26 27  1  0  0  0  0
M  END
>  <minimizedAffinity>
-6.00443602

$$$$
