REMARK  Name = 
REMARK  12 active torsions:
REMARK  status: ('A' for Active; 'I' for Inactive)
REMARK    1  A    between atoms: C_1  and  C_2
REMARK    2  A    between atoms: C_2  and  C_3
REMARK    3  A    between atoms: C_2  and  C_4
REMARK    4  A    between atoms: C_4  and  C_5
REMARK    5  A    between atoms: C_5  and  N_6
REMARK    6  A    between atoms: C_9  and  C_10
REMARK    7  A    between atoms: C_17  and  N_18
REMARK    8  A    between atoms: N_18  and  S_19
REMARK    9  A    between atoms: S_19  and  N_22
REMARK   10  A    between atoms: N_22  and  C_23
REMARK   11  A    between atoms: C_27  and  C_28
REMARK   12  A    between atoms: C_36  and  O_37
REMARK                            x       y       z     vdW  Elec       q    Type
REMARK                         _______ _______ _______ _____ _____    ______ ____
ROOT
ATOM      1  C   UNL     1      -1.403  -3.132   0.653  0.00  0.00    +0.308 C 
ATOM      2  N   UNL     1      -2.707  -3.037   0.582  0.00  0.00    -0.131 N 
ATOM      3  S   UNL     1      -3.512  -1.910  -0.216  0.00  0.00    +0.141 S 
ATOM      4  O   UNL     1      -4.474  -2.496  -1.129  0.00  0.00    -0.129 OA
ATOM      5  O   UNL     1      -4.007  -0.937   0.747  0.00  0.00    -0.129 OA
ATOM      6  C   UNL     1      -2.334  -1.010  -1.160  0.00  0.00    +0.176 A 
ATOM      7  C   UNL     1      -2.763  -0.156  -2.176  0.00  0.00    +0.059 A 
ATOM      8  C   UNL     1      -1.806   0.563  -2.883  0.00  0.00    +0.051 A 
ATOM      9  C   UNL     1      -0.466   0.526  -2.493  0.00  0.00    +0.028 A 
ATOM     10  C   UNL     1      -0.058  -0.347  -1.483  0.00  0.00    +0.053 A 
ATOM     11  C   UNL     1      -0.988  -1.179  -0.859  0.00  0.00    +0.148 A 
ATOM     12  N   UNL     1      -0.574  -2.174   0.019  0.00  0.00    -0.200 N 
ATOM     13  H   UNL     1      -3.257  -3.714   1.089  0.00  0.00    +0.339 HD
ATOM     14  H   UNL     1       0.422  -2.391   0.047  0.00  0.00    +0.298 HD
ENDROOT
BRANCH   1  18
ATOM     15  N   UNL     1      -0.841  -4.569   3.948  0.00  0.00    -0.292 N 
ATOM     16  C   UNL     1      -1.572  -4.462   2.780  0.00  0.00    +0.271 A 
ATOM     17  O   UNL     1      -2.802  -4.381   2.741  0.00  0.00    -0.267 OA
ATOM     18  C   UNL     1      -0.779  -4.161   1.548  0.00  0.00    +0.170 A 
ATOM     19  C   UNL     1       0.511  -4.538   1.523  0.00  0.00    +0.148 A 
ATOM     20  C   UNL     1       1.129  -5.166   2.697  0.00  0.00    +0.060 A 
ATOM     21  C   UNL     1       2.402  -5.741   2.668  0.00  0.00    +0.016 A 
ATOM     22  C   UNL     1       2.986  -6.180   3.851  0.00  0.00    +0.021 A 
ATOM     23  C   UNL     1       2.284  -6.005   5.030  0.00  0.00    +0.113 A 
ATOM     24  N   UNL     1       1.053  -5.454   5.097  0.00  0.00    -0.237 NA
ATOM     25  C   UNL     1       0.481  -5.068   3.931  0.00  0.00    +0.147 A 
BRANCH  19  26
ATOM     26  O   UNL     1       1.373  -4.263   0.480  0.00  0.00    -0.505 OA
ATOM     27  H   UNL     1       0.902  -4.452  -0.391  0.00  0.00    +0.292 HD
ENDBRANCH  19  26
BRANCH  15  28
ATOM     28  C   UNL     1      -1.404  -4.044   5.185  0.00  0.00    +0.127 C 
BRANCH  28  29
ATOM     29  C   UNL     1      -1.650  -2.517   5.086  0.00  0.00    +0.025 C 
BRANCH  29  31
ATOM     30  C   UNL     1      -0.906  -0.272   4.191  0.00  0.00    +0.007 C 
ATOM     31  C   UNL     1      -0.450  -1.679   4.587  0.00  0.00    -0.016 C 
ATOM     32  C   UNL     1       0.666  -1.596   5.625  0.00  0.00    +0.007 C 
ENDBRANCH  29  31
ENDBRANCH  28  29
ENDBRANCH  15  28
ENDBRANCH   1  18
BRANCH   8  33
ATOM     33  N   UNL     1      -2.146   1.278  -4.073  0.00  0.00    -0.204 N 
ATOM     34  H   UNL     1      -2.972   1.863  -3.929  0.00  0.00    +0.175 HD
BRANCH  33  35
ATOM     35  S   UNL     1      -2.508   0.342  -5.447  0.00  0.00    +0.124 S 
ATOM     36  O   UNL     1      -3.452  -0.685  -5.089  0.00  0.00    -0.135 OA
ATOM     37  O   UNL     1      -2.852   1.319  -6.458  0.00  0.00    -0.135 OA
BRANCH  35  38
ATOM     38  N   UNL     1      -1.047  -0.292  -5.924  0.00  0.00    -0.204 N 
ATOM     39  H   UNL     1      -0.526   0.394  -6.464  0.00  0.00    +0.175 HD
BRANCH  38  40
ATOM     40  C   UNL     1      -0.270  -1.247  -5.199  0.00  0.00    +0.050 A 
ATOM     41  C   UNL     1       1.118  -1.189  -5.384  0.00  0.00    +0.024 A 
ATOM     42  C   UNL     1       1.968  -2.055  -4.698  0.00  0.00    +0.002 A 
ATOM     43  C   UNL     1       1.435  -2.986  -3.810  0.00  0.00    +0.010 A 
ATOM     44  C   UNL     1       0.046  -3.089  -3.625  0.00  0.00    -0.001 A 
ATOM     45  C   UNL     1      -0.801  -2.250  -4.383  0.00  0.00    +0.034 A 
BRANCH  44  46
ATOM     46  C   UNL     1      -0.509  -3.982  -2.537  0.00  0.00    +0.072 C 
ATOM     47  O   UNL     1       0.330  -4.530  -1.741  0.00  0.00    -0.545 OA
ATOM     48  O   UNL     1      -1.766  -4.021  -2.366  0.00  0.00    -0.545 OA
ENDBRANCH  44  46
ENDBRANCH  38  40
ENDBRANCH  35  38
ENDBRANCH  33  35
ENDBRANCH   8  33
TORSDOF 10
