
 OpenBabel09122222393D

 48 52  0  0  1  0  0  0  0  0999 V2000
    1.0220   -9.5630    6.0620 C   0  0  1  0  0  3  0  0  0  0  0  0
    1.9490   -9.2680    6.9390 N   0  0  0  0  0  0  0  0  0  0  0  0
    3.4730   -8.9280    6.5970 S   0  0  0  0  0  0  0  0  0  0  0  0
    3.8770   -7.6670    7.1860 O   0  0  0  0  0  0  0  0  0  0  0  0
    4.2790  -10.1010    6.9030 O   0  0  0  0  0  0  0  0  0  0  0  0
    3.5860   -8.7810    4.8490 C   0  0  0  0  0  0  0  0  0  0  0  0
    4.7180   -8.2090    4.2710 C   0  0  0  0  0  3  0  0  0  0  0  0
    4.7880   -8.1350    2.8850 C   0  0  0  0  0  0  0  0  0  0  0  0
    3.8060   -8.7400    2.0970 C   0  0  0  0  0  3  0  0  0  0  0  0
    2.6750   -9.2940    2.6970 C   0  0  0  0  0  3  0  0  0  0  0  0
    2.5250   -9.2500    4.0840 C   0  0  0  0  0  0  0  0  0  0  0  0
    1.3310   -9.6360    4.6820 N   0  0  0  0  0  0  0  0  0  0  0  0
    1.6930   -9.2750    7.9150 H   0  0  0  0  0  0  0  0  0  0  0  0
    0.5240   -9.7720    4.0740 H   0  0  0  0  0  0  0  0  0  0  0  0
   -2.6080   -9.4570    5.8360 N   0  0  0  0  0  0  0  0  0  0  0  0
   -1.3840   -9.9810    5.4640 C   0  0  0  0  0  0  0  0  0  0  0  0
   -1.0610  -10.2160    4.2970 O   0  0  0  0  0  0  0  0  0  0  0  0
   -0.3370   -9.9930    6.5310 C   0  0  2  0  0  3  0  0  0  0  0  0
   -0.7440  -10.0320    7.8120 C   0  0  2  0  0  3  0  0  0  0  0  0
   -2.1740   -9.9980    8.1420 C   0  0  0  0  0  0  0  0  0  0  0  0
   -2.6590  -10.2200    9.4340 C   0  0  0  0  0  3  0  0  0  0  0  0
   -4.0090  -10.0220    9.7050 C   0  0  0  0  0  3  0  0  0  0  0  0
   -4.8240   -9.5840    8.6770 C   0  0  0  0  0  3  0  0  0  0  0  0
   -4.3910   -9.3590    7.4180 N   0  0  0  0  0  0  0  0  0  0  0  0
   -3.0820   -9.5950    7.1600 C   0  0  0  0  0  0  0  0  0  0  0  0
    0.1120   -9.9790    8.8940 O   0  0  0  0  0  0  0  0  0  0  0  0
    0.8940  -10.5920    8.7220 H   0  0  0  0  0  0  0  0  0  0  0  0
   -3.3530   -8.6500    4.8780 C   0  0  0  0  0  2  0  0  0  0  0  0
   -2.4220   -7.6530    4.1410 C   0  0  0  0  0  2  0  0  0  0  0  0
   -2.9040   -6.2280    6.1730 C   0  0  0  0  0  1  0  0  0  0  0  0
   -1.9880   -6.4160    4.9610 C   0  0  0  0  0  3  0  0  0  0  0  0
   -0.5320   -6.5060    5.4110 C   0  0  0  0  0  1  0  0  0  0  0  0
    5.8020   -7.3670    2.2330 N   0  0  0  0  0  0  0  0  0  0  0  0
    6.6510   -7.3200    2.8000 H   0  0  0  0  0  0  0  0  0  0  0  0
    5.4220   -5.7470    1.8800 S   0  0  0  0  0  0  0  0  0  0  0  0
    6.5640   -4.9170    2.1630 O   0  0  0  0  0  0  0  0  0  0  0  0
    4.8790   -5.7960    0.5400 O   0  0  0  0  0  0  0  0  0  0  0  0
    4.1320   -5.3900    2.8670 N   0  0  0  0  0  0  0  0  0  0  0  0
    3.5270   -6.2020    2.9610 H   0  0  0  0  0  0  0  0  0  0  0  0
    4.1450   -4.4820    3.9690 C   0  0  0  0  0  0  0  0  0  0  0  0
    3.0850   -3.5660    4.0330 C   0  0  0  0  0  3  0  0  0  0  0  0
    2.9870   -2.6590    5.0860 C   0  0  0  0  0  3  0  0  0  0  0  0
    3.9480   -2.6640    6.0940 C   0  0  0  0  0  3  0  0  0  0  0  0
    5.0380   -3.5480    6.0430 C   0  0  0  0  0  0  0  0  0  0  0  0
    5.1570   -4.4110    4.9310 C   0  0  0  0  0  3  0  0  0  0  0  0
    5.9780   -3.6620    7.2230 C   0  0  0  0  0  0  0  0  0  0  0  0
    6.4270   -2.5730    7.7240 O   0  0  0  0  0  0  0  0  0  0  0  0
    6.1500   -4.8010    7.7550 O   0  0  0  0  0  1  0  0  0  0  0  0
  1 12  1  1  0  0  0
  1 18  1  0  0  0  0
  1  2  1  0  0  0  0
  2 13  1  0  0  0  0
  3  5  2  0  0  0  0
  3  2  1  0  0  0  0
  3  4  2  0  0  0  0
  6  3  1  0  0  0  0
  7  6  1  0  0  0  0
  8  7  2  0  0  0  0
  9 10  2  0  0  0  0
  9  8  1  0  0  0  0
 10 11  1  0  0  0  0
 11 12  1  0  0  0  0
 11  6  2  0  0  0  0
 14 12  1  0  0  0  0
 15 25  1  0  0  0  0
 16 15  1  0  0  0  0
 17 16  2  0  0  0  0
 18 16  1  6  0  0  0
 18 19  1  0  0  0  0
 19 20  1  0  0  0  0
 19 26  1  1  0  0  0
 20 21  1  0  0  0  0
 21 22  2  0  0  0  0
 23 22  1  0  0  0  0
 24 23  2  0  0  0  0
 25 24  1  0  0  0  0
 25 20  2  0  0  0  0
 27 26  1  0  0  0  0
 28 15  1  0  0  0  0
 29 28  1  0  0  0  0
 29 31  1  0  0  0  0
 31 32  1  0  0  0  0
 31 30  1  0  0  0  0
 33 34  1  0  0  0  0
 33  8  1  0  0  0  0
 35 36  2  0  0  0  0
 35 33  1  0  0  0  0
 35 38  1  0  0  0  0
 37 35  2  0  0  0  0
 38 39  1  0  0  0  0
 38 40  1  0  0  0  0
 40 41  2  0  0  0  0
 40 45  1  0  0  0  0
 41 42  1  0  0  0  0
 42 43  2  0  0  0  0
 44 43  1  0  0  0  0
 44 46  1  0  0  0  0
 45 44  2  0  0  0  0
 46 47  2  0  0  0  0
 46 48  1  0  0  0  0
M  END
>  <minimizedAffinity>
-5.88268423

$$$$
