
 OpenBabel09122220203D

 48 52  0  0  1  0  0  0  0  0999 V2000
    1.1860   -9.6200    5.6080 C   0  0  1  0  0  3  0  0  0  0  0  0
    2.0740   -9.0090    6.3520 N   0  0  0  0  0  0  0  0  0  0  0  0
    3.5630   -8.6410    5.9030 S   0  0  0  0  0  0  0  0  0  0  0  0
    3.8430   -7.2340    6.1130 O   0  0  0  0  0  0  0  0  0  0  0  0
    4.4710   -9.6030    6.5080 O   0  0  0  0  0  0  0  0  0  0  0  0
    3.6770   -8.9750    4.1810 C   0  0  0  0  0  0  0  0  0  0  0  0
    4.7570   -8.4840    3.4480 C   0  0  0  0  0  3  0  0  0  0  0  0
    4.8310   -8.7930    2.0940 C   0  0  0  0  0  0  0  0  0  0  0  0
    3.9170   -9.6790    1.5220 C   0  0  0  0  0  3  0  0  0  0  0  0
    2.8360  -10.1460    2.2720 C   0  0  0  0  0  3  0  0  0  0  0  0
    2.6710   -9.7320    3.5940 C   0  0  0  0  0  0  0  0  0  0  0  0
    1.5120  -10.0440    4.2960 N   0  0  0  0  0  0  0  0  0  0  0  0
    1.8120   -8.7690    7.2960 H   0  0  0  0  0  0  0  0  0  0  0  0
    0.7270  -10.4170    3.7640 H   0  0  0  0  0  0  0  0  0  0  0  0
   -2.4460   -9.4390    5.7230 N   0  0  0  0  0  0  0  0  0  0  0  0
   -1.2740   -9.9850    5.2360 C   0  0  0  0  0  0  0  0  0  0  0  0
   -1.0660  -10.2210    4.0440 O   0  0  0  0  0  0  0  0  0  0  0  0
   -0.1310  -10.0240    6.2010 C   0  0  2  0  0  3  0  0  0  0  0  0
   -0.4170  -10.0620    7.5130 C   0  0  2  0  0  3  0  0  0  0  0  0
   -1.8090  -10.0020    7.9770 C   0  0  0  0  0  0  0  0  0  0  0  0
   -2.1750  -10.2200    9.3070 C   0  0  0  0  0  3  0  0  0  0  0  0
   -3.4890   -9.9970    9.7050 C   0  0  0  0  0  3  0  0  0  0  0  0
   -4.3880   -9.5360    8.7600 C   0  0  0  0  0  3  0  0  0  0  0  0
   -4.0700   -9.3140    7.4660 N   0  0  0  0  0  0  0  0  0  0  0  0
   -2.7960   -9.5740    7.0860 C   0  0  0  0  0  0  0  0  0  0  0  0
    0.5370  -10.0320    8.5100 O   0  0  0  0  0  0  0  0  0  0  0  0
    1.2870  -10.6600    8.2640 H   0  0  0  0  0  0  0  0  0  0  0  0
   -3.2610   -8.6130    4.8420 C   0  0  0  0  0  2  0  0  0  0  0  0
   -2.5220   -7.3060    4.4570 C   0  0  0  0  0  2  0  0  0  0  0  0
   -3.6270   -6.2170    6.4530 C   0  0  0  0  0  1  0  0  0  0  0  0
   -2.3610   -6.2700    5.5940 C   0  0  0  0  0  3  0  0  0  0  0  0
   -1.1450   -6.5600    6.4690 C   0  0  0  0  0  1  0  0  0  0  0  0
    5.7760   -8.1470    1.2380 N   0  0  0  0  0  0  0  0  0  0  0  0
    6.4630   -7.6170    1.7790 H   0  0  0  0  0  0  0  0  0  0  0  0
    5.1490   -7.0300    0.1170 S   0  0  0  0  0  0  0  0  0  0  0  0
    5.6920   -7.3090   -1.1870 O   0  0  0  0  0  0  0  0  0  0  0  0
    3.7190   -7.0820    0.3310 O   0  0  0  0  0  0  0  0  0  0  0  0
    5.6280   -5.5440    0.6880 N   0  0  0  0  0  0  0  0  0  0  0  0
    5.6790   -4.8740   -0.0760 H   0  0  0  0  0  0  0  0  0  0  0  0
    5.3370   -5.0070    1.9800 C   0  0  0  0  0  0  0  0  0  0  0  0
    6.4120   -4.4340    2.6720 C   0  0  0  0  0  3  0  0  0  0  0  0
    6.2280   -3.8540    3.9260 C   0  0  0  0  0  3  0  0  0  0  0  0
    4.9580   -3.8340    4.4980 C   0  0  0  0  0  3  0  0  0  0  0  0
    3.8660   -4.4270    3.8420 C   0  0  0  0  0  0  0  0  0  0  0  0
    4.0890   -5.0720    2.6050 C   0  0  0  0  0  3  0  0  0  0  0  0
    2.4670   -4.2500    4.3900 C   0  0  0  0  0  0  0  0  0  0  0  0
    1.7990   -5.3100    4.6510 O   0  0  0  0  0  0  0  0  0  0  0  0
    2.0830   -3.0840    4.7120 O   0  0  0  0  0  1  0  0  0  0  0  0
  1 12  1  1  0  0  0
  1 18  1  0  0  0  0
  1  2  1  0  0  0  0
  2 13  1  0  0  0  0
  3  4  2  0  0  0  0
  3  2  1  0  0  0  0
  3  5  2  0  0  0  0
  6  3  1  0  0  0  0
  7  6  2  0  0  0  0
  8  7  1  0  0  0  0
  9  8  2  0  0  0  0
  9 10  1  0  0  0  0
 10 11  2  0  0  0  0
 11  6  1  0  0  0  0
 11 12  1  0  0  0  0
 14 12  1  0  0  0  0
 15 25  1  0  0  0  0
 16 15  1  0  0  0  0
 17 16  2  0  0  0  0
 18 16  1  6  0  0  0
 18 19  1  0  0  0  0
 19 20  1  0  0  0  0
 19 26  1  1  0  0  0
 20 21  1  0  0  0  0
 21 22  2  0  0  0  0
 23 22  1  0  0  0  0
 24 23  2  0  0  0  0
 25 24  1  0  0  0  0
 25 20  2  0  0  0  0
 27 26  1  0  0  0  0
 28 15  1  0  0  0  0
 29 28  1  0  0  0  0
 29 31  1  0  0  0  0
 31 30  1  0  0  0  0
 31 32  1  0  0  0  0
 33 34  1  0  0  0  0
 33  8  1  0  0  0  0
 35 37  2  0  0  0  0
 35 38  1  0  0  0  0
 35 33  1  0  0  0  0
 36 35  2  0  0  0  0
 38 40  1  0  0  0  0
 39 38  1  0  0  0  0
 40 45  2  0  0  0  0
 40 41  1  0  0  0  0
 41 42  2  0  0  0  0
 42 43  1  0  0  0  0
 44 46  1  0  0  0  0
 44 43  2  0  0  0  0
 45 44  1  0  0  0  0
 46 47  2  0  0  0  0
 46 48  1  0  0  0  0
M  END
>  <minimizedAffinity>
-6.10623407

$$$$

 OpenBabel09122220203D

 48 52  0  0  1  0  0  0  0  0999 V2000
    2.9160   -7.4200    5.4010 C   0  0  1  0  0  3  0  0  0  0  0  0
    3.3220   -7.9370    6.5330 N   0  0  0  0  0  0  0  0  0  0  0  0
    2.4480   -8.0500    7.8660 S   0  0  0  0  0  0  0  0  0  0  0  0
    2.4270   -9.4100    8.3690 O   0  0  0  0  0  0  0  0  0  0  0  0
    2.8780   -7.0030    8.7820 O   0  0  0  0  0  0  0  0  0  0  0  0
    0.8050   -7.5940    7.4420 C   0  0  0  0  0  0  0  0  0  0  0  0
   -0.2430   -7.8700    8.3210 C   0  0  0  0  0  3  0  0  0  0  0  0
   -1.5260   -7.4690    7.9670 C   0  0  0  0  0  0  0  0  0  0  0  0
   -1.7320   -6.6940    6.8240 C   0  0  0  0  0  3  0  0  0  0  0  0
   -0.6710   -6.4430    5.9520 C   0  0  0  0  0  3  0  0  0  0  0  0
    0.5960   -6.9600    6.2240 C   0  0  0  0  0  0  0  0  0  0  0  0
    1.6160   -6.8700    5.2840 N   0  0  0  0  0  0  0  0  0  0  0  0
    4.2720   -8.2740    6.5830 H   0  0  0  0  0  0  0  0  0  0  0  0
    1.3600   -6.5850    4.3390 H   0  0  0  0  0  0  0  0  0  0  0  0
    4.7590   -5.3280    3.0640 N   0  0  0  0  0  0  0  0  0  0  0  0
    4.6330   -5.9600    4.2860 C   0  0  0  0  0  0  0  0  0  0  0  0
    4.8940   -5.4290    5.3680 O   0  0  0  0  0  0  0  0  0  0  0  0
    3.8850   -7.2550    4.2680 C   0  0  2  0  0  3  0  0  0  0  0  0
    3.8730   -7.9580    3.1220 C   0  0  2  0  0  3  0  0  0  0  0  0
    4.5210   -7.4310    1.9150 C   0  0  0  0  0  0  0  0  0  0  0  0
    4.6990   -8.1910    0.7560 C   0  0  0  0  0  3  0  0  0  0  0  0
    5.1820   -7.5840   -0.3980 C   0  0  0  0  0  3  0  0  0  0  0  0
    5.4470   -6.2270   -0.3590 C   0  0  0  0  0  3  0  0  0  0  0  0
    5.2870   -5.4610    0.7410 N   0  0  0  0  0  0  0  0  0  0  0  0
    4.8540   -6.0750    1.8680 C   0  0  0  0  0  0  0  0  0  0  0  0
    3.1670   -9.1320    2.9460 O   0  0  0  0  0  0  0  0  0  0  0  0
    3.3040   -9.7190    3.7540 H   0  0  0  0  0  0  0  0  0  0  0  0
    4.6680   -3.8750    3.0070 C   0  0  0  0  0  2  0  0  0  0  0  0
    4.4200   -3.2720    4.4130 C   0  0  0  0  0  2  0  0  0  0  0  0
    1.9220   -3.6640    4.4250 C   0  0  0  0  0  1  0  0  0  0  0  0
    3.0310   -2.6280    4.6280 C   0  0  0  0  0  3  0  0  0  0  0  0
    2.9020   -1.9830    6.0050 C   0  0  0  0  0  1  0  0  0  0  0  0
   -2.6700   -7.9110    8.7010 N   0  0  0  0  0  0  0  0  0  0  0  0
   -2.6370   -7.5820    9.6690 H   0  0  0  0  0  0  0  0  0  0  0  0
   -2.8960   -9.5930    8.8200 S   0  0  0  0  0  0  0  0  0  0  0  0
   -1.6440  -10.2200    9.1580 O   0  0  0  0  0  0  0  0  0  0  0  0
   -4.0360   -9.7340    9.7000 O   0  0  0  0  0  0  0  0  0  0  0  0
   -3.4380  -10.0540    7.3170 N   0  0  0  0  0  0  0  0  0  0  0  0
   -4.4530  -10.1150    7.3140 H   0  0  0  0  0  0  0  0  0  0  0  0
   -2.8210   -9.7360    6.0680 C   0  0  0  0  0  0  0  0  0  0  0  0
   -3.5610   -8.9270    5.1960 C   0  0  0  0  0  3  0  0  0  0  0  0
   -3.0360   -8.5320    3.9670 C   0  0  0  0  0  3  0  0  0  0  0  0
   -1.7560   -8.9390    3.6000 C   0  0  0  0  0  3  0  0  0  0  0  0
   -1.0000   -9.7750    4.4400 C   0  0  0  0  0  0  0  0  0  0  0  0
   -1.5790  -10.2210    5.6490 C   0  0  0  0  0  3  0  0  0  0  0  0
    0.4480  -10.0690    4.1110 C   0  0  0  0  0  0  0  0  0  0  0  0
    0.7820  -10.0690    2.8760 O   0  0  0  0  0  0  0  0  0  0  0  0
    1.2830  -10.1430    5.0630 O   0  0  0  0  0  1  0  0  0  0  0  0
  1 12  1  1  0  0  0
  1  2  1  0  0  0  0
  2 13  1  0  0  0  0
  2  3  1  0  0  0  0
  3  4  2  0  0  0  0
  3  5  2  0  0  0  0
  6  3  1  0  0  0  0
  6  7  1  0  0  0  0
  8  7  2  0  0  0  0
  8 33  1  0  0  0  0
  9  8  1  0  0  0  0
 10 11  1  0  0  0  0
 10  9  2  0  0  0  0
 11  6  2  0  0  0  0
 12 11  1  0  0  0  0
 14 12  1  0  0  0  0
 15 16  1  0  0  0  0
 16 17  2  0  0  0  0
 18 16  1  6  0  0  0
 18  1  1  0  0  0  0
 19 26  1  6  0  0  0
 19 18  1  0  0  0  0
 20 19  1  0  0  0  0
 21 20  2  0  0  0  0
 22 23  2  0  0  0  0
 22 21  1  0  0  0  0
 23 24  1  0  0  0  0
 24 25  2  0  0  0  0
 25 20  1  0  0  0  0
 25 15  1  0  0  0  0
 26 27  1  0  0  0  0
 28 15  1  0  0  0  0
 28 29  1  0  0  0  0
 29 31  1  0  0  0  0
 30 31  1  0  0  0  0
 31 32  1  0  0  0  0
 33 35  1  0  0  0  0
 33 34  1  0  0  0  0
 35 36  2  0  0  0  0
 35 37  2  0  0  0  0
 38 35  1  0  0  0  0
 39 38  1  0  0  0  0
 40 38  1  0  0  0  0
 41 40  2  0  0  0  0
 42 41  1  0  0  0  0
 43 42  2  0  0  0  0
 43 44  1  0  0  0  0
 44 45  2  0  0  0  0
 45 40  1  0  0  0  0
 46 44  1  0  0  0  0
 46 48  1  0  0  0  0
 47 46  2  0  0  0  0
M  END
>  <minimizedAffinity>
-5.93959999

$$$$

 OpenBabel09122220203D

 48 52  0  0  1  0  0  0  0  0999 V2000
    1.0220   -9.5630    6.0620 C   0  0  1  0  0  3  0  0  0  0  0  0
    1.9490   -9.2680    6.9390 N   0  0  0  0  0  0  0  0  0  0  0  0
    3.4730   -8.9280    6.5970 S   0  0  0  0  0  0  0  0  0  0  0  0
    3.8770   -7.6670    7.1860 O   0  0  0  0  0  0  0  0  0  0  0  0
    4.2790  -10.1010    6.9030 O   0  0  0  0  0  0  0  0  0  0  0  0
    3.5860   -8.7810    4.8490 C   0  0  0  0  0  0  0  0  0  0  0  0
    4.7180   -8.2090    4.2710 C   0  0  0  0  0  3  0  0  0  0  0  0
    4.7880   -8.1350    2.8850 C   0  0  0  0  0  0  0  0  0  0  0  0
    3.8060   -8.7400    2.0970 C   0  0  0  0  0  3  0  0  0  0  0  0
    2.6750   -9.2940    2.6970 C   0  0  0  0  0  3  0  0  0  0  0  0
    2.5250   -9.2500    4.0840 C   0  0  0  0  0  0  0  0  0  0  0  0
    1.3310   -9.6360    4.6820 N   0  0  0  0  0  0  0  0  0  0  0  0
    1.6930   -9.2750    7.9150 H   0  0  0  0  0  0  0  0  0  0  0  0
    0.5240   -9.7720    4.0740 H   0  0  0  0  0  0  0  0  0  0  0  0
   -2.6080   -9.4570    5.8360 N   0  0  0  0  0  0  0  0  0  0  0  0
   -1.3840   -9.9810    5.4640 C   0  0  0  0  0  0  0  0  0  0  0  0
   -1.0610  -10.2160    4.2970 O   0  0  0  0  0  0  0  0  0  0  0  0
   -0.3370   -9.9930    6.5310 C   0  0  2  0  0  3  0  0  0  0  0  0
   -0.7440  -10.0320    7.8120 C   0  0  2  0  0  3  0  0  0  0  0  0
   -2.1740   -9.9980    8.1420 C   0  0  0  0  0  0  0  0  0  0  0  0
   -2.6590  -10.2200    9.4340 C   0  0  0  0  0  3  0  0  0  0  0  0
   -4.0090  -10.0220    9.7050 C   0  0  0  0  0  3  0  0  0  0  0  0
   -4.8240   -9.5840    8.6770 C   0  0  0  0  0  3  0  0  0  0  0  0
   -4.3910   -9.3590    7.4180 N   0  0  0  0  0  0  0  0  0  0  0  0
   -3.0820   -9.5950    7.1600 C   0  0  0  0  0  0  0  0  0  0  0  0
    0.1120   -9.9790    8.8940 O   0  0  0  0  0  0  0  0  0  0  0  0
    0.8940  -10.5920    8.7220 H   0  0  0  0  0  0  0  0  0  0  0  0
   -3.3530   -8.6500    4.8780 C   0  0  0  0  0  2  0  0  0  0  0  0
   -2.4220   -7.6530    4.1410 C   0  0  0  0  0  2  0  0  0  0  0  0
   -2.9040   -6.2280    6.1730 C   0  0  0  0  0  1  0  0  0  0  0  0
   -1.9880   -6.4160    4.9610 C   0  0  0  0  0  3  0  0  0  0  0  0
   -0.5320   -6.5060    5.4110 C   0  0  0  0  0  1  0  0  0  0  0  0
    5.8020   -7.3670    2.2330 N   0  0  0  0  0  0  0  0  0  0  0  0
    6.6510   -7.3200    2.8000 H   0  0  0  0  0  0  0  0  0  0  0  0
    5.4220   -5.7470    1.8800 S   0  0  0  0  0  0  0  0  0  0  0  0
    6.5640   -4.9170    2.1630 O   0  0  0  0  0  0  0  0  0  0  0  0
    4.8790   -5.7960    0.5400 O   0  0  0  0  0  0  0  0  0  0  0  0
    4.1320   -5.3900    2.8670 N   0  0  0  0  0  0  0  0  0  0  0  0
    3.5270   -6.2020    2.9610 H   0  0  0  0  0  0  0  0  0  0  0  0
    4.1450   -4.4820    3.9690 C   0  0  0  0  0  0  0  0  0  0  0  0
    3.0850   -3.5660    4.0330 C   0  0  0  0  0  3  0  0  0  0  0  0
    2.9870   -2.6590    5.0860 C   0  0  0  0  0  3  0  0  0  0  0  0
    3.9480   -2.6640    6.0940 C   0  0  0  0  0  3  0  0  0  0  0  0
    5.0380   -3.5480    6.0430 C   0  0  0  0  0  0  0  0  0  0  0  0
    5.1570   -4.4110    4.9310 C   0  0  0  0  0  3  0  0  0  0  0  0
    5.9780   -3.6620    7.2230 C   0  0  0  0  0  0  0  0  0  0  0  0
    6.4270   -2.5730    7.7240 O   0  0  0  0  0  0  0  0  0  0  0  0
    6.1500   -4.8010    7.7550 O   0  0  0  0  0  1  0  0  0  0  0  0
  1 12  1  1  0  0  0
  1 18  1  0  0  0  0
  1  2  1  0  0  0  0
  2 13  1  0  0  0  0
  3  5  2  0  0  0  0
  3  2  1  0  0  0  0
  3  4  2  0  0  0  0
  6  3  1  0  0  0  0
  7  6  1  0  0  0  0
  8  7  2  0  0  0  0
  9 10  2  0  0  0  0
  9  8  1  0  0  0  0
 10 11  1  0  0  0  0
 11 12  1  0  0  0  0
 11  6  2  0  0  0  0
 14 12  1  0  0  0  0
 15 25  1  0  0  0  0
 16 15  1  0  0  0  0
 17 16  2  0  0  0  0
 18 16  1  6  0  0  0
 18 19  1  0  0  0  0
 19 20  1  0  0  0  0
 19 26  1  1  0  0  0
 20 21  1  0  0  0  0
 21 22  2  0  0  0  0
 23 22  1  0  0  0  0
 24 23  2  0  0  0  0
 25 24  1  0  0  0  0
 25 20  2  0  0  0  0
 27 26  1  0  0  0  0
 28 15  1  0  0  0  0
 29 28  1  0  0  0  0
 29 31  1  0  0  0  0
 31 32  1  0  0  0  0
 31 30  1  0  0  0  0
 33 34  1  0  0  0  0
 33  8  1  0  0  0  0
 35 36  2  0  0  0  0
 35 33  1  0  0  0  0
 35 38  1  0  0  0  0
 37 35  2  0  0  0  0
 38 39  1  0  0  0  0
 38 40  1  0  0  0  0
 40 41  2  0  0  0  0
 40 45  1  0  0  0  0
 41 42  1  0  0  0  0
 42 43  2  0  0  0  0
 44 43  1  0  0  0  0
 44 46  1  0  0  0  0
 45 44  2  0  0  0  0
 46 47  2  0  0  0  0
 46 48  1  0  0  0  0
M  END
>  <minimizedAffinity>
-5.88268423

$$$$

 OpenBabel09122220203D

 48 52  0  0  1  0  0  0  0  0999 V2000
    5.2120   -3.9040    6.1990 C   0  0  0  0  0  0  0  0  0  0  0  0
    4.3060   -4.8350    6.3590 N   0  0  0  0  0  0  0  0  0  0  0  0
    3.8170   -5.8570    5.2320 S   0  0  0  0  0  0  0  0  0  0  0  0
    3.9150   -7.2300    5.6870 O   0  0  0  0  0  0  0  0  0  0  0  0
    2.5260   -5.4040    4.7360 O   0  0  0  0  0  0  0  0  0  0  0  0
    4.8930   -5.6550    3.8560 C   0  0  0  0  0  0  0  0  0  0  0  0
    4.9020   -6.6050    2.8350 C   0  0  0  0  0  3  0  0  0  0  0  0
    5.7430   -6.3980    1.7470 C   0  0  0  0  0  0  0  0  0  0  0  0
    6.4580   -5.2050    1.6260 C   0  0  0  0  0  3  0  0  0  0  0  0
    6.4460   -4.2760    2.6680 C   0  0  0  0  0  3  0  0  0  0  0  0
    5.7150   -4.5350    3.8280 C   0  0  0  0  0  0  0  0  0  0  0  0
    5.8320   -3.7090    4.9400 N   0  0  0  0  0  0  0  0  0  0  0  0
    3.8570   -4.9060    7.2600 H   0  0  0  0  0  0  0  0  0  0  0  0
    6.5930   -3.0300    4.9430 H   0  0  0  0  0  0  0  0  0  0  0  0
    4.0620   -1.7860    8.9250 N   0  0  0  0  0  0  0  0  0  0  0  0
    4.5030   -3.0010    8.4360 C   0  0  0  0  0  0  0  0  0  0  0  0
    3.9890   -4.0860    8.7190 O   0  0  0  0  0  0  0  0  0  0  0  0
    5.4780   -2.9260    7.3040 C   0  0  0  0  0  0  0  0  0  0  0  0
    6.2410   -1.8230    7.2040 C   0  0  2  0  0  3  0  0  0  0  0  0
    6.0690   -0.7080    8.1420 C   0  0  0  0  0  0  0  0  0  0  0  0
    6.9480    0.3760    8.2020 C   0  0  0  0  0  3  0  0  0  0  0  0
    6.6410    1.4690    9.0050 C   0  0  0  0  0  3  0  0  0  0  0  0
    5.4480    1.4500    9.7050 C   0  0  0  0  0  3  0  0  0  0  0  0
    4.5740    0.4210    9.6720 N   0  0  0  0  0  0  0  0  0  0  0  0
    4.9070   -0.6530    8.9160 C   0  0  0  0  0  0  0  0  0  0  0  0
    7.1300   -1.5940    6.1730 O   0  0  0  0  0  0  0  0  0  0  0  0
    7.6530   -2.4380    5.9990 H   0  0  0  0  0  0  0  0  0  0  0  0
    2.6710   -1.6530    9.3370 C   0  0  0  0  0  2  0  0  0  0  0  0
    1.7370   -1.4830    8.1120 C   0  0  0  0  0  2  0  0  0  0  0  0
    2.3210   -2.1040    5.7310 C   0  0  0  0  0  1  0  0  0  0  0  0
    2.4250   -1.0200    6.8070 C   0  0  0  0  0  3  0  0  0  0  0  0
    1.8480    0.2940    6.2850 C   0  0  0  0  0  1  0  0  0  0  0  0
    5.9710   -7.4260    0.7810 N   0  0  0  0  0  0  0  0  0  0  0  0
    6.6420   -7.1240    0.0710 H   0  0  0  0  0  0  0  0  0  0  0  0
    4.6160   -7.9600   -0.0980 S   0  0  0  0  0  0  0  0  0  0  0  0
    3.5510   -7.0010    0.0390 O   0  0  0  0  0  0  0  0  0  0  0  0
    5.1460   -8.2680   -1.4090 O   0  0  0  0  0  0  0  0  0  0  0  0
    4.2250   -9.4280    0.5770 N   0  0  0  0  0  0  0  0  0  0  0  0
    4.8160  -10.1600    0.1920 H   0  0  0  0  0  0  0  0  0  0  0  0
    3.7430   -9.6390    1.9060 C   0  0  0  0  0  0  0  0  0  0  0  0
    4.6960  -10.0190    2.8600 C   0  0  0  0  0  3  0  0  0  0  0  0
    4.3360  -10.2180    4.1920 C   0  0  0  0  0  3  0  0  0  0  0  0
    3.0130  -10.0290    4.5840 C   0  0  0  0  0  3  0  0  0  0  0  0
    2.0280   -9.6760    3.6460 C   0  0  0  0  0  0  0  0  0  0  0  0
    2.4020   -9.5490    2.2900 C   0  0  0  0  0  3  0  0  0  0  0  0
    0.6360   -9.3080    4.1110 C   0  0  0  0  0  0  0  0  0  0  0  0
    0.4760   -8.1480    4.6270 O   0  0  0  0  0  1  0  0  0  0  0  0
   -0.3240  -10.0890    3.8280 O   0  0  0  0  0  0  0  0  0  0  0  0
  1  2  1  0  0  0  0
  1 18  2  0  0  0  0
  2 13  1  0  0  0  0
  3  4  2  0  0  0  0
  3  2  1  0  0  0  0
  5  3  2  0  0  0  0
  6  3  1  0  0  0  0
  7  6  2  0  0  0  0
  8  7  1  0  0  0  0
  9  8  2  0  0  0  0
  9 10  1  0  0  0  0
 10 11  2  0  0  0  0
 11  6  1  0  0  0  0
 11 12  1  0  0  0  0
 12 14  1  0  0  0  0
 12  1  1  0  0  0  0
 15 28  1  0  0  0  0
 16 17  2  0  0  0  0
 16 15  1  0  0  0  0
 18 16  1  0  0  0  0
 19 26  1  6  0  0  0
 19 18  1  0  0  0  0
 19 20  1  0  0  0  0
 20 21  2  0  0  0  0
 20 25  1  0  0  0  0
 21 22  1  0  0  0  0
 22 23  2  0  0  0  0
 24 23  1  0  0  0  0
 25 15  1  0  0  0  0
 25 24  2  0  0  0  0
 27 26  1  0  0  0  0
 29 28  1  0  0  0  0
 30 31  1  0  0  0  0
 31 29  1  0  0  0  0
 32 31  1  0  0  0  0
 33  8  1  0  0  0  0
 34 33  1  0  0  0  0
 35 36  2  0  0  0  0
 35 38  1  0  0  0  0
 35 33  1  0  0  0  0
 37 35  2  0  0  0  0
 38 40  1  0  0  0  0
 39 38  1  0  0  0  0
 40 45  2  0  0  0  0
 40 41  1  0  0  0  0
 41 42  2  0  0  0  0
 42 43  1  0  0  0  0
 44 46  1  0  0  0  0
 44 43  2  0  0  0  0
 45 44  1  0  0  0  0
 46 47  1  0  0  0  0
 48 46  2  0  0  0  0
M  END
>  <minimizedAffinity>
-5.45392704

$$$$

 OpenBabel09122220203D

 48 52  0  0  1  0  0  0  0  0999 V2000
    0.1900   -7.8180    7.5860 C   0  0  1  0  0  3  0  0  0  0  0  0
    0.5970   -7.6510    6.3530 N   0  0  0  0  0  0  0  0  0  0  0  0
    1.7430   -6.6390    5.8850 S   0  0  0  0  0  0  0  0  0  0  0  0
    2.7580   -7.3180    5.1040 O   0  0  0  0  0  0  0  0  0  0  0  0
    1.1050   -5.4740    5.2900 O   0  0  0  0  0  0  0  0  0  0  0  0
    2.4980   -6.0100    7.3420 C   0  0  0  0  0  0  0  0  0  0  0  0
    3.7140   -5.3320    7.2580 C   0  0  0  0  0  3  0  0  0  0  0  0
    4.2680   -4.8210    8.4260 C   0  0  0  0  0  0  0  0  0  0  0  0
    3.5570   -4.8760    9.6260 C   0  0  0  0  0  3  0  0  0  0  0  0
    2.3490   -5.5730    9.6900 C   0  0  0  0  0  3  0  0  0  0  0  0
    1.8490   -6.2110    8.5540 C   0  0  0  0  0  0  0  0  0  0  0  0
    0.7450   -7.0520    8.6400 N   0  0  0  0  0  0  0  0  0  0  0  0
    0.1400   -8.1840    5.6290 H   0  0  0  0  0  0  0  0  0  0  0  0
    0.4360   -7.3260    9.5720 H   0  0  0  0  0  0  0  0  0  0  0  0
   -2.5520   -9.9280    6.4590 N   0  0  0  0  0  0  0  0  0  0  0  0
   -1.2310   -9.7480    6.8240 C   0  0  0  0  0  0  0  0  0  0  0  0
   -0.2740  -10.2170    6.2050 O   0  0  0  0  0  0  0  0  0  0  0  0
   -0.9870   -8.7040    7.8680 C   0  0  2  0  0  3  0  0  0  0  0  0
   -1.9850   -8.4270    8.7250 C   0  0  2  0  0  3  0  0  0  0  0  0
   -3.2890   -9.0870    8.5930 C   0  0  0  0  0  0  0  0  0  0  0  0
   -4.2960   -8.9790    9.5550 C   0  0  0  0  0  3  0  0  0  0  0  0
   -5.5570   -9.5030    9.2940 C   0  0  0  0  0  3  0  0  0  0  0  0
   -5.7760  -10.0960    8.0640 C   0  0  0  0  0  3  0  0  0  0  0  0
   -4.8280  -10.2190    7.1100 N   0  0  0  0  0  0  0  0  0  0  0  0
   -3.5930   -9.7400    7.3950 C   0  0  0  0  0  0  0  0  0  0  0  0
   -1.9180   -7.4420    9.6910 O   0  0  0  0  0  0  0  0  0  0  0  0
   -1.0220   -7.4950   10.1500 H   0  0  0  0  0  0  0  0  0  0  0  0
   -2.8690  -10.1940    5.0620 C   0  0  0  0  0  2  0  0  0  0  0  0
   -3.1260   -8.8780    4.2850 C   0  0  0  0  0  2  0  0  0  0  0  0
   -1.5890   -7.1020    3.3480 C   0  0  0  0  0  1  0  0  0  0  0  0
   -2.1770   -7.7050    4.6260 C   0  0  0  0  0  3  0  0  0  0  0  0
   -2.8720   -6.6210    5.4460 C   0  0  0  0  0  1  0  0  0  0  0  0
    5.6050   -4.3170    8.4530 N   0  0  0  0  0  0  0  0  0  0  0  0
    6.0700   -4.5510    9.3330 H   0  0  0  0  0  0  0  0  0  0  0  0
    5.7880   -2.6330    8.2980 S   0  0  0  0  0  0  0  0  0  0  0  0
    4.6040   -1.9780    8.7900 O   0  0  0  0  0  0  0  0  0  0  0  0
    7.0710   -2.3600    8.9080 O   0  0  0  0  0  0  0  0  0  0  0  0
    6.0090   -2.3800    6.6690 N   0  0  0  0  0  0  0  0  0  0  0  0
    6.9970   -2.2500    6.4660 H   0  0  0  0  0  0  0  0  0  0  0  0
    5.2150   -2.9340    5.6190 C   0  0  0  0  0  0  0  0  0  0  0  0
    3.9040   -2.4510    5.5090 C   0  0  0  0  0  3  0  0  0  0  0  0
    3.0580   -2.9020    4.4970 C   0  0  0  0  0  3  0  0  0  0  0  0
    3.5210   -3.8400    3.5770 C   0  0  0  0  0  3  0  0  0  0  0  0
    4.8200   -4.3650    3.6780 C   0  0  0  0  0  0  0  0  0  0  0  0
    5.6370   -3.9470    4.7520 C   0  0  0  0  0  3  0  0  0  0  0  0
    5.3670   -5.2490    2.5790 C   0  0  0  0  0  0  0  0  0  0  0  0
    6.6040   -5.1170    2.2790 O   0  0  0  0  0  1  0  0  0  0  0  0
    4.6290   -6.1750    2.1210 O   0  0  0  0  0  0  0  0  0  0  0  0
  1  2  1  6  0  0  0
  1 18  1  0  0  0  0
  1 12  1  0  0  0  0
  3  2  1  0  0  0  0
  3  6  1  0  0  0  0
  4  3  2  0  0  0  0
  5  3  2  0  0  0  0
  6 11  1  0  0  0  0
  7  6  2  0  0  0  0
  7  8  1  0  0  0  0
  8 33  1  0  0  0  0
  8  9  2  0  0  0  0
  9 10  1  0  0  0  0
 11 12  1  0  0  0  0
 11 10  2  0  0  0  0
 12 14  1  0  0  0  0
 13  2  1  0  0  0  0
 15 16  1  0  0  0  0
 15 25  1  0  0  0  0
 17 16  2  0  0  0  0
 18 16  1  6  0  0  0
 18 19  1  0  0  0  0
 19 26  1  6  0  0  0
 20 19  1  0  0  0  0
 20 21  1  0  0  0  0
 22 21  2  0  0  0  0
 23 22  1  0  0  0  0
 24 25  1  0  0  0  0
 24 23  2  0  0  0  0
 25 20  2  0  0  0  0
 26 27  1  0  0  0  0
 28 15  1  0  0  0  0
 29 31  1  0  0  0  0
 29 28  1  0  0  0  0
 30 31  1  0  0  0  0
 31 32  1  0  0  0  0
 33 34  1  0  0  0  0
 35 33  1  0  0  0  0
 35 36  2  0  0  0  0
 35 37  2  0  0  0  0
 38 35  1  0  0  0  0
 39 38  1  0  0  0  0
 40 38  1  0  0  0  0
 41 40  1  0  0  0  0
 42 41  2  0  0  0  0
 43 44  2  0  0  0  0
 43 42  1  0  0  0  0
 44 45  1  0  0  0  0
 45 40  2  0  0  0  0
 46 44  1  0  0  0  0
 47 46  1  0  0  0  0
 48 46  2  0  0  0  0
M  END
>  <minimizedAffinity>
-5.40406084

$$$$

 OpenBabel09122220203D

 48 52  0  0  1  0  0  0  0  0999 V2000
    0.9970   -8.8090    6.3180 C   0  0  1  0  0  3  0  0  0  0  0  0
    1.6900   -8.1590    7.2190 N   0  0  0  0  0  0  0  0  0  0  0  0
    3.1010   -7.4500    6.9700 S   0  0  0  0  0  0  0  0  0  0  0  0
    3.0760   -6.0630    7.3910 O   0  0  0  0  0  0  0  0  0  0  0  0
    4.1420   -8.3020    7.5270 O   0  0  0  0  0  0  0  0  0  0  0  0
    3.3980   -7.4950    5.2380 C   0  0  0  0  0  0  0  0  0  0  0  0
    4.4050   -6.7040    4.6840 C   0  0  0  0  0  3  0  0  0  0  0  0
    4.6320   -6.7860    3.3150 C   0  0  0  0  0  0  0  0  0  0  0  0
    3.9580   -7.7350    2.5450 C   0  0  0  0  0  3  0  0  0  0  0  0
    2.9450   -8.5060    3.1170 C   0  0  0  0  0  3  0  0  0  0  0  0
    2.6090   -8.3340    4.4610 C   0  0  0  0  0  0  0  0  0  0  0  0
    1.4920   -8.9620    4.9990 N   0  0  0  0  0  0  0  0  0  0  0  0
    1.3210   -8.1160    8.1570 H   0  0  0  0  0  0  0  0  0  0  0  0
    0.8360   -9.3940    4.3480 H   0  0  0  0  0  0  0  0  0  0  0  0
   -2.4750   -9.7400    5.7560 N   0  0  0  0  0  0  0  0  0  0  0  0
   -1.1200   -9.9430    5.5740 C   0  0  0  0  0  0  0  0  0  0  0  0
   -0.6020  -10.2130    4.4880 O   0  0  0  0  0  0  0  0  0  0  0  0
   -0.2480   -9.5410    6.7210 C   0  0  2  0  0  3  0  0  0  0  0  0
   -0.7880   -9.5430    7.9520 C   0  0  2  0  0  3  0  0  0  0  0  0
   -2.2060   -9.8690    8.1460 C   0  0  0  0  0  0  0  0  0  0  0  0
   -2.7740  -10.0650    9.4070 C   0  0  0  0  0  3  0  0  0  0  0  0
   -4.1510  -10.2190    9.5250 C   0  0  0  0  0  3  0  0  0  0  0  0
   -4.9170  -10.1460    8.3760 C   0  0  0  0  0  3  0  0  0  0  0  0
   -4.4040   -9.9570    7.1410 N   0  0  0  0  0  0  0  0  0  0  0  0
   -3.0580   -9.8490    7.0380 C   0  0  0  0  0  0  0  0  0  0  0  0
   -0.1190   -9.1290    9.0870 O   0  0  0  0  0  0  0  0  0  0  0  0
    0.8120   -9.5170    9.0760 H   0  0  0  0  0  0  0  0  0  0  0  0
   -3.2790   -9.2880    4.6280 C   0  0  0  0  0  2  0  0  0  0  0  0
   -3.3250   -7.7410    4.5560 C   0  0  0  0  0  2  0  0  0  0  0  0
   -1.5030   -6.1240    5.2350 C   0  0  0  0  0  1  0  0  0  0  0  0
   -2.6570   -6.9980    5.7360 C   0  0  0  0  0  3  0  0  0  0  0  0
   -3.6540   -6.1500    6.5210 C   0  0  0  0  0  1  0  0  0  0  0  0
    5.4830   -5.8520    2.6480 N   0  0  0  0  0  0  0  0  0  0  0  0
    6.4630   -6.1370    2.7060 H   0  0  0  0  0  0  0  0  0  0  0  0
    5.4600   -4.2520    3.2270 S   0  0  0  0  0  0  0  0  0  0  0  0
    6.2990   -4.1550    4.3940 O   0  0  0  0  0  0  0  0  0  0  0  0
    5.7520   -3.4500    2.0580 O   0  0  0  0  0  0  0  0  0  0  0  0
    3.8630   -3.9530    3.5810 N   0  0  0  0  0  0  0  0  0  0  0  0
    3.3040   -4.7840    3.4080 H   0  0  0  0  0  0  0  0  0  0  0  0
    3.3790   -3.0650    4.5900 C   0  0  0  0  0  0  0  0  0  0  0  0
    2.0830   -2.5640    4.4080 C   0  0  0  0  0  3  0  0  0  0  0  0
    1.5050   -1.7160    5.3520 C   0  0  0  0  0  3  0  0  0  0  0  0
    2.2190   -1.3670    6.4950 C   0  0  0  0  0  3  0  0  0  0  0  0
    3.5310   -1.8290    6.6920 C   0  0  0  0  0  0  0  0  0  0  0  0
    4.1240   -2.6290    5.6900 C   0  0  0  0  0  3  0  0  0  0  0  0
    4.2310   -1.5840    8.0110 C   0  0  0  0  0  0  0  0  0  0  0  0
    3.7610   -2.1750    9.0450 O   0  0  0  0  0  1  0  0  0  0  0  0
    5.3260   -0.9430    8.0080 O   0  0  0  0  0  0  0  0  0  0  0  0
  1 12  1  1  0  0  0
  1 18  1  0  0  0  0
  1  2  1  0  0  0  0
  2 13  1  0  0  0  0
  3  2  1  0  0  0  0
  3  4  2  0  0  0  0
  3  5  2  0  0  0  0
  6  3  1  0  0  0  0
  7  6  1  0  0  0  0
  8  7  2  0  0  0  0
  9 10  2  0  0  0  0
  9  8  1  0  0  0  0
 10 11  1  0  0  0  0
 11 12  1  0  0  0  0
 11  6  2  0  0  0  0
 14 12  1  0  0  0  0
 15 25  1  0  0  0  0
 16 15  1  0  0  0  0
 17 16  2  0  0  0  0
 18 16  1  6  0  0  0
 18 19  1  0  0  0  0
 19 20  1  0  0  0  0
 19 26  1  6  0  0  0
 20 21  1  0  0  0  0
 21 22  2  0  0  0  0
 23 22  1  0  0  0  0
 24 23  2  0  0  0  0
 25 24  1  0  0  0  0
 25 20  2  0  0  0  0
 27 26  1  0  0  0  0
 28 15  1  0  0  0  0
 29 28  1  0  0  0  0
 29 31  1  0  0  0  0
 30 31  1  0  0  0  0
 31 32  1  0  0  0  0
 33 34  1  0  0  0  0
 33 35  1  0  0  0  0
 33  8  1  0  0  0  0
 35 38  1  0  0  0  0
 35 36  2  0  0  0  0
 37 35  2  0  0  0  0
 38 40  1  0  0  0  0
 39 38  1  0  0  0  0
 40 45  1  0  0  0  0
 41 40  2  0  0  0  0
 41 42  1  0  0  0  0
 42 43  2  0  0  0  0
 43 44  1  0  0  0  0
 44 46  1  0  0  0  0
 45 44  2  0  0  0  0
 46 47  1  0  0  0  0
 48 46  2  0  0  0  0
M  END
>  <minimizedAffinity>
-5.15166759

$$$$

 OpenBabel09122220203D

 48 52  0  0  1  0  0  0  0  0999 V2000
    3.1210   -7.5430    6.2700 C   0  0  1  0  0  3  0  0  0  0  0  0
    2.2070   -7.6160    7.2060 N   0  0  0  0  0  0  0  0  0  0  0  0
    2.1540   -6.7120    8.5220 S   0  0  0  0  0  0  0  0  0  0  0  0
    0.8650   -6.0630    8.6650 O   0  0  0  0  0  0  0  0  0  0  0  0
    2.6320   -7.5100    9.6420 O   0  0  0  0  0  0  0  0  0  0  0  0
    3.3800   -5.4660    8.3380 C   0  0  0  0  0  0  0  0  0  0  0  0
    3.3790   -4.3590    9.1860 C   0  0  0  0  0  3  0  0  0  0  0  0
    4.3810   -3.4070    9.0320 C   0  0  0  0  0  0  0  0  0  0  0  0
    5.4310   -3.6270    8.1380 C   0  0  0  0  0  3  0  0  0  0  0  0
    5.4020   -4.7350    7.2890 C   0  0  0  0  0  3  0  0  0  0  0  0
    4.3290   -5.6260    7.3360 C   0  0  0  0  0  0  0  0  0  0  0  0
    4.1980   -6.6290    6.3840 N   0  0  0  0  0  0  0  0  0  0  0  0
    1.4860   -8.3140    7.1060 H   0  0  0  0  0  0  0  0  0  0  0  0
    4.7970   -6.5770    5.5600 H   0  0  0  0  0  0  0  0  0  0  0  0
    4.7330   -9.1320    3.4220 N   0  0  0  0  0  0  0  0  0  0  0  0
    4.4870   -9.0360    4.7790 C   0  0  0  0  0  0  0  0  0  0  0  0
    5.3600   -9.1140    5.6460 O   0  0  0  0  0  0  0  0  0  0  0  0
    3.1250   -8.5440    5.1540 C   0  0  2  0  0  3  0  0  0  0  0  0
    2.1220   -8.7460    4.2820 C   0  0  2  0  0  3  0  0  0  0  0  0
    2.3780   -9.3720    2.9800 C   0  0  0  0  0  0  0  0  0  0  0  0
    1.3550   -9.7710    2.1160 C   0  0  0  0  0  3  0  0  0  0  0  0
    1.6690  -10.2150    0.8360 C   0  0  0  0  0  3  0  0  0  0  0  0
    2.9990  -10.2210    0.4550 C   0  0  0  0  0  3  0  0  0  0  0  0
    4.0140   -9.8420    1.2620 N   0  0  0  0  0  0  0  0  0  0  0  0
    3.6950   -9.4500    2.5190 C   0  0  0  0  0  0  0  0  0  0  0  0
    0.8340   -8.2840    4.4710 O   0  0  0  0  0  0  0  0  0  0  0  0
    0.5580   -8.4690    5.4230 H   0  0  0  0  0  0  0  0  0  0  0  0
    6.0530   -8.7770    2.9170 C   0  0  0  0  0  2  0  0  0  0  0  0
    6.1230   -7.2770    2.5320 C   0  0  0  0  0  2  0  0  0  0  0  0
    6.0750   -7.4930    0.0130 C   0  0  0  0  0  1  0  0  0  0  0  0
    6.8640   -6.9610    1.2120 C   0  0  0  0  0  3  0  0  0  0  0  0
    7.1300   -5.4670    1.0450 C   0  0  0  0  0  1  0  0  0  0  0  0
    4.3170   -2.1480    9.7050 N   0  0  0  0  0  0  0  0  0  0  0  0
    4.0110   -2.2630   10.6740 H   0  0  0  0  0  0  0  0  0  0  0  0
    3.2630   -0.9850    9.0490 S   0  0  0  0  0  0  0  0  0  0  0  0
    1.9060   -1.4500    9.1700 O   0  0  0  0  0  0  0  0  0  0  0  0
    3.6630    0.2520    9.6850 O   0  0  0  0  0  0  0  0  0  0  0  0
    3.7330   -0.8370    7.4610 N   0  0  0  0  0  0  0  0  0  0  0  0
    4.7380   -0.6980    7.4030 H   0  0  0  0  0  0  0  0  0  0  0  0
    3.1190   -1.4790    6.3410 C   0  0  0  0  0  0  0  0  0  0  0  0
    1.8480   -1.0160    5.9780 C   0  0  0  0  0  3  0  0  0  0  0  0
    1.1770   -1.5530    4.8800 C   0  0  0  0  0  3  0  0  0  0  0  0
    1.7790   -2.5580    4.1280 C   0  0  0  0  0  3  0  0  0  0  0  0
    3.0400   -3.0650    4.4840 C   0  0  0  0  0  0  0  0  0  0  0  0
    3.6710   -2.5560    5.6410 C   0  0  0  0  0  3  0  0  0  0  0  0
    3.7550   -4.0310    3.5650 C   0  0  0  0  0  0  0  0  0  0  0  0
    4.6450   -3.5490    2.7820 O   0  0  0  0  0  0  0  0  0  0  0  0
    3.5580   -5.2750    3.7200 O   0  0  0  0  0  1  0  0  0  0  0  0
  1 12  1  1  0  0  0
  1  2  1  0  0  0  0
  2  3  1  0  0  0  0
  3  4  2  0  0  0  0
  3  5  2  0  0  0  0
  6  3  1  0  0  0  0
  6  7  1  0  0  0  0
  8  7  2  0  0  0  0
  8 33  1  0  0  0  0
  9  8  1  0  0  0  0
 10 11  1  0  0  0  0
 10  9  2  0  0  0  0
 11  6  2  0  0  0  0
 12 11  1  0  0  0  0
 13  2  1  0  0  0  0
 14 12  1  0  0  0  0
 15 16  1  0  0  0  0
 16 17  2  0  0  0  0
 18 16  1  6  0  0  0
 18  1  1  0  0  0  0
 19 26  1  6  0  0  0
 19 18  1  0  0  0  0
 20 19  1  0  0  0  0
 21 20  2  0  0  0  0
 22 21  1  0  0  0  0
 23 22  2  0  0  0  0
 23 24  1  0  0  0  0
 24 25  2  0  0  0  0
 25 20  1  0  0  0  0
 25 15  1  0  0  0  0
 26 27  1  0  0  0  0
 28 15  1  0  0  0  0
 29 28  1  0  0  0  0
 30 31  1  0  0  0  0
 31 29  1  0  0  0  0
 32 31  1  0  0  0  0
 33 34  1  0  0  0  0
 35 36  2  0  0  0  0
 35 37  2  0  0  0  0
 35 33  1  0  0  0  0
 38 35  1  0  0  0  0
 39 38  1  0  0  0  0
 40 38  1  0  0  0  0
 41 40  1  0  0  0  0
 42 41  2  0  0  0  0
 43 44  2  0  0  0  0
 43 42  1  0  0  0  0
 44 45  1  0  0  0  0
 45 40  2  0  0  0  0
 46 48  1  0  0  0  0
 46 44  1  0  0  0  0
 47 46  2  0  0  0  0
M  END
>  <minimizedAffinity>
-4.897295

$$$$

 OpenBabel09122220203D

 48 52  0  0  1  0  0  0  0  0999 V2000
    0.4760   -8.3260    7.1380 C   0  0  1  0  0  3  0  0  0  0  0  0
    0.8670   -7.4060    7.9840 N   0  0  0  0  0  0  0  0  0  0  0  0
    2.2060   -6.5430    7.8610 S   0  0  0  0  0  0  0  0  0  0  0  0
    1.9270   -5.1220    7.9400 O   0  0  0  0  0  0  0  0  0  0  0  0
    3.1850   -7.0870    8.7920 O   0  0  0  0  0  0  0  0  0  0  0  0
    2.8910   -6.8830    6.2790 C   0  0  0  0  0  0  0  0  0  0  0  0
    3.8990   -6.0650    5.7670 C   0  0  0  0  0  3  0  0  0  0  0  0
    4.4390   -6.3810    4.5260 C   0  0  0  0  0  0  0  0  0  0  0  0
    4.0710   -7.5600    3.8750 C   0  0  0  0  0  3  0  0  0  0  0  0
    3.0500   -8.3550    4.4000 C   0  0  0  0  0  3  0  0  0  0  0  0
    2.4010   -7.9760    5.5750 C   0  0  0  0  0  0  0  0  0  0  0  0
    1.2710   -8.6560    6.0130 N   0  0  0  0  0  0  0  0  0  0  0  0
    0.2920   -7.2380    8.7960 H   0  0  0  0  0  0  0  0  0  0  0  0
    0.8340   -9.3090    5.3630 H   0  0  0  0  0  0  0  0  0  0  0  0
   -2.6930   -9.8240    6.1600 N   0  0  0  0  0  0  0  0  0  0  0  0
   -1.3150   -9.8570    6.2590 C   0  0  0  0  0  0  0  0  0  0  0  0
   -0.5660  -10.2210    5.3490 O   0  0  0  0  0  0  0  0  0  0  0  0
   -0.7360   -9.1540    7.4460 C   0  0  2  0  0  3  0  0  0  0  0  0
   -1.5040   -9.0360    8.5430 C   0  0  2  0  0  3  0  0  0  0  0  0
   -2.8880   -9.5270    8.5430 C   0  0  0  0  0  0  0  0  0  0  0  0
   -3.6680   -9.5970    9.6990 C   0  0  0  0  0  3  0  0  0  0  0  0
   -5.0150   -9.9260    9.6020 C   0  0  0  0  0  3  0  0  0  0  0  0
   -5.5440  -10.1490    8.3430 C   0  0  0  0  0  3  0  0  0  0  0  0
   -4.8210  -10.0900    7.2040 N   0  0  0  0  0  0  0  0  0  0  0  0
   -3.5010   -9.8080    7.3190 C   0  0  0  0  0  0  0  0  0  0  0  0
   -1.1220   -8.3540    9.6810 O   0  0  0  0  0  0  0  0  0  0  0  0
   -0.1700   -8.6010    9.9040 H   0  0  0  0  0  0  0  0  0  0  0  0
   -3.3040   -9.6790    4.8450 C   0  0  0  0  0  2  0  0  0  0  0  0
   -3.1790   -8.2250    4.3250 C   0  0  0  0  0  2  0  0  0  0  0  0
   -1.5100   -6.3490    4.6300 C   0  0  0  0  0  1  0  0  0  0  0  0
   -2.5710   -7.2100    5.3210 C   0  0  0  0  0  3  0  0  0  0  0  0
   -3.6350   -6.3200    5.9580 C   0  0  0  0  0  1  0  0  0  0  0  0
    5.3060   -5.4730    3.8420 N   0  0  0  0  0  0  0  0  0  0  0  0
    6.0370   -5.1210    4.4640 H   0  0  0  0  0  0  0  0  0  0  0  0
    4.5840   -4.0790    3.1850 S   0  0  0  0  0  0  0  0  0  0  0  0
    3.2280   -3.9750    3.6610 O   0  0  0  0  0  0  0  0  0  0  0  0
    5.5320   -3.0240    3.4680 O   0  0  0  0  0  0  0  0  0  0  0  0
    4.6510   -4.3040    1.5390 N   0  0  0  0  0  0  0  0  0  0  0  0
    5.0830   -3.4990    1.0920 H   0  0  0  0  0  0  0  0  0  0  0  0
    4.8060   -5.5570    0.8690 C   0  0  0  0  0  0  0  0  0  0  0  0
    5.8530   -5.6410   -0.0590 C   0  0  0  0  0  3  0  0  0  0  0  0
    6.1090   -6.8280   -0.7420 C   0  0  0  0  0  3  0  0  0  0  0  0
    5.3210   -7.9500   -0.4970 C   0  0  0  0  0  3  0  0  0  0  0  0
    4.2450   -7.8890    0.4050 C   0  0  0  0  0  0  0  0  0  0  0  0
    3.9590   -6.6570    1.0340 C   0  0  0  0  0  3  0  0  0  0  0  0
    3.5070   -9.1530    0.7900 C   0  0  0  0  0  0  0  0  0  0  0  0
    4.1190   -9.9830    1.5470 O   0  0  0  0  0  1  0  0  0  0  0  0
    2.2800   -9.2570    0.4810 O   0  0  0  0  0  0  0  0  0  0  0  0
  1 12  1  1  0  0  0
  1 18  1  0  0  0  0
  1  2  1  0  0  0  0
  2 13  1  0  0  0  0
  3  4  2  0  0  0  0
  3  2  1  0  0  0  0
  3  5  2  0  0  0  0
  6  3  1  0  0  0  0
  7  6  1  0  0  0  0
  8  7  2  0  0  0  0
  9 10  2  0  0  0  0
  9  8  1  0  0  0  0
 10 11  1  0  0  0  0
 11 12  1  0  0  0  0
 11  6  2  0  0  0  0
 14 12  1  0  0  0  0
 15 16  1  0  0  0  0
 15 25  1  0  0  0  0
 17 16  2  0  0  0  0
 18 16  1  6  0  0  0
 18 19  1  0  0  0  0
 19 26  1  6  0  0  0
 20 19  1  0  0  0  0
 20 21  1  0  0  0  0
 22 21  2  0  0  0  0
 23 22  1  0  0  0  0
 24 25  1  0  0  0  0
 24 23  2  0  0  0  0
 25 20  2  0  0  0  0
 26 27  1  0  0  0  0
 28 15  1  0  0  0  0
 29 28  1  0  0  0  0
 29 31  1  0  0  0  0
 30 31  1  0  0  0  0
 31 32  1  0  0  0  0
 33 34  1  0  0  0  0
 33  8  1  0  0  0  0
 35 37  2  0  0  0  0
 35 36  2  0  0  0  0
 35 33  1  0  0  0  0
 38 35  1  0  0  0  0
 39 38  1  0  0  0  0
 40 45  1  0  0  0  0
 40 38  1  0  0  0  0
 41 40  2  0  0  0  0
 42 43  2  0  0  0  0
 42 41  1  0  0  0  0
 43 44  1  0  0  0  0
 44 46  1  0  0  0  0
 44 45  2  0  0  0  0
 46 47  1  0  0  0  0
 48 46  2  0  0  0  0
M  END
>  <minimizedAffinity>
-4.430161

$$$$

 OpenBabel09122220203D

 48 52  0  0  1  0  0  0  0  0999 V2000
    4.0390   -6.0220    6.2880 C   0  0  1  0  0  3  0  0  0  0  0  0
    4.2610   -6.3310    5.0350 N   0  0  0  0  0  0  0  0  0  0  0  0
    3.5550   -7.5200    4.2350 S   0  0  0  0  0  0  0  0  0  0  0  0
    2.9570   -7.0440    3.0030 O   0  0  0  0  0  0  0  0  0  0  0  0
    4.4970   -8.6270    4.1410 O   0  0  0  0  0  0  0  0  0  0  0  0
    2.2740   -8.1420    5.2650 C   0  0  0  0  0  0  0  0  0  0  0  0
    1.2990   -8.9840    4.7310 C   0  0  0  0  0  3  0  0  0  0  0  0
    0.3170   -9.4810    5.5810 C   0  0  0  0  0  0  0  0  0  0  0  0
    0.3890   -9.2450    6.9550 C   0  0  0  0  0  3  0  0  0  0  0  0
    1.3650   -8.3870    7.4640 C   0  0  0  0  0  3  0  0  0  0  0  0
    2.2720   -7.7680    6.6030 C   0  0  0  0  0  0  0  0  0  0  0  0
    3.1320   -6.7800    7.0680 N   0  0  0  0  0  0  0  0  0  0  0  0
    4.9510   -5.7930    4.5330 H   0  0  0  0  0  0  0  0  0  0  0  0
    2.9520   -6.4000    7.9980 H   0  0  0  0  0  0  0  0  0  0  0  0
    4.4500   -3.3660    8.7410 N   0  0  0  0  0  0  0  0  0  0  0  0
    4.4950   -4.6980    8.3770 C   0  0  0  0  0  0  0  0  0  0  0  0
    4.0460   -5.6170    9.0650 O   0  0  0  0  0  0  0  0  0  0  0  0
    4.8700   -4.9650    6.9540 C   0  0  2  0  0  3  0  0  0  0  0  0
    5.6230   -4.0500    6.3190 C   0  0  2  0  0  3  0  0  0  0  0  0
    6.0050   -2.8020    6.9900 C   0  0  0  0  0  0  0  0  0  0  0  0
    6.9310   -1.9040    6.4530 C   0  0  0  0  0  3  0  0  0  0  0  0
    7.1310   -0.6720    7.0660 C   0  0  0  0  0  3  0  0  0  0  0  0
    6.3760   -0.3700    8.1850 C   0  0  0  0  0  3  0  0  0  0  0  0
    5.4730   -1.2110    8.7320 N   0  0  0  0  0  0  0  0  0  0  0  0
    5.3190   -2.4230    8.1470 C   0  0  0  0  0  0  0  0  0  0  0  0
    5.9830   -4.1380    4.9890 O   0  0  0  0  0  0  0  0  0  0  0  0
    6.2800   -5.0810    4.7930 H   0  0  0  0  0  0  0  0  0  0  0  0
    3.4080   -2.9180    9.6560 C   0  0  0  0  0  2  0  0  0  0  0  0
    2.0310   -2.8470    8.9480 C   0  0  0  0  0  2  0  0  0  0  0  0
    2.3340   -0.3370    8.9780 C   0  0  0  0  0  1  0  0  0  0  0  0
    1.7240   -1.5180    8.2190 C   0  0  0  0  0  3  0  0  0  0  0  0
    2.2180   -1.5260    6.7750 C   0  0  0  0  0  1  0  0  0  0  0  0
   -0.8310  -10.1600    5.0680 N   0  0  0  0  0  0  0  0  0  0  0  0
   -0.5630  -10.8900    4.4040 H   0  0  0  0  0  0  0  0  0  0  0  0
   -1.9710   -9.2090    4.2370 S   0  0  0  0  0  0  0  0  0  0  0  0
   -1.3380   -8.5920    3.1000 O   0  0  0  0  0  0  0  0  0  0  0  0
   -3.0970  -10.0980    4.0430 O   0  0  0  0  0  0  0  0  0  0  0  0
   -2.4800   -8.0870    5.3530 N   0  0  0  0  0  0  0  0  0  0  0  0
   -2.8740   -7.2770    4.8820 H   0  0  0  0  0  0  0  0  0  0  0  0
   -2.9950   -8.3720    6.6550 C   0  0  0  0  0  0  0  0  0  0  0  0
   -2.2780   -7.8440    7.7370 C   0  0  0  0  0  3  0  0  0  0  0  0
   -2.7140   -8.0360    9.0470 C   0  0  0  0  0  3  0  0  0  0  0  0
   -3.8810   -8.7570    9.2870 C   0  0  0  0  0  3  0  0  0  0  0  0
   -4.6060   -9.3250    8.2250 C   0  0  0  0  0  0  0  0  0  0  0  0
   -4.1080   -9.1770    6.9120 C   0  0  0  0  0  3  0  0  0  0  0  0
   -5.9570   -9.9560    8.4830 C   0  0  0  0  0  0  0  0  0  0  0  0
   -6.2920  -10.1500    9.7030 O   0  0  0  0  0  1  0  0  0  0  0  0
   -6.7490  -10.1140    7.5040 O   0  0  0  0  0  0  0  0  0  0  0  0
  1  2  1  1  0  0  0
  1 18  1  0  0  0  0
  1 12  1  0  0  0  0
  3  2  1  0  0  0  0
  3  6  1  0  0  0  0
  4  3  2  0  0  0  0
  5  3  2  0  0  0  0
  6 11  1  0  0  0  0
  7  6  2  0  0  0  0
  7  8  1  0  0  0  0
  8  9  2  0  0  0  0
  9 10  1  0  0  0  0
 11 12  1  0  0  0  0
 11 10  2  0  0  0  0
 12 14  1  0  0  0  0
 13  2  1  0  0  0  0
 15 28  1  0  0  0  0
 16 15  1  0  0  0  0
 16 17  2  0  0  0  0
 18 16  1  6  0  0  0
 19 26  1  6  0  0  0
 19 18  1  0  0  0  0
 19 20  1  0  0  0  0
 20 25  1  0  0  0  0
 21 20  2  0  0  0  0
 21 22  1  0  0  0  0
 22 23  2  0  0  0  0
 23 24  1  0  0  0  0
 25 24  2  0  0  0  0
 25 15  1  0  0  0  0
 27 26  1  0  0  0  0
 29 28  1  0  0  0  0
 31 29  1  0  0  0  0
 31 30  1  0  0  0  0
 32 31  1  0  0  0  0
 33  8  1  0  0  0  0
 34 33  1  0  0  0  0
 35 33  1  0  0  0  0
 35 38  1  0  0  0  0
 36 35  2  0  0  0  0
 37 35  2  0  0  0  0
 38 40  1  0  0  0  0
 39 38  1  0  0  0  0
 40 45  2  0  0  0  0
 40 41  1  0  0  0  0
 41 42  2  0  0  0  0
 42 43  1  0  0  0  0
 44 46  1  0  0  0  0
 44 43  2  0  0  0  0
 45 44  1  0  0  0  0
 46 47  1  0  0  0  0
 48 46  2  0  0  0  0
M  END
>  <minimizedAffinity>
-3.9415369

$$$$

 OpenBabel09122220203D

 48 52  0  0  1  0  0  0  0  0999 V2000
    1.8240   -8.0220    3.8770 C   0  0  1  0  0  3  0  0  0  0  0  0
    1.6380   -6.9370    4.5860 N   0  0  0  0  0  0  0  0  0  0  0  0
    0.3200   -6.5910    5.4220 S   0  0  0  0  0  0  0  0  0  0  0  0
    0.6390   -6.2720    6.8000 O   0  0  0  0  0  0  0  0  0  0  0  0
   -0.4520   -5.6130    4.6680 O   0  0  0  0  0  0  0  0  0  0  0  0
   -0.6890   -8.0290    5.4080 C   0  0  0  0  0  0  0  0  0  0  0  0
   -1.7650   -8.1330    6.2890 C   0  0  0  0  0  3  0  0  0  0  0  0
   -2.5600   -9.2720    6.2310 C   0  0  0  0  0  0  0  0  0  0  0  0
   -2.3610  -10.2200    5.2260 C   0  0  0  0  0  3  0  0  0  0  0  0
   -1.2690  -10.1030    4.3640 C   0  0  0  0  0  3  0  0  0  0  0  0
   -0.3790   -9.0360    4.5020 C   0  0  0  0  0  0  0  0  0  0  0  0
    0.8030   -9.0000    3.7730 N   0  0  0  0  0  0  0  0  0  0  0  0
    2.3740   -6.2470    4.5930 H   0  0  0  0  0  0  0  0  0  0  0  0
    1.0810   -9.8510    3.2840 H   0  0  0  0  0  0  0  0  0  0  0  0
    5.0290   -6.7720    2.6940 N   0  0  0  0  0  0  0  0  0  0  0  0
    4.2640   -7.4820    3.6000 C   0  0  0  0  0  0  0  0  0  0  0  0
    4.3920   -7.4020    4.8240 O   0  0  0  0  0  0  0  0  0  0  0  0
    3.0560   -8.1590    3.0330 C   0  0  2  0  0  3  0  0  0  0  0  0
    3.0780   -8.4980    1.7330 C   0  0  2  0  0  3  0  0  0  0  0  0
    4.2280   -8.1520    0.8890 C   0  0  0  0  0  0  0  0  0  0  0  0
    4.3870   -8.6350   -0.4120 C   0  0  0  0  0  3  0  0  0  0  0  0
    5.4190   -8.1460   -1.2060 C   0  0  0  0  0  3  0  0  0  0  0  0
    6.2440   -7.1700   -0.6770 C   0  0  0  0  0  3  0  0  0  0  0  0
    6.1210   -6.6800    0.5750 N   0  0  0  0  0  0  0  0  0  0  0  0
    5.1360   -7.1940    1.3500 C   0  0  0  0  0  0  0  0  0  0  0  0
    2.0080   -9.0640    1.0670 O   0  0  0  0  0  0  0  0  0  0  0  0
    1.6110   -9.7880    1.6450 H   0  0  0  0  0  0  0  0  0  0  0  0
    5.6280   -5.5110    3.1100 C   0  0  0  0  0  2  0  0  0  0  0  0
    4.5600   -4.3940    3.2270 C   0  0  0  0  0  2  0  0  0  0  0  0
    5.3110   -3.3930    5.4250 C   0  0  0  0  0  1  0  0  0  0  0  0
    4.1380   -4.0240    4.6680 C   0  0  0  0  0  3  0  0  0  0  0  0
    2.9330   -3.0870    4.6930 C   0  0  0  0  0  1  0  0  0  0  0  0
   -3.5320   -9.5490    7.2410 N   0  0  0  0  0  0  0  0  0  0  0  0
   -4.4480   -9.1730    6.9850 H   0  0  0  0  0  0  0  0  0  0  0  0
   -3.2200   -8.9220    8.7920 S   0  0  0  0  0  0  0  0  0  0  0  0
   -2.9650   -7.5080    8.6910 O   0  0  0  0  0  0  0  0  0  0  0  0
   -4.3250   -9.4010    9.5940 O   0  0  0  0  0  0  0  0  0  0  0  0
   -1.8880   -9.7600    9.3270 N   0  0  0  0  0  0  0  0  0  0  0  0
   -2.0190  -10.7580    9.1810 H   0  0  0  0  0  0  0  0  0  0  0  0
   -0.5390   -9.2910    9.3090 C   0  0  0  0  0  0  0  0  0  0  0  0
    0.4380  -10.2200    8.9280 C   0  0  0  0  0  3  0  0  0  0  0  0
    1.7810   -9.8540    8.8470 C   0  0  0  0  0  3  0  0  0  0  0  0
    2.1590   -8.5460    9.1400 C   0  0  0  0  0  3  0  0  0  0  0  0
    1.2070   -7.5990    9.5540 C   0  0  0  0  0  0  0  0  0  0  0  0
   -0.1370   -8.0100    9.6980 C   0  0  0  0  0  3  0  0  0  0  0  0
    1.6010   -6.1460    9.7040 C   0  0  0  0  0  0  0  0  0  0  0  0
    2.8490   -5.8670    9.6640 O   0  0  0  0  0  0  0  0  0  0  0  0
    0.6860   -5.2660    9.7040 O   0  0  0  0  0  1  0  0  0  0  0  0
  1 12  1  6  0  0  0
  1  2  1  0  0  0  0
  2 13  1  0  0  0  0
  2  3  1  0  0  0  0
  3  4  2  0  0  0  0
  5  3  2  0  0  0  0
  6  3  1  0  0  0  0
  6  7  1  0  0  0  0
  8  7  2  0  0  0  0
  8 33  1  0  0  0  0
  9  8  1  0  0  0  0
 10 11  1  0  0  0  0
 10  9  2  0  0  0  0
 11  6  2  0  0  0  0
 12 11  1  0  0  0  0
 14 12  1  0  0  0  0
 15 28  1  0  0  0  0
 15 16  1  0  0  0  0
 16 17  2  0  0  0  0
 18 16  1  6  0  0  0
 18  1  1  0  0  0  0
 19 26  1  6  0  0  0
 19 18  1  0  0  0  0
 20 25  1  0  0  0  0
 20 19  1  0  0  0  0
 21 20  2  0  0  0  0
 22 23  2  0  0  0  0
 22 21  1  0  0  0  0
 23 24  1  0  0  0  0
 24 25  2  0  0  0  0
 25 15  1  0  0  0  0
 26 27  1  0  0  0  0
 28 29  1  0  0  0  0
 29 31  1  0  0  0  0
 31 32  1  0  0  0  0
 31 30  1  0  0  0  0
 33 35  1  0  0  0  0
 34 33  1  0  0  0  0
 35 38  1  0  0  0  0
 35 37  2  0  0  0  0
 36 35  2  0  0  0  0
 39 38  1  0  0  0  0
 40 38  1  0  0  0  0
 40 45  1  0  0  0  0
 41 40  2  0  0  0  0
 42 41  1  0  0  0  0
 42 43  2  0  0  0  0
 43 44  1  0  0  0  0
 44 45  2  0  0  0  0
 44 46  1  0  0  0  0
 46 48  1  0  0  0  0
 47 46  2  0  0  0  0
M  END
>  <minimizedAffinity>
-3.62622333

$$$$
