
 OpenBabel09122222393D

 48 52  0  0  1  0  0  0  0  0999 V2000
    0.4760   -8.3260    7.1380 C   0  0  1  0  0  3  0  0  0  0  0  0
    0.8670   -7.4060    7.9840 N   0  0  0  0  0  0  0  0  0  0  0  0
    2.2060   -6.5430    7.8610 S   0  0  0  0  0  0  0  0  0  0  0  0
    1.9270   -5.1220    7.9400 O   0  0  0  0  0  0  0  0  0  0  0  0
    3.1850   -7.0870    8.7920 O   0  0  0  0  0  0  0  0  0  0  0  0
    2.8910   -6.8830    6.2790 C   0  0  0  0  0  0  0  0  0  0  0  0
    3.8990   -6.0650    5.7670 C   0  0  0  0  0  3  0  0  0  0  0  0
    4.4390   -6.3810    4.5260 C   0  0  0  0  0  0  0  0  0  0  0  0
    4.0710   -7.5600    3.8750 C   0  0  0  0  0  3  0  0  0  0  0  0
    3.0500   -8.3550    4.4000 C   0  0  0  0  0  3  0  0  0  0  0  0
    2.4010   -7.9760    5.5750 C   0  0  0  0  0  0  0  0  0  0  0  0
    1.2710   -8.6560    6.0130 N   0  0  0  0  0  0  0  0  0  0  0  0
    0.2920   -7.2380    8.7960 H   0  0  0  0  0  0  0  0  0  0  0  0
    0.8340   -9.3090    5.3630 H   0  0  0  0  0  0  0  0  0  0  0  0
   -2.6930   -9.8240    6.1600 N   0  0  0  0  0  0  0  0  0  0  0  0
   -1.3150   -9.8570    6.2590 C   0  0  0  0  0  0  0  0  0  0  0  0
   -0.5660  -10.2210    5.3490 O   0  0  0  0  0  0  0  0  0  0  0  0
   -0.7360   -9.1540    7.4460 C   0  0  2  0  0  3  0  0  0  0  0  0
   -1.5040   -9.0360    8.5430 C   0  0  2  0  0  3  0  0  0  0  0  0
   -2.8880   -9.5270    8.5430 C   0  0  0  0  0  0  0  0  0  0  0  0
   -3.6680   -9.5970    9.6990 C   0  0  0  0  0  3  0  0  0  0  0  0
   -5.0150   -9.9260    9.6020 C   0  0  0  0  0  3  0  0  0  0  0  0
   -5.5440  -10.1490    8.3430 C   0  0  0  0  0  3  0  0  0  0  0  0
   -4.8210  -10.0900    7.2040 N   0  0  0  0  0  0  0  0  0  0  0  0
   -3.5010   -9.8080    7.3190 C   0  0  0  0  0  0  0  0  0  0  0  0
   -1.1220   -8.3540    9.6810 O   0  0  0  0  0  0  0  0  0  0  0  0
   -0.1700   -8.6010    9.9040 H   0  0  0  0  0  0  0  0  0  0  0  0
   -3.3040   -9.6790    4.8450 C   0  0  0  0  0  2  0  0  0  0  0  0
   -3.1790   -8.2250    4.3250 C   0  0  0  0  0  2  0  0  0  0  0  0
   -1.5100   -6.3490    4.6300 C   0  0  0  0  0  1  0  0  0  0  0  0
   -2.5710   -7.2100    5.3210 C   0  0  0  0  0  3  0  0  0  0  0  0
   -3.6350   -6.3200    5.9580 C   0  0  0  0  0  1  0  0  0  0  0  0
    5.3060   -5.4730    3.8420 N   0  0  0  0  0  0  0  0  0  0  0  0
    6.0370   -5.1210    4.4640 H   0  0  0  0  0  0  0  0  0  0  0  0
    4.5840   -4.0790    3.1850 S   0  0  0  0  0  0  0  0  0  0  0  0
    3.2280   -3.9750    3.6610 O   0  0  0  0  0  0  0  0  0  0  0  0
    5.5320   -3.0240    3.4680 O   0  0  0  0  0  0  0  0  0  0  0  0
    4.6510   -4.3040    1.5390 N   0  0  0  0  0  0  0  0  0  0  0  0
    5.0830   -3.4990    1.0920 H   0  0  0  0  0  0  0  0  0  0  0  0
    4.8060   -5.5570    0.8690 C   0  0  0  0  0  0  0  0  0  0  0  0
    5.8530   -5.6410   -0.0590 C   0  0  0  0  0  3  0  0  0  0  0  0
    6.1090   -6.8280   -0.7420 C   0  0  0  0  0  3  0  0  0  0  0  0
    5.3210   -7.9500   -0.4970 C   0  0  0  0  0  3  0  0  0  0  0  0
    4.2450   -7.8890    0.4050 C   0  0  0  0  0  0  0  0  0  0  0  0
    3.9590   -6.6570    1.0340 C   0  0  0  0  0  3  0  0  0  0  0  0
    3.5070   -9.1530    0.7900 C   0  0  0  0  0  0  0  0  0  0  0  0
    4.1190   -9.9830    1.5470 O   0  0  0  0  0  1  0  0  0  0  0  0
    2.2800   -9.2570    0.4810 O   0  0  0  0  0  0  0  0  0  0  0  0
  1 12  1  1  0  0  0
  1 18  1  0  0  0  0
  1  2  1  0  0  0  0
  2 13  1  0  0  0  0
  3  4  2  0  0  0  0
  3  2  1  0  0  0  0
  3  5  2  0  0  0  0
  6  3  1  0  0  0  0
  7  6  1  0  0  0  0
  8  7  2  0  0  0  0
  9 10  2  0  0  0  0
  9  8  1  0  0  0  0
 10 11  1  0  0  0  0
 11 12  1  0  0  0  0
 11  6  2  0  0  0  0
 14 12  1  0  0  0  0
 15 16  1  0  0  0  0
 15 25  1  0  0  0  0
 17 16  2  0  0  0  0
 18 16  1  6  0  0  0
 18 19  1  0  0  0  0
 19 26  1  6  0  0  0
 20 19  1  0  0  0  0
 20 21  1  0  0  0  0
 22 21  2  0  0  0  0
 23 22  1  0  0  0  0
 24 25  1  0  0  0  0
 24 23  2  0  0  0  0
 25 20  2  0  0  0  0
 26 27  1  0  0  0  0
 28 15  1  0  0  0  0
 29 28  1  0  0  0  0
 29 31  1  0  0  0  0
 30 31  1  0  0  0  0
 31 32  1  0  0  0  0
 33 34  1  0  0  0  0
 33  8  1  0  0  0  0
 35 37  2  0  0  0  0
 35 36  2  0  0  0  0
 35 33  1  0  0  0  0
 38 35  1  0  0  0  0
 39 38  1  0  0  0  0
 40 45  1  0  0  0  0
 40 38  1  0  0  0  0
 41 40  2  0  0  0  0
 42 43  2  0  0  0  0
 42 41  1  0  0  0  0
 43 44  1  0  0  0  0
 44 46  1  0  0  0  0
 44 45  2  0  0  0  0
 46 47  1  0  0  0  0
 48 46  2  0  0  0  0
M  END
>  <minimizedAffinity>
-4.430161

$$$$
