REMARK  Name = 
REMARK  4 active torsions:
REMARK  status: ('A' for Active; 'I' for Inactive)
REMARK    1  A    between atoms: C_2  and  C_4
REMARK    2  A    between atoms: C_11  and  C_12
REMARK    3  A    between atoms: C_15  and  C_16
REMARK    4  A    between atoms: N_20  and  C_21
REMARK                            x       y       z     vdW  Elec       q    Type
REMARK                         _______ _______ _______ _____ _____    ______ ____
ROOT
ATOM      1  C   UNL     1       3.212  -0.835   0.765  0.00  0.00    -0.001 A 
ATOM      2  C   UNL     1       2.679  -1.926   1.470  0.00  0.00    +0.012 A 
ATOM      3  C   UNL     1       3.351  -2.523   2.546  0.00  0.00    +0.028 A 
ATOM      4  C   UNL     1       4.599  -1.997   2.906  0.00  0.00    +0.069 A 
ATOM      5  C   UNL     1       5.148  -0.899   2.247  0.00  0.00    +0.090 A 
ATOM      6  C   UNL     1       4.459  -0.318   1.168  0.00  0.00    +0.039 A 
ATOM      7  N   UNL     1       6.346  -0.540   2.810  0.00  0.00    -0.225 NA
ATOM      8  C   UNL     1       6.540  -1.372   3.818  0.00  0.00    +0.178 A 
ATOM      9  N   UNL     1       5.544  -2.334   3.861  0.00  0.00    -0.318 N 
ENDROOT
BRANCH   9  10
ATOM     10  C   UNL     1       5.505  -3.504   4.736  0.00  0.00    +0.089 C 
ATOM     11  C   UNL     1       4.449  -3.365   5.842  0.00  0.00    +0.025 C 
ATOM     12  C   UNL     1       4.468  -4.567   6.785  0.00  0.00    +0.002 C 
ATOM     13  C   UNL     1       4.332  -5.885   6.026  0.00  0.00    +0.000 C 
ATOM     14  C   UNL     1       5.398  -6.025   4.943  0.00  0.00    +0.002 C 
ATOM     15  C   UNL     1       5.377  -4.840   3.978  0.00  0.00    +0.025 C 
ENDBRANCH   9  10
BRANCH   8  16
ATOM     16  C   UNL     1       7.656  -1.240   4.719  0.00  0.00    +0.171 A 
ATOM     17  C   UNL     1       8.756  -0.408   4.583  0.00  0.00    +0.054 A 
ATOM     18  C   UNL     1       9.590  -0.620   5.706  0.00  0.00    +0.052 A 
ATOM     19  C   UNL     1       8.965  -1.568   6.495  0.00  0.00    +0.151 A 
ATOM     20  O   UNL     1       7.783  -1.925   5.899  0.00  0.00    -0.451 OA
BRANCH  19  21
ATOM     21  C   UNL     1       9.489  -2.116   7.775  0.00  0.00    +0.107 C 
ATOM     22  O   UNL     1      10.608  -1.662   8.179  0.00  0.00    -0.542 OA
ATOM     23  O   UNL     1       8.783  -2.997   8.357  0.00  0.00    -0.542 OA
ENDBRANCH  19  21
ENDBRANCH   8  16
BRANCH   1  25
ATOM     24  O   UNL     1       1.333  -0.747  -0.700  0.00  0.00    -0.545 OA
ATOM     25  C   UNL     1       2.455  -0.226  -0.400  0.00  0.00    +0.072 C 
ATOM     26  O   UNL     1       2.992   0.759  -1.000  0.00  0.00    -0.545 OA
ENDBRANCH   1  25
TORSDOF 4
