
 OpenBabel09122222393D

 26 29  0  0  0  0  0  0  0  0999 V2000
    9.1470   -3.8870    0.5380 C   0  0  0  0  0  0  0  0  0  0  0  0
    8.7360   -3.0530    1.5900 C   0  0  0  0  0  3  0  0  0  0  0  0
    7.6530   -3.3740    2.4210 C   0  0  0  0  0  3  0  0  0  0  0  0
    6.9710   -4.5710    2.1670 C   0  0  0  0  0  0  0  0  0  0  0  0
    7.3660   -5.4370    1.1490 C   0  0  0  0  0  0  0  0  0  0  0  0
    8.4520   -5.0940    0.3250 C   0  0  0  0  0  3  0  0  0  0  0  0
    6.5790   -6.5600    1.1310 N   0  0  0  0  0  0  0  0  0  0  0  0
    5.7230   -6.4240    2.1280 C   0  0  0  0  0  0  0  0  0  0  0  0
    5.8670   -5.1860    2.7340 N   0  0  0  0  0  0  0  0  0  0  0  0
    5.0010   -4.6200    3.7660 C   0  0  0  0  0  3  0  0  0  0  0  0
    5.8030   -3.9640    4.8990 C   0  0  0  0  0  2  0  0  0  0  0  0
    4.8840   -3.4360    6.0000 C   0  0  0  0  0  2  0  0  0  0  0  0
    3.8110   -2.5030    5.4430 C   0  0  0  0  0  2  0  0  0  0  0  0
    3.0040   -3.1690    4.3320 C   0  0  0  0  0  2  0  0  0  0  0  0
    3.9090   -3.6830    3.2130 C   0  0  0  0  0  2  0  0  0  0  0  0
    4.7940   -7.4620    2.4900 C   0  0  0  0  0  0  0  0  0  0  0  0
    3.8830   -8.1040    1.6660 C   0  0  0  0  0  3  0  0  0  0  0  0
    3.1850   -9.0470    2.4570 C   0  0  0  0  0  3  0  0  0  0  0  0
    3.7020   -8.9560    3.7360 C   0  0  0  0  0  0  0  0  0  0  0  0
    4.6900   -8.0060    3.7440 O   0  0  0  0  0  0  0  0  0  0  0  0
    3.2560   -9.7510    4.9120 C   0  0  0  0  0  0  0  0  0  0  0  0
    4.1560  -10.1050    5.7400 O   0  0  0  0  0  1  0  0  0  0  0  0
    2.0170  -10.0180    4.9920 O   0  0  0  0  0  0  0  0  0  0  0  0
   10.1680   -2.4770   -1.0910 O   0  0  0  0  0  0  0  0  0  0  0  0
   10.3180   -3.4960   -0.3430 C   0  0  0  0  0  0  0  0  0  0  0  0
   11.3680   -4.2120   -0.2790 O   0  0  0  0  0  1  0  0  0  0  0  0
  1  2  1  0  0  0  0
  2  3  2  0  0  0  0
  4  3  1  0  0  0  0
  4  9  1  0  0  0  0
  5  4  2  0  0  0  0
  6  1  2  0  0  0  0
  6  5  1  0  0  0  0
  7  5  1  0  0  0  0
  7  8  2  0  0  0  0
  8 16  1  0  0  0  0
  8  9  1  0  0  0  0
  9 10  1  0  0  0  0
 10 11  1  0  0  0  0
 11 12  1  0  0  0  0
 13 12  1  0  0  0  0
 14 13  1  0  0  0  0
 15 10  1  0  0  0  0
 15 14  1  0  0  0  0
 16 20  1  0  0  0  0
 17 18  1  0  0  0  0
 17 16  2  0  0  0  0
 18 19  2  0  0  0  0
 19 20  1  0  0  0  0
 19 21  1  0  0  0  0
 21 23  2  0  0  0  0
 21 22  1  0  0  0  0
 24 25  2  0  0  0  0
 25 26  1  0  0  0  0
 25  1  1  0  0  0  0
M  END
>  <minimizedAffinity>
-7.04909039

$$$$
