
 OpenBabel09122222393D

 26 29  0  0  0  0  0  0  0  0999 V2000
    5.4130   -6.6900    2.3220 C   0  0  0  0  0  0  0  0  0  0  0  0
    5.5160   -5.3490    2.7260 C   0  0  0  0  0  3  0  0  0  0  0  0
    4.6570   -4.7870    3.6810 C   0  0  0  0  0  3  0  0  0  0  0  0
    3.6670   -5.6110    4.2310 C   0  0  0  0  0  0  0  0  0  0  0  0
    3.5510   -6.9530    3.8750 C   0  0  0  0  0  0  0  0  0  0  0  0
    4.4200   -7.4960    2.9120 C   0  0  0  0  0  3  0  0  0  0  0  0
    2.5450   -7.5610    4.5810 N   0  0  0  0  0  0  0  0  0  0  0  0
    2.0520   -6.6360    5.3860 C   0  0  0  0  0  0  0  0  0  0  0  0
    2.6460   -5.4070    5.1450 N   0  0  0  0  0  0  0  0  0  0  0  0
    2.2550   -4.1260    5.7290 C   0  0  0  0  0  3  0  0  0  0  0  0
    3.1570   -3.7270    6.9060 C   0  0  0  0  0  2  0  0  0  0  0  0
    2.6930   -2.4180    7.5440 C   0  0  0  0  0  2  0  0  0  0  0  0
    2.5680   -1.2980    6.5140 C   0  0  0  0  0  2  0  0  0  0  0  0
    1.6540   -1.6950    5.3580 C   0  0  0  0  0  2  0  0  0  0  0  0
    2.1170   -2.9910    4.6940 C   0  0  0  0  0  2  0  0  0  0  0  0
    1.0370   -6.9300    6.3640 C   0  0  0  0  0  0  0  0  0  0  0  0
   -0.2540   -7.3780    6.1320 C   0  0  0  0  0  3  0  0  0  0  0  0
   -0.8850   -7.5260    7.3900 C   0  0  0  0  0  3  0  0  0  0  0  0
    0.0470   -7.1730    8.3480 C   0  0  0  0  0  0  0  0  0  0  0  0
    1.2160   -6.8310    7.7190 O   0  0  0  0  0  0  0  0  0  0  0  0
   -0.1810   -7.1590    9.8190 C   0  0  0  0  0  0  0  0  0  0  0  0
   -1.3770   -7.3370   10.2160 O   0  0  0  0  0  0  0  0  0  0  0  0
    0.8340   -6.9630   10.5570 O   0  0  0  0  0  1  0  0  0  0  0  0
    5.8700   -7.5090    0.1300 O   0  0  0  0  0  0  0  0  0  0  0  0
    6.3570   -7.2550    1.2780 C   0  0  0  0  0  0  0  0  0  0  0  0
    7.5690   -7.4410    1.6200 O   0  0  0  0  0  1  0  0  0  0  0  0
  1  2  2  0  0  0  0
  1  6  1  0  0  0  0
  2  3  1  0  0  0  0
  3  4  2  0  0  0  0
  4  9  1  0  0  0  0
  5  4  1  0  0  0  0
  5  7  1  0  0  0  0
  6  5  2  0  0  0  0
  7  8  2  0  0  0  0
  8 16  1  0  0  0  0
  9  8  1  0  0  0  0
  9 10  1  0  0  0  0
 10 11  1  0  0  0  0
 11 12  1  0  0  0  0
 13 12  1  0  0  0  0
 14 13  1  0  0  0  0
 15 14  1  0  0  0  0
 15 10  1  0  0  0  0
 16 20  1  0  0  0  0
 17 16  2  0  0  0  0
 17 18  1  0  0  0  0
 18 19  2  0  0  0  0
 19 21  1  0  0  0  0
 20 19  1  0  0  0  0
 21 22  2  0  0  0  0
 21 23  1  0  0  0  0
 24 25  2  0  0  0  0
 25 26  1  0  0  0  0
 25  1  1  0  0  0  0
M  END
>  <minimizedAffinity>
-6.70137644

$$$$
