
 OpenBabel09122222393D

 26 29  0  0  0  0  0  0  0  0999 V2000
    9.3250   -3.9310    0.0350 C   0  0  0  0  0  0  0  0  0  0  0  0
    8.5690   -4.9180   -0.6180 C   0  0  0  0  0  3  0  0  0  0  0  0
    7.4140   -5.4750   -0.0490 C   0  0  0  0  0  3  0  0  0  0  0  0
    7.0280   -5.0180    1.2180 C   0  0  0  0  0  0  0  0  0  0  0  0
    7.7390   -4.0220    1.8850 C   0  0  0  0  0  0  0  0  0  0  0  0
    8.8960   -3.4800    1.2980 C   0  0  0  0  0  3  0  0  0  0  0  0
    7.1410   -3.7110    3.0800 N   0  0  0  0  0  0  0  0  0  0  0  0
    6.0630   -4.4710    3.1570 C   0  0  0  0  0  0  0  0  0  0  0  0
    6.0000   -5.3470    2.0860 N   0  0  0  0  0  0  0  0  0  0  0  0
    5.0410   -6.4360    1.9110 C   0  0  0  0  0  3  0  0  0  0  0  0
    4.6820   -6.6600    0.4340 C   0  0  0  0  0  2  0  0  0  0  0  0
    3.6300   -7.7560    0.2760 C   0  0  0  0  0  2  0  0  0  0  0  0
    4.0530   -9.0510    0.9660 C   0  0  0  0  0  2  0  0  0  0  0  0
    4.3870   -8.8240    2.4370 C   0  0  0  0  0  2  0  0  0  0  0  0
    5.4550   -7.7450    2.6110 C   0  0  0  0  0  2  0  0  0  0  0  0
    5.1150   -4.3520    4.2350 C   0  0  0  0  0  0  0  0  0  0  0  0
    4.0630   -3.4550    4.3380 C   0  0  0  0  0  3  0  0  0  0  0  0
    3.4080   -3.7080    5.5660 C   0  0  0  0  0  3  0  0  0  0  0  0
    4.0780   -4.7580    6.1670 C   0  0  0  0  0  0  0  0  0  0  0  0
    5.1000   -5.1560    5.3440 O   0  0  0  0  0  0  0  0  0  0  0  0
    3.7490   -5.3550    7.4900 C   0  0  0  0  0  0  0  0  0  0  0  0
    4.5910   -6.1800    7.9720 O   0  0  0  0  0  0  0  0  0  0  0  0
    2.6540   -5.0010    8.0260 O   0  0  0  0  0  1  0  0  0  0  0  0
   10.4530   -2.2630   -1.2420 O   0  0  0  0  0  0  0  0  0  0  0  0
   10.5740   -3.3630   -0.6130 C   0  0  0  0  0  0  0  0  0  0  0  0
   11.6540   -4.0240   -0.4900 O   0  0  0  0  0  1  0  0  0  0  0  0
  1  6  1  0  0  0  0
  2  3  1  0  0  0  0
  2  1  2  0  0  0  0
  3  4  2  0  0  0  0
  4  5  1  0  0  0  0
  4  9  1  0  0  0  0
  5  7  1  0  0  0  0
  6  5  2  0  0  0  0
  7  8  2  0  0  0  0
  8 16  1  0  0  0  0
  9  8  1  0  0  0  0
 10  9  1  0  0  0  0
 10 15  1  0  0  0  0
 11 10  1  0  0  0  0
 12 11  1  0  0  0  0
 12 13  1  0  0  0  0
 13 14  1  0  0  0  0
 14 15  1  0  0  0  0
 16 17  2  0  0  0  0
 16 20  1  0  0  0  0
 17 18  1  0  0  0  0
 18 19  2  0  0  0  0
 19 21  1  0  0  0  0
 20 19  1  0  0  0  0
 21 22  2  0  0  0  0
 21 23  1  0  0  0  0
 24 25  2  0  0  0  0
 25 26  1  0  0  0  0
 25  1  1  0  0  0  0
M  END
>  <minimizedAffinity>
-7.47800159

$$$$
