
 OpenBabel09122218043D

 26 29  0  0  0  0  0  0  0  0999 V2000
    6.2240   -6.1590    0.3760 C   0  0  0  0  0  0  0  0  0  0  0  0
    6.2030   -5.4290    1.5750 C   0  0  0  0  0  3  0  0  0  0  0  0
    7.1640   -4.4510    1.8740 C   0  0  0  0  0  3  0  0  0  0  0  0
    8.1710   -4.2190    0.9280 C   0  0  0  0  0  0  0  0  0  0  0  0
    8.2100   -4.9050   -0.2840 C   0  0  0  0  0  0  0  0  0  0  0  0
    7.2390   -5.8840   -0.5620 C   0  0  0  0  0  3  0  0  0  0  0  0
    9.2550   -4.4710   -1.0590 N   0  0  0  0  0  0  0  0  0  0  0  0
    9.8490   -3.5140   -0.3680 C   0  0  0  0  0  0  0  0  0  0  0  0
    9.2770   -3.3860    0.8880 N   0  0  0  0  0  0  0  0  0  0  0  0
    9.7620   -2.5440    1.9800 C   0  0  0  0  0  3  0  0  0  0  0  0
    9.0410   -1.1900    2.0310 C   0  0  0  0  0  2  0  0  0  0  0  0
    9.6060   -0.2990    3.1360 C   0  0  0  0  0  2  0  0  0  0  0  0
    9.5970   -1.0030    4.4910 C   0  0  0  0  0  2  0  0  0  0  0  0
   10.3340   -2.3390    4.4380 C   0  0  0  0  0  2  0  0  0  0  0  0
    9.7650   -3.2500    3.3500 C   0  0  0  0  0  2  0  0  0  0  0  0
   10.9380   -2.7400   -0.9060 C   0  0  0  0  0  0  0  0  0  0  0  0
   12.2210   -3.1770   -1.1950 C   0  0  0  0  0  3  0  0  0  0  0  0
   12.9420   -2.0710   -1.7020 C   0  0  0  0  0  3  0  0  0  0  0  0
   12.0710   -0.9980   -1.7150 C   0  0  0  0  0  0  0  0  0  0  0  0
   10.8510   -1.4160   -1.2490 O   0  0  0  0  0  0  0  0  0  0  0  0
   12.4010    0.3850   -2.1560 C   0  0  0  0  0  0  0  0  0  0  0  0
   13.6280    0.7230   -2.1140 O   0  0  0  0  0  1  0  0  0  0  0  0
   11.4330    1.1170   -2.5300 O   0  0  0  0  0  0  0  0  0  0  0  0
    5.2820   -7.8750   -0.9850 O   0  0  0  0  0  0  0  0  0  0  0  0
    5.1710   -7.2140    0.0980 C   0  0  0  0  0  0  0  0  0  0  0  0
    4.2480   -7.3660    0.9600 O   0  0  0  0  0  1  0  0  0  0  0  0
  1  2  1  0  0  0  0
  2  3  2  0  0  0  0
  4  3  1  0  0  0  0
  5  4  2  0  0  0  0
  6  5  1  0  0  0  0
  6  1  2  0  0  0  0
  7  8  2  0  0  0  0
  7  5  1  0  0  0  0
  8  9  1  0  0  0  0
  9  4  1  0  0  0  0
  9 10  1  0  0  0  0
 10 11  1  0  0  0  0
 10 15  1  0  0  0  0
 11 12  1  0  0  0  0
 12 13  1  0  0  0  0
 14 13  1  0  0  0  0
 15 14  1  0  0  0  0
 16  8  1  0  0  0  0
 17 16  2  0  0  0  0
 18 17  1  0  0  0  0
 19 18  2  0  0  0  0
 19 20  1  0  0  0  0
 20 16  1  0  0  0  0
 21 22  1  0  0  0  0
 21 19  1  0  0  0  0
 23 21  2  0  0  0  0
 24 25  2  0  0  0  0
 25  1  1  0  0  0  0
 25 26  1  0  0  0  0
M  END
>  <minimizedAffinity>
-8.44220543

$$$$

 OpenBabel09122218043D

 26 29  0  0  0  0  0  0  0  0999 V2000
    6.3630   -6.0920    0.1860 C   0  0  0  0  0  0  0  0  0  0  0  0
    7.2520   -5.6670   -0.8140 C   0  0  0  0  0  3  0  0  0  0  0  0
    8.2260   -4.6850   -0.5820 C   0  0  0  0  0  3  0  0  0  0  0  0
    8.2880   -4.1210    0.7000 C   0  0  0  0  0  0  0  0  0  0  0  0
    7.4400   -4.5360    1.7240 C   0  0  0  0  0  0  0  0  0  0  0  0
    6.4680   -5.5190    1.4690 C   0  0  0  0  0  3  0  0  0  0  0  0
    7.7250   -3.8770    2.8920 N   0  0  0  0  0  0  0  0  0  0  0  0
    8.7470   -3.0820    2.6230 C   0  0  0  0  0  0  0  0  0  0  0  0
    9.0680   -3.1320    1.2770 N   0  0  0  0  0  0  0  0  0  0  0  0
   10.0340   -2.2830    0.5830 C   0  0  0  0  0  3  0  0  0  0  0  0
   10.7440   -3.0260   -0.5580 C   0  0  0  0  0  2  0  0  0  0  0  0
   11.7960   -2.1440   -1.2280 C   0  0  0  0  0  2  0  0  0  0  0  0
   11.2090   -0.8120   -1.6900 C   0  0  0  0  0  2  0  0  0  0  0  0
   10.5240   -0.0700   -0.5450 C   0  0  0  0  0  2  0  0  0  0  0  0
    9.4530   -0.9320    0.1210 C   0  0  0  0  0  2  0  0  0  0  0  0
    9.3980   -2.2980    3.6410 C   0  0  0  0  0  0  0  0  0  0  0  0
   10.1530   -2.7600    4.7070 C   0  0  0  0  0  3  0  0  0  0  0  0
   10.5890   -1.6300    5.4400 C   0  0  0  0  0  3  0  0  0  0  0  0
   10.0920   -0.5160    4.7890 C   0  0  0  0  0  0  0  0  0  0  0  0
    9.3870   -0.9290    3.6870 O   0  0  0  0  0  0  0  0  0  0  0  0
   10.2850    0.8970    5.2140 C   0  0  0  0  0  0  0  0  0  0  0  0
   10.7320    1.0860    6.3910 O   0  0  0  0  0  1  0  0  0  0  0  0
    9.9800    1.7980    4.3730 O   0  0  0  0  0  0  0  0  0  0  0  0
    5.4710   -7.8370   -1.1730 O   0  0  0  0  0  0  0  0  0  0  0  0
    5.3170   -7.1510   -0.1120 C   0  0  0  0  0  0  0  0  0  0  0  0
    4.3580   -7.2790    0.7140 O   0  0  0  0  0  1  0  0  0  0  0  0
  1  6  1  0  0  0  0
  2  3  1  0  0  0  0
  2  1  2  0  0  0  0
  3  4  2  0  0  0  0
  4  9  1  0  0  0  0
  4  5  1  0  0  0  0
  5  7  1  0  0  0  0
  6  5  2  0  0  0  0
  8  7  2  0  0  0  0
  8 16  1  0  0  0  0
  9  8  1  0  0  0  0
 10  9  1  0  0  0  0
 11 10  1  0  0  0  0
 12 11  1  0  0  0  0
 13 12  1  0  0  0  0
 13 14  1  0  0  0  0
 14 15  1  0  0  0  0
 15 10  1  0  0  0  0
 16 20  1  0  0  0  0
 16 17  2  0  0  0  0
 17 18  1  0  0  0  0
 19 21  1  0  0  0  0
 19 18  2  0  0  0  0
 20 19  1  0  0  0  0
 21 22  1  0  0  0  0
 23 21  2  0  0  0  0
 24 25  2  0  0  0  0
 25  1  1  0  0  0  0
 25 26  1  0  0  0  0
M  END
>  <minimizedAffinity>
-7.80355167

$$$$

 OpenBabel09122218043D

 26 29  0  0  0  0  0  0  0  0999 V2000
    9.3250   -3.9310    0.0350 C   0  0  0  0  0  0  0  0  0  0  0  0
    8.5690   -4.9180   -0.6180 C   0  0  0  0  0  3  0  0  0  0  0  0
    7.4140   -5.4750   -0.0490 C   0  0  0  0  0  3  0  0  0  0  0  0
    7.0280   -5.0180    1.2180 C   0  0  0  0  0  0  0  0  0  0  0  0
    7.7390   -4.0220    1.8850 C   0  0  0  0  0  0  0  0  0  0  0  0
    8.8960   -3.4800    1.2980 C   0  0  0  0  0  3  0  0  0  0  0  0
    7.1410   -3.7110    3.0800 N   0  0  0  0  0  0  0  0  0  0  0  0
    6.0630   -4.4710    3.1570 C   0  0  0  0  0  0  0  0  0  0  0  0
    6.0000   -5.3470    2.0860 N   0  0  0  0  0  0  0  0  0  0  0  0
    5.0410   -6.4360    1.9110 C   0  0  0  0  0  3  0  0  0  0  0  0
    4.6820   -6.6600    0.4340 C   0  0  0  0  0  2  0  0  0  0  0  0
    3.6300   -7.7560    0.2760 C   0  0  0  0  0  2  0  0  0  0  0  0
    4.0530   -9.0510    0.9660 C   0  0  0  0  0  2  0  0  0  0  0  0
    4.3870   -8.8240    2.4370 C   0  0  0  0  0  2  0  0  0  0  0  0
    5.4550   -7.7450    2.6110 C   0  0  0  0  0  2  0  0  0  0  0  0
    5.1150   -4.3520    4.2350 C   0  0  0  0  0  0  0  0  0  0  0  0
    4.0630   -3.4550    4.3380 C   0  0  0  0  0  3  0  0  0  0  0  0
    3.4080   -3.7080    5.5660 C   0  0  0  0  0  3  0  0  0  0  0  0
    4.0780   -4.7580    6.1670 C   0  0  0  0  0  0  0  0  0  0  0  0
    5.1000   -5.1560    5.3440 O   0  0  0  0  0  0  0  0  0  0  0  0
    3.7490   -5.3550    7.4900 C   0  0  0  0  0  0  0  0  0  0  0  0
    4.5910   -6.1800    7.9720 O   0  0  0  0  0  0  0  0  0  0  0  0
    2.6540   -5.0010    8.0260 O   0  0  0  0  0  1  0  0  0  0  0  0
   10.4530   -2.2630   -1.2420 O   0  0  0  0  0  0  0  0  0  0  0  0
   10.5740   -3.3630   -0.6130 C   0  0  0  0  0  0  0  0  0  0  0  0
   11.6540   -4.0240   -0.4900 O   0  0  0  0  0  1  0  0  0  0  0  0
  1  6  1  0  0  0  0
  2  3  1  0  0  0  0
  2  1  2  0  0  0  0
  3  4  2  0  0  0  0
  4  5  1  0  0  0  0
  4  9  1  0  0  0  0
  5  7  1  0  0  0  0
  6  5  2  0  0  0  0
  7  8  2  0  0  0  0
  8 16  1  0  0  0  0
  9  8  1  0  0  0  0
 10  9  1  0  0  0  0
 10 15  1  0  0  0  0
 11 10  1  0  0  0  0
 12 11  1  0  0  0  0
 12 13  1  0  0  0  0
 13 14  1  0  0  0  0
 14 15  1  0  0  0  0
 16 17  2  0  0  0  0
 16 20  1  0  0  0  0
 17 18  1  0  0  0  0
 18 19  2  0  0  0  0
 19 21  1  0  0  0  0
 20 19  1  0  0  0  0
 21 22  2  0  0  0  0
 21 23  1  0  0  0  0
 24 25  2  0  0  0  0
 25 26  1  0  0  0  0
 25  1  1  0  0  0  0
M  END
>  <minimizedAffinity>
-7.47800159

$$$$

 OpenBabel09122218043D

 26 29  0  0  0  0  0  0  0  0999 V2000
    9.1470   -3.8870    0.5380 C   0  0  0  0  0  0  0  0  0  0  0  0
    8.7360   -3.0530    1.5900 C   0  0  0  0  0  3  0  0  0  0  0  0
    7.6530   -3.3740    2.4210 C   0  0  0  0  0  3  0  0  0  0  0  0
    6.9710   -4.5710    2.1670 C   0  0  0  0  0  0  0  0  0  0  0  0
    7.3660   -5.4370    1.1490 C   0  0  0  0  0  0  0  0  0  0  0  0
    8.4520   -5.0940    0.3250 C   0  0  0  0  0  3  0  0  0  0  0  0
    6.5790   -6.5600    1.1310 N   0  0  0  0  0  0  0  0  0  0  0  0
    5.7230   -6.4240    2.1280 C   0  0  0  0  0  0  0  0  0  0  0  0
    5.8670   -5.1860    2.7340 N   0  0  0  0  0  0  0  0  0  0  0  0
    5.0010   -4.6200    3.7660 C   0  0  0  0  0  3  0  0  0  0  0  0
    5.8030   -3.9640    4.8990 C   0  0  0  0  0  2  0  0  0  0  0  0
    4.8840   -3.4360    6.0000 C   0  0  0  0  0  2  0  0  0  0  0  0
    3.8110   -2.5030    5.4430 C   0  0  0  0  0  2  0  0  0  0  0  0
    3.0040   -3.1690    4.3320 C   0  0  0  0  0  2  0  0  0  0  0  0
    3.9090   -3.6830    3.2130 C   0  0  0  0  0  2  0  0  0  0  0  0
    4.7940   -7.4620    2.4900 C   0  0  0  0  0  0  0  0  0  0  0  0
    3.8830   -8.1040    1.6660 C   0  0  0  0  0  3  0  0  0  0  0  0
    3.1850   -9.0470    2.4570 C   0  0  0  0  0  3  0  0  0  0  0  0
    3.7020   -8.9560    3.7360 C   0  0  0  0  0  0  0  0  0  0  0  0
    4.6900   -8.0060    3.7440 O   0  0  0  0  0  0  0  0  0  0  0  0
    3.2560   -9.7510    4.9120 C   0  0  0  0  0  0  0  0  0  0  0  0
    4.1560  -10.1050    5.7400 O   0  0  0  0  0  1  0  0  0  0  0  0
    2.0170  -10.0180    4.9920 O   0  0  0  0  0  0  0  0  0  0  0  0
   10.1680   -2.4770   -1.0910 O   0  0  0  0  0  0  0  0  0  0  0  0
   10.3180   -3.4960   -0.3430 C   0  0  0  0  0  0  0  0  0  0  0  0
   11.3680   -4.2120   -0.2790 O   0  0  0  0  0  1  0  0  0  0  0  0
  1  2  1  0  0  0  0
  2  3  2  0  0  0  0
  4  3  1  0  0  0  0
  4  9  1  0  0  0  0
  5  4  2  0  0  0  0
  6  1  2  0  0  0  0
  6  5  1  0  0  0  0
  7  5  1  0  0  0  0
  7  8  2  0  0  0  0
  8 16  1  0  0  0  0
  8  9  1  0  0  0  0
  9 10  1  0  0  0  0
 10 11  1  0  0  0  0
 11 12  1  0  0  0  0
 13 12  1  0  0  0  0
 14 13  1  0  0  0  0
 15 10  1  0  0  0  0
 15 14  1  0  0  0  0
 16 20  1  0  0  0  0
 17 18  1  0  0  0  0
 17 16  2  0  0  0  0
 18 19  2  0  0  0  0
 19 20  1  0  0  0  0
 19 21  1  0  0  0  0
 21 23  2  0  0  0  0
 21 22  1  0  0  0  0
 24 25  2  0  0  0  0
 25 26  1  0  0  0  0
 25  1  1  0  0  0  0
M  END
>  <minimizedAffinity>
-7.04909039

$$$$

 OpenBabel09122218043D

 26 29  0  0  0  0  0  0  0  0999 V2000
    5.0880   -6.5180    0.7770 C   0  0  0  0  0  0  0  0  0  0  0  0
    4.5470   -7.5530    1.5560 C   0  0  0  0  0  3  0  0  0  0  0  0
    4.0070   -7.3280    2.8300 C   0  0  0  0  0  3  0  0  0  0  0  0
    4.0260   -6.0150    3.3210 C   0  0  0  0  0  0  0  0  0  0  0  0
    4.5300   -4.9590    2.5670 C   0  0  0  0  0  0  0  0  0  0  0  0
    5.0710   -5.2080    1.2930 C   0  0  0  0  0  3  0  0  0  0  0  0
    4.3940   -3.7700    3.2370 N   0  0  0  0  0  0  0  0  0  0  0  0
    3.7930   -4.0610    4.3780 C   0  0  0  0  0  0  0  0  0  0  0  0
    3.6280   -5.4300    4.5120 N   0  0  0  0  0  0  0  0  0  0  0  0
    3.1460   -6.1340    5.6990 C   0  0  0  0  0  3  0  0  0  0  0  0
    3.8570   -5.6680    6.9770 C   0  0  0  0  0  2  0  0  0  0  0  0
    3.3870   -6.4600    8.1970 C   0  0  0  0  0  2  0  0  0  0  0  0
    1.8680   -6.4270    8.3430 C   0  0  0  0  0  2  0  0  0  0  0  0
    1.1680   -6.9110    7.0760 C   0  0  0  0  0  2  0  0  0  0  0  0
    1.6120   -6.1130    5.8500 C   0  0  0  0  0  2  0  0  0  0  0  0
    3.3860   -3.0440    5.3130 C   0  0  0  0  0  0  0  0  0  0  0  0
    2.1510   -2.4190    5.3940 C   0  0  0  0  0  3  0  0  0  0  0  0
    2.2140   -1.4920    6.4610 C   0  0  0  0  0  3  0  0  0  0  0  0
    3.4830   -1.5900    7.0010 C   0  0  0  0  0  0  0  0  0  0  0  0
    4.1810   -2.5470    6.3110 O   0  0  0  0  0  0  0  0  0  0  0  0
    4.0080   -0.7870    8.1380 C   0  0  0  0  0  0  0  0  0  0  0  0
    5.2550   -0.5250    8.1290 O   0  0  0  0  0  0  0  0  0  0  0  0
    3.1740   -0.4340    9.0290 O   0  0  0  0  0  1  0  0  0  0  0  0
    6.4050   -5.9090   -1.1150 O   0  0  0  0  0  1  0  0  0  0  0  0
    5.6720   -6.8090   -0.5930 C   0  0  0  0  0  0  0  0  0  0  0  0
    5.3870   -7.9280   -1.1280 O   0  0  0  0  0  0  0  0  0  0  0  0
  1  6  2  0  0  0  0
  1  2  1  0  0  0  0
  2  3  2  0  0  0  0
  3  4  1  0  0  0  0
  4  9  1  0  0  0  0
  5  7  1  0  0  0  0
  5  4  2  0  0  0  0
  6  5  1  0  0  0  0
  7  8  2  0  0  0  0
  8  9  1  0  0  0  0
  8 16  1  0  0  0  0
  9 10  1  0  0  0  0
 10 15  1  0  0  0  0
 10 11  1  0  0  0  0
 11 12  1  0  0  0  0
 12 13  1  0  0  0  0
 14 13  1  0  0  0  0
 15 14  1  0  0  0  0
 16 17  2  0  0  0  0
 16 20  1  0  0  0  0
 17 18  1  0  0  0  0
 18 19  2  0  0  0  0
 19 21  1  0  0  0  0
 20 19  1  0  0  0  0
 21 23  1  0  0  0  0
 22 21  2  0  0  0  0
 24 25  1  0  0  0  0
 25  1  1  0  0  0  0
 26 25  2  0  0  0  0
M  END
>  <minimizedAffinity>
-7.04114819

$$$$

 OpenBabel09122218043D

 26 29  0  0  0  0  0  0  0  0999 V2000
    5.0470   -6.5030    0.9080 C   0  0  0  0  0  0  0  0  0  0  0  0
    4.4100   -7.5140    1.6450 C   0  0  0  0  0  3  0  0  0  0  0  0
    3.8070   -7.2690    2.8870 C   0  0  0  0  0  3  0  0  0  0  0  0
    3.8610   -5.9630    3.3900 C   0  0  0  0  0  0  0  0  0  0  0  0
    4.4620   -4.9280    2.6760 C   0  0  0  0  0  0  0  0  0  0  0  0
    5.0640   -5.1960    1.4340 C   0  0  0  0  0  3  0  0  0  0  0  0
    4.3450   -3.7380    3.3480 N   0  0  0  0  0  0  0  0  0  0  0  0
    3.6640   -4.0060    4.4490 C   0  0  0  0  0  0  0  0  0  0  0  0
    3.4240   -5.3650    4.5610 N   0  0  0  0  0  0  0  0  0  0  0  0
    2.8380   -6.0510    5.7110 C   0  0  0  0  0  3  0  0  0  0  0  0
    1.3670   -6.4240    5.4750 C   0  0  0  0  0  2  0  0  0  0  0  0
    0.7530   -7.0800    6.7100 C   0  0  0  0  0  2  0  0  0  0  0  0
    1.5770   -8.2740    7.1860 C   0  0  0  0  0  2  0  0  0  0  0  0
    3.0320   -7.8910    7.4390 C   0  0  0  0  0  2  0  0  0  0  0  0
    3.6670   -7.2530    6.2040 C   0  0  0  0  0  2  0  0  0  0  0  0
    3.2530   -2.9750    5.3670 C   0  0  0  0  0  0  0  0  0  0  0  0
    2.0810   -2.2360    5.3350 C   0  0  0  0  0  3  0  0  0  0  0  0
    2.1130   -1.3430    6.4330 C   0  0  0  0  0  3  0  0  0  0  0  0
    3.2990   -1.5750    7.1030 C   0  0  0  0  0  0  0  0  0  0  0  0
    3.9770   -2.5800    6.4620 O   0  0  0  0  0  0  0  0  0  0  0  0
    3.7690   -0.8520    8.3160 C   0  0  0  0  0  0  0  0  0  0  0  0
    2.8980   -0.6100    9.2130 O   0  0  0  0  0  1  0  0  0  0  0  0
    4.9960   -0.5280    8.3550 O   0  0  0  0  0  0  0  0  0  0  0  0
    5.3870   -7.9190   -0.9800 O   0  0  0  0  0  0  0  0  0  0  0  0
    5.6950   -6.8140   -0.4280 C   0  0  0  0  0  0  0  0  0  0  0  0
    6.5040   -5.9550   -0.9030 O   0  0  0  0  0  1  0  0  0  0  0  0
  1  6  2  0  0  0  0
  1  2  1  0  0  0  0
  2  3  2  0  0  0  0
  3  4  1  0  0  0  0
  4  9  1  0  0  0  0
  5  7  1  0  0  0  0
  5  4  2  0  0  0  0
  6  5  1  0  0  0  0
  7  8  2  0  0  0  0
  8  9  1  0  0  0  0
  8 16  1  0  0  0  0
  9 10  1  0  0  0  0
 10 15  1  0  0  0  0
 11 10  1  0  0  0  0
 11 12  1  0  0  0  0
 12 13  1  0  0  0  0
 13 14  1  0  0  0  0
 15 14  1  0  0  0  0
 16 20  1  0  0  0  0
 17 16  2  0  0  0  0
 17 18  1  0  0  0  0
 18 19  2  0  0  0  0
 19 21  1  0  0  0  0
 20 19  1  0  0  0  0
 21 23  2  0  0  0  0
 21 22  1  0  0  0  0
 24 25  2  0  0  0  0
 25  1  1  0  0  0  0
 26 25  1  0  0  0  0
M  END
>  <minimizedAffinity>
-6.77425623

$$$$

 OpenBabel09122218043D

 26 29  0  0  0  0  0  0  0  0999 V2000
    5.4130   -6.6900    2.3220 C   0  0  0  0  0  0  0  0  0  0  0  0
    5.5160   -5.3490    2.7260 C   0  0  0  0  0  3  0  0  0  0  0  0
    4.6570   -4.7870    3.6810 C   0  0  0  0  0  3  0  0  0  0  0  0
    3.6670   -5.6110    4.2310 C   0  0  0  0  0  0  0  0  0  0  0  0
    3.5510   -6.9530    3.8750 C   0  0  0  0  0  0  0  0  0  0  0  0
    4.4200   -7.4960    2.9120 C   0  0  0  0  0  3  0  0  0  0  0  0
    2.5450   -7.5610    4.5810 N   0  0  0  0  0  0  0  0  0  0  0  0
    2.0520   -6.6360    5.3860 C   0  0  0  0  0  0  0  0  0  0  0  0
    2.6460   -5.4070    5.1450 N   0  0  0  0  0  0  0  0  0  0  0  0
    2.2550   -4.1260    5.7290 C   0  0  0  0  0  3  0  0  0  0  0  0
    3.1570   -3.7270    6.9060 C   0  0  0  0  0  2  0  0  0  0  0  0
    2.6930   -2.4180    7.5440 C   0  0  0  0  0  2  0  0  0  0  0  0
    2.5680   -1.2980    6.5140 C   0  0  0  0  0  2  0  0  0  0  0  0
    1.6540   -1.6950    5.3580 C   0  0  0  0  0  2  0  0  0  0  0  0
    2.1170   -2.9910    4.6940 C   0  0  0  0  0  2  0  0  0  0  0  0
    1.0370   -6.9300    6.3640 C   0  0  0  0  0  0  0  0  0  0  0  0
   -0.2540   -7.3780    6.1320 C   0  0  0  0  0  3  0  0  0  0  0  0
   -0.8850   -7.5260    7.3900 C   0  0  0  0  0  3  0  0  0  0  0  0
    0.0470   -7.1730    8.3480 C   0  0  0  0  0  0  0  0  0  0  0  0
    1.2160   -6.8310    7.7190 O   0  0  0  0  0  0  0  0  0  0  0  0
   -0.1810   -7.1590    9.8190 C   0  0  0  0  0  0  0  0  0  0  0  0
   -1.3770   -7.3370   10.2160 O   0  0  0  0  0  0  0  0  0  0  0  0
    0.8340   -6.9630   10.5570 O   0  0  0  0  0  1  0  0  0  0  0  0
    5.8700   -7.5090    0.1300 O   0  0  0  0  0  0  0  0  0  0  0  0
    6.3570   -7.2550    1.2780 C   0  0  0  0  0  0  0  0  0  0  0  0
    7.5690   -7.4410    1.6200 O   0  0  0  0  0  1  0  0  0  0  0  0
  1  2  2  0  0  0  0
  1  6  1  0  0  0  0
  2  3  1  0  0  0  0
  3  4  2  0  0  0  0
  4  9  1  0  0  0  0
  5  4  1  0  0  0  0
  5  7  1  0  0  0  0
  6  5  2  0  0  0  0
  7  8  2  0  0  0  0
  8 16  1  0  0  0  0
  9  8  1  0  0  0  0
  9 10  1  0  0  0  0
 10 11  1  0  0  0  0
 11 12  1  0  0  0  0
 13 12  1  0  0  0  0
 14 13  1  0  0  0  0
 15 14  1  0  0  0  0
 15 10  1  0  0  0  0
 16 20  1  0  0  0  0
 17 16  2  0  0  0  0
 17 18  1  0  0  0  0
 18 19  2  0  0  0  0
 19 21  1  0  0  0  0
 20 19  1  0  0  0  0
 21 22  2  0  0  0  0
 21 23  1  0  0  0  0
 24 25  2  0  0  0  0
 25 26  1  0  0  0  0
 25  1  1  0  0  0  0
M  END
>  <minimizedAffinity>
-6.70137644

$$$$

 OpenBabel09122218043D

 26 29  0  0  0  0  0  0  0  0999 V2000
    9.1280   -1.4180    5.5370 C   0  0  0  0  0  0  0  0  0  0  0  0
    9.8750   -0.6950    4.5930 C   0  0  0  0  0  3  0  0  0  0  0  0
    9.9300   -1.0630    3.2410 C   0  0  0  0  0  3  0  0  0  0  0  0
    9.2100   -2.1990    2.8460 C   0  0  0  0  0  0  0  0  0  0  0  0
    8.4370   -2.9260    3.7490 C   0  0  0  0  0  0  0  0  0  0  0  0
    8.3990   -2.5420    5.1010 C   0  0  0  0  0  3  0  0  0  0  0  0
    7.7910   -3.9580    3.1180 N   0  0  0  0  0  0  0  0  0  0  0  0
    8.1240   -3.8720    1.8420 C   0  0  0  0  0  0  0  0  0  0  0  0
    9.0580   -2.8690    1.6430 N   0  0  0  0  0  0  0  0  0  0  0  0
    9.7700   -2.5800    0.4000 C   0  0  0  0  0  3  0  0  0  0  0  0
    9.8210   -1.0760    0.0980 C   0  0  0  0  0  2  0  0  0  0  0  0
   10.5110   -0.7990   -1.2370 C   0  0  0  0  0  2  0  0  0  0  0  0
   11.8940   -1.4430   -1.3050 C   0  0  0  0  0  2  0  0  0  0  0  0
   11.8320   -2.9420   -1.0240 C   0  0  0  0  0  2  0  0  0  0  0  0
   11.1630   -3.2340    0.3190 C   0  0  0  0  0  2  0  0  0  0  0  0
    7.5530   -4.7350    0.8400 C   0  0  0  0  0  0  0  0  0  0  0  0
    7.9220   -4.8410   -0.4910 C   0  0  0  0  0  3  0  0  0  0  0  0
    7.0840   -5.8120   -1.0890 C   0  0  0  0  0  3  0  0  0  0  0  0
    6.2370   -6.2730   -0.0980 C   0  0  0  0  0  0  0  0  0  0  0  0
    6.5410   -5.6290    1.0740 O   0  0  0  0  0  0  0  0  0  0  0  0
    5.1690   -7.2940   -0.2730 C   0  0  0  0  0  0  0  0  0  0  0  0
    5.3460   -8.1590   -1.1900 O   0  0  0  0  0  0  0  0  0  0  0  0
    4.1650   -7.2160    0.5010 O   0  0  0  0  0  1  0  0  0  0  0  0
    9.7690   -1.6970    7.8170 O   0  0  0  0  0  1  0  0  0  0  0  0
    9.1040   -0.9900    6.9920 C   0  0  0  0  0  0  0  0  0  0  0  0
    8.4210    0.0410    7.2920 O   0  0  0  0  0  0  0  0  0  0  0  0
  1 25  1  0  0  0  0
  2  1  2  0  0  0  0
  3  2  1  0  0  0  0
  4  3  2  0  0  0  0
  4  5  1  0  0  0  0
  5  6  2  0  0  0  0
  6  1  1  0  0  0  0
  7  5  1  0  0  0  0
  8  7  2  0  0  0  0
  9  8  1  0  0  0  0
  9  4  1  0  0  0  0
 10  9  1  0  0  0  0
 11 10  1  0  0  0  0
 12 11  1  0  0  0  0
 13 12  1  0  0  0  0
 13 14  1  0  0  0  0
 14 15  1  0  0  0  0
 15 10  1  0  0  0  0
 16 20  1  0  0  0  0
 16  8  1  0  0  0  0
 17 16  2  0  0  0  0
 18 17  1  0  0  0  0
 18 19  2  0  0  0  0
 19 20  1  0  0  0  0
 21 19  1  0  0  0  0
 21 23  1  0  0  0  0
 22 21  2  0  0  0  0
 25 26  2  0  0  0  0
 25 24  1  0  0  0  0
M  END
>  <minimizedAffinity>
-6.70030499

$$$$

 OpenBabel09122218043D

 26 29  0  0  0  0  0  0  0  0999 V2000
    5.1020   -6.5430    0.8050 C   0  0  0  0  0  0  0  0  0  0  0  0
    5.0710   -5.2090    1.2400 C   0  0  0  0  0  3  0  0  0  0  0  0
    4.6180   -4.8470    2.5170 C   0  0  0  0  0  3  0  0  0  0  0  0
    4.1810   -5.8720    3.3670 C   0  0  0  0  0  0  0  0  0  0  0  0
    4.2210   -7.2100    2.9800 C   0  0  0  0  0  0  0  0  0  0  0  0
    4.6750   -7.5500    1.6940 C   0  0  0  0  0  3  0  0  0  0  0  0
    3.7910   -8.0250    3.9960 N   0  0  0  0  0  0  0  0  0  0  0  0
    3.5110   -7.2270    5.0110 C   0  0  0  0  0  0  0  0  0  0  0  0
    3.6490   -5.8980    4.6450 N   0  0  0  0  0  0  0  0  0  0  0  0
    3.2810   -4.7350    5.4490 C   0  0  0  0  0  3  0  0  0  0  0  0
    4.4850   -4.1430    6.1960 C   0  0  0  0  0  2  0  0  0  0  0  0
    4.0690   -2.9690    7.0820 C   0  0  0  0  0  2  0  0  0  0  0  0
    3.3060   -1.9070    6.2930 C   0  0  0  0  0  2  0  0  0  0  0  0
    2.0990   -2.4990    5.5710 C   0  0  0  0  0  2  0  0  0  0  0  0
    2.5020   -3.6610    4.6640 C   0  0  0  0  0  2  0  0  0  0  0  0
    3.1220   -7.7350    6.3020 C   0  0  0  0  0  0  0  0  0  0  0  0
    1.8500   -8.0910    6.7200 C   0  0  0  0  0  3  0  0  0  0  0  0
    1.9520   -8.5310    8.0610 C   0  0  0  0  0  3  0  0  0  0  0  0
    3.2860   -8.4380    8.4120 C   0  0  0  0  0  0  0  0  0  0  0  0
    3.9920   -7.9720    7.3340 O   0  0  0  0  0  0  0  0  0  0  0  0
    3.8610   -8.7790    9.7410 C   0  0  0  0  0  0  0  0  0  0  0  0
    4.0810  -10.0110    9.9730 O   0  0  0  0  0  0  0  0  0  0  0  0
    4.0780   -7.8150   10.5400 O   0  0  0  0  0  1  0  0  0  0  0  0
    6.2420   -5.9920   -1.2150 O   0  0  0  0  0  0  0  0  0  0  0  0
    5.5900   -6.8890   -0.5890 C   0  0  0  0  0  0  0  0  0  0  0  0
    5.3130   -8.0460   -1.0390 O   0  0  0  0  0  1  0  0  0  0  0  0
  1  2  2  0  0  0  0
  1  6  1  0  0  0  0
  2  3  1  0  0  0  0
  3  4  2  0  0  0  0
  4  9  1  0  0  0  0
  5  4  1  0  0  0  0
  5  7  1  0  0  0  0
  6  5  2  0  0  0  0
  7  8  2  0  0  0  0
  8 16  1  0  0  0  0
  9  8  1  0  0  0  0
  9 10  1  0  0  0  0
 10 11  1  0  0  0  0
 11 12  1  0  0  0  0
 13 12  1  0  0  0  0
 14 13  1  0  0  0  0
 15 10  1  0  0  0  0
 15 14  1  0  0  0  0
 16 17  2  0  0  0  0
 16 20  1  0  0  0  0
 17 18  1  0  0  0  0
 18 19  2  0  0  0  0
 19 21  1  0  0  0  0
 20 19  1  0  0  0  0
 21 22  2  0  0  0  0
 21 23  1  0  0  0  0
 24 25  2  0  0  0  0
 25  1  1  0  0  0  0
 26 25  1  0  0  0  0
M  END
>  <minimizedAffinity>
-6.51567364

$$$$

 OpenBabel09122218043D

 26 29  0  0  0  0  0  0  0  0999 V2000
    4.6450   -6.6880    1.4420 C   0  0  0  0  0  0  0  0  0  0  0  0
    4.7910   -5.2920    1.4430 C   0  0  0  0  0  3  0  0  0  0  0  0
    4.6090   -4.5200    2.6000 C   0  0  0  0  0  3  0  0  0  0  0  0
    4.2640   -5.1900    3.7810 C   0  0  0  0  0  0  0  0  0  0  0  0
    4.1360   -6.5770    3.8250 C   0  0  0  0  0  0  0  0  0  0  0  0
    4.3190   -7.3310    2.6530 C   0  0  0  0  0  3  0  0  0  0  0  0
    3.8430   -7.0000    5.0960 N   0  0  0  0  0  0  0  0  0  0  0  0
    3.8130   -5.9130    5.8460 C   0  0  0  0  0  0  0  0  0  0  0  0
    3.9770   -4.7760    5.0710 N   0  0  0  0  0  0  0  0  0  0  0  0
    3.8480   -3.3920    5.5230 C   0  0  0  0  0  3  0  0  0  0  0  0
    2.3830   -2.9860    5.7350 C   0  0  0  0  0  2  0  0  0  0  0  0
    2.2650   -1.5180    6.1430 C   0  0  0  0  0  2  0  0  0  0  0  0
    3.1290   -1.1970    7.3600 C   0  0  0  0  0  2  0  0  0  0  0  0
    4.5880   -1.5840    7.1330 C   0  0  0  0  0  2  0  0  0  0  0  0
    4.7250   -3.0560    6.7460 C   0  0  0  0  0  2  0  0  0  0  0  0
    3.6340   -5.9690    7.2740 C   0  0  0  0  0  0  0  0  0  0  0  0
    2.4730   -5.7220    7.9890 C   0  0  0  0  0  3  0  0  0  0  0  0
    2.7750   -5.8950    9.3610 C   0  0  0  0  0  3  0  0  0  0  0  0
    4.1080   -6.2530    9.4350 C   0  0  0  0  0  0  0  0  0  0  0  0
    4.6180   -6.3140    8.1640 O   0  0  0  0  0  0  0  0  0  0  0  0
    4.8680   -6.5210   10.6860 C   0  0  0  0  0  0  0  0  0  0  0  0
    4.5030   -7.5280   11.3750 O   0  0  0  0  0  1  0  0  0  0  0  0
    5.8120   -5.7200   10.9700 O   0  0  0  0  0  0  0  0  0  0  0  0
    4.4800   -8.7030    0.1790 O   0  0  0  0  0  1  0  0  0  0  0  0
    4.8410   -7.4830    0.1650 C   0  0  0  0  0  0  0  0  0  0  0  0
    5.3550   -6.8800   -0.8300 O   0  0  0  0  0  0  0  0  0  0  0  0
  1  2  2  0  0  0  0
  1  6  1  0  0  0  0
  2  3  1  0  0  0  0
  3  4  2  0  0  0  0
  4  5  1  0  0  0  0
  4  9  1  0  0  0  0
  5  7  1  0  0  0  0
  6  5  2  0  0  0  0
  7  8  2  0  0  0  0
  8 16  1  0  0  0  0
  9 10  1  0  0  0  0
  9  8  1  0  0  0  0
 10 11  1  0  0  0  0
 10 15  1  0  0  0  0
 11 12  1  0  0  0  0
 12 13  1  0  0  0  0
 14 13  1  0  0  0  0
 15 14  1  0  0  0  0
 16 17  2  0  0  0  0
 16 20  1  0  0  0  0
 17 18  1  0  0  0  0
 18 19  2  0  0  0  0
 19 21  1  0  0  0  0
 20 19  1  0  0  0  0
 21 23  2  0  0  0  0
 21 22  1  0  0  0  0
 25 24  1  0  0  0  0
 25  1  1  0  0  0  0
 26 25  2  0  0  0  0
M  END
>  <minimizedAffinity>
-6.42807388

$$$$
