
 OpenBabel09122222393D

 26 29  0  0  0  0  0  0  0  0999 V2000
    4.6450   -6.6880    1.4420 C   0  0  0  0  0  0  0  0  0  0  0  0
    4.7910   -5.2920    1.4430 C   0  0  0  0  0  3  0  0  0  0  0  0
    4.6090   -4.5200    2.6000 C   0  0  0  0  0  3  0  0  0  0  0  0
    4.2640   -5.1900    3.7810 C   0  0  0  0  0  0  0  0  0  0  0  0
    4.1360   -6.5770    3.8250 C   0  0  0  0  0  0  0  0  0  0  0  0
    4.3190   -7.3310    2.6530 C   0  0  0  0  0  3  0  0  0  0  0  0
    3.8430   -7.0000    5.0960 N   0  0  0  0  0  0  0  0  0  0  0  0
    3.8130   -5.9130    5.8460 C   0  0  0  0  0  0  0  0  0  0  0  0
    3.9770   -4.7760    5.0710 N   0  0  0  0  0  0  0  0  0  0  0  0
    3.8480   -3.3920    5.5230 C   0  0  0  0  0  3  0  0  0  0  0  0
    2.3830   -2.9860    5.7350 C   0  0  0  0  0  2  0  0  0  0  0  0
    2.2650   -1.5180    6.1430 C   0  0  0  0  0  2  0  0  0  0  0  0
    3.1290   -1.1970    7.3600 C   0  0  0  0  0  2  0  0  0  0  0  0
    4.5880   -1.5840    7.1330 C   0  0  0  0  0  2  0  0  0  0  0  0
    4.7250   -3.0560    6.7460 C   0  0  0  0  0  2  0  0  0  0  0  0
    3.6340   -5.9690    7.2740 C   0  0  0  0  0  0  0  0  0  0  0  0
    2.4730   -5.7220    7.9890 C   0  0  0  0  0  3  0  0  0  0  0  0
    2.7750   -5.8950    9.3610 C   0  0  0  0  0  3  0  0  0  0  0  0
    4.1080   -6.2530    9.4350 C   0  0  0  0  0  0  0  0  0  0  0  0
    4.6180   -6.3140    8.1640 O   0  0  0  0  0  0  0  0  0  0  0  0
    4.8680   -6.5210   10.6860 C   0  0  0  0  0  0  0  0  0  0  0  0
    4.5030   -7.5280   11.3750 O   0  0  0  0  0  1  0  0  0  0  0  0
    5.8120   -5.7200   10.9700 O   0  0  0  0  0  0  0  0  0  0  0  0
    4.4800   -8.7030    0.1790 O   0  0  0  0  0  1  0  0  0  0  0  0
    4.8410   -7.4830    0.1650 C   0  0  0  0  0  0  0  0  0  0  0  0
    5.3550   -6.8800   -0.8300 O   0  0  0  0  0  0  0  0  0  0  0  0
  1  2  2  0  0  0  0
  1  6  1  0  0  0  0
  2  3  1  0  0  0  0
  3  4  2  0  0  0  0
  4  5  1  0  0  0  0
  4  9  1  0  0  0  0
  5  7  1  0  0  0  0
  6  5  2  0  0  0  0
  7  8  2  0  0  0  0
  8 16  1  0  0  0  0
  9 10  1  0  0  0  0
  9  8  1  0  0  0  0
 10 11  1  0  0  0  0
 10 15  1  0  0  0  0
 11 12  1  0  0  0  0
 12 13  1  0  0  0  0
 14 13  1  0  0  0  0
 15 14  1  0  0  0  0
 16 17  2  0  0  0  0
 16 20  1  0  0  0  0
 17 18  1  0  0  0  0
 18 19  2  0  0  0  0
 19 21  1  0  0  0  0
 20 19  1  0  0  0  0
 21 23  2  0  0  0  0
 21 22  1  0  0  0  0
 25 24  1  0  0  0  0
 25  1  1  0  0  0  0
 26 25  2  0  0  0  0
M  END
>  <minimizedAffinity>
-6.42807388

$$$$
