
 OpenBabel09122222393D

 26 29  0  0  0  0  0  0  0  0999 V2000
    9.1280   -1.4180    5.5370 C   0  0  0  0  0  0  0  0  0  0  0  0
    9.8750   -0.6950    4.5930 C   0  0  0  0  0  3  0  0  0  0  0  0
    9.9300   -1.0630    3.2410 C   0  0  0  0  0  3  0  0  0  0  0  0
    9.2100   -2.1990    2.8460 C   0  0  0  0  0  0  0  0  0  0  0  0
    8.4370   -2.9260    3.7490 C   0  0  0  0  0  0  0  0  0  0  0  0
    8.3990   -2.5420    5.1010 C   0  0  0  0  0  3  0  0  0  0  0  0
    7.7910   -3.9580    3.1180 N   0  0  0  0  0  0  0  0  0  0  0  0
    8.1240   -3.8720    1.8420 C   0  0  0  0  0  0  0  0  0  0  0  0
    9.0580   -2.8690    1.6430 N   0  0  0  0  0  0  0  0  0  0  0  0
    9.7700   -2.5800    0.4000 C   0  0  0  0  0  3  0  0  0  0  0  0
    9.8210   -1.0760    0.0980 C   0  0  0  0  0  2  0  0  0  0  0  0
   10.5110   -0.7990   -1.2370 C   0  0  0  0  0  2  0  0  0  0  0  0
   11.8940   -1.4430   -1.3050 C   0  0  0  0  0  2  0  0  0  0  0  0
   11.8320   -2.9420   -1.0240 C   0  0  0  0  0  2  0  0  0  0  0  0
   11.1630   -3.2340    0.3190 C   0  0  0  0  0  2  0  0  0  0  0  0
    7.5530   -4.7350    0.8400 C   0  0  0  0  0  0  0  0  0  0  0  0
    7.9220   -4.8410   -0.4910 C   0  0  0  0  0  3  0  0  0  0  0  0
    7.0840   -5.8120   -1.0890 C   0  0  0  0  0  3  0  0  0  0  0  0
    6.2370   -6.2730   -0.0980 C   0  0  0  0  0  0  0  0  0  0  0  0
    6.5410   -5.6290    1.0740 O   0  0  0  0  0  0  0  0  0  0  0  0
    5.1690   -7.2940   -0.2730 C   0  0  0  0  0  0  0  0  0  0  0  0
    5.3460   -8.1590   -1.1900 O   0  0  0  0  0  0  0  0  0  0  0  0
    4.1650   -7.2160    0.5010 O   0  0  0  0  0  1  0  0  0  0  0  0
    9.7690   -1.6970    7.8170 O   0  0  0  0  0  1  0  0  0  0  0  0
    9.1040   -0.9900    6.9920 C   0  0  0  0  0  0  0  0  0  0  0  0
    8.4210    0.0410    7.2920 O   0  0  0  0  0  0  0  0  0  0  0  0
  1 25  1  0  0  0  0
  2  1  2  0  0  0  0
  3  2  1  0  0  0  0
  4  3  2  0  0  0  0
  4  5  1  0  0  0  0
  5  6  2  0  0  0  0
  6  1  1  0  0  0  0
  7  5  1  0  0  0  0
  8  7  2  0  0  0  0
  9  8  1  0  0  0  0
  9  4  1  0  0  0  0
 10  9  1  0  0  0  0
 11 10  1  0  0  0  0
 12 11  1  0  0  0  0
 13 12  1  0  0  0  0
 13 14  1  0  0  0  0
 14 15  1  0  0  0  0
 15 10  1  0  0  0  0
 16 20  1  0  0  0  0
 16  8  1  0  0  0  0
 17 16  2  0  0  0  0
 18 17  1  0  0  0  0
 18 19  2  0  0  0  0
 19 20  1  0  0  0  0
 21 19  1  0  0  0  0
 21 23  1  0  0  0  0
 22 21  2  0  0  0  0
 25 26  2  0  0  0  0
 25 24  1  0  0  0  0
M  END
>  <minimizedAffinity>
-6.70030499

$$$$
