REMARK  Name = 
REMARK  10 active torsions:
REMARK  status: ('A' for Active; 'I' for Inactive)
REMARK    1  A    between atoms: C_2  and  C_26
REMARK    2  A    between atoms: N_3  and  CA_4
REMARK    3  A    between atoms: CA_4  and  C_5
REMARK    4  A    between atoms: CA_4  and  C_23
REMARK    5  A    between atoms: C_5  and  C_6
REMARK    6  A    between atoms: C_12  and  N_13
REMARK    7  A    between atoms: N_13  and  S_14
REMARK    8  A    between atoms: S_14  and  C_17
REMARK    9  A    between atoms: C_33  and  C_34
REMARK   10  A    between atoms: N_39  and  C_40
REMARK                            x       y       z     vdW  Elec       q    Type
REMARK                         _______ _______ _______ _____ _____    ______ ____
ROOT
ATOM      1  O   UNL     1       1.441   0.128   0.337  0.00  0.00    -0.270 OA
ATOM      2  C   UNL     1       2.632  -0.174   0.395  0.00  0.00    +0.245 C 
ATOM      3  N   UNL     1       3.360   0.014   1.532  0.00  0.00    -0.303 N 
ATOM      4  H   UNL     1       2.823   0.216   2.368  0.00  0.00    +0.150 HD
ENDROOT
BRANCH   2   5
ATOM      5  C   UNL     1       3.267  -0.747  -0.811  0.00  0.00    +0.039 A 
ATOM      6  C   UNL     1       3.063  -0.104  -2.037  0.00  0.00    +0.015 A 
ATOM      7  C   UNL     1       3.570  -0.637  -3.228  0.00  0.00    +0.029 A 
ATOM      8  C   UNL     1       4.279  -1.844  -3.144  0.00  0.00    +0.069 A 
ATOM      9  C   UNL     1       4.487  -2.495  -1.931  0.00  0.00    +0.090 A 
ATOM     10  C   UNL     1       3.957  -1.964  -0.746  0.00  0.00    +0.043 A 
ATOM     11  N   UNL     1       5.233  -3.626  -2.109  0.00  0.00    -0.227 NA
ATOM     12  C   UNL     1       5.559  -3.659  -3.386  0.00  0.00    +0.145 A 
ATOM     13  N   UNL     1       4.875  -2.675  -4.079  0.00  0.00    -0.320 N 
BRANCH  13  14
ATOM     14  C   UNL     1       4.717  -2.590  -5.526  0.00  0.00    +0.089 C 
ATOM     15  C   UNL     1       3.249  -2.593  -5.992  0.00  0.00    +0.025 C 
ATOM     16  C   UNL     1       3.156  -2.583  -7.517  0.00  0.00    +0.002 C 
ATOM     17  C   UNL     1       3.936  -1.416  -8.118  0.00  0.00    +0.000 C 
ATOM     18  C   UNL     1       5.392  -1.412  -7.659  0.00  0.00    +0.002 C 
ATOM     19  C   UNL     1       5.509  -1.425  -6.136  0.00  0.00    +0.025 C 
ENDBRANCH  13  14
BRANCH  12  20
ATOM     20  C   UNL     1       6.552  -4.656  -3.889  0.00  0.00    +0.055 A 
ATOM     21  C   UNL     1       7.240  -4.768  -5.122  0.00  0.00    +0.052 A 
ATOM     22  C   UNL     1       8.056  -5.871  -5.011  0.00  0.00    +0.195 A 
ATOM     23  O   UNL     1       7.927  -6.439  -3.786  0.00  0.00    -0.470 OA
ATOM     24  C   UNL     1       7.027  -5.685  -3.103  0.00  0.00    +0.206 A 
ENDBRANCH  12  20
ENDBRANCH   2   5
BRANCH   3  25
ATOM     25  CA  UNL     1       4.822  -0.060   1.789  0.00  0.00    +0.123 C 
BRANCH  25  26
ATOM     26  C   UNL     1       5.222  -0.868   3.060  0.00  0.00    +0.062 C 
ATOM     27  O   UNL     1       6.460  -1.097   3.189  0.00  0.00    -0.548 OA
ATOM     28  OXT UNL     1       4.263  -1.221   3.810  0.00  0.00    -0.548 OA
ENDBRANCH  25  26
BRANCH  25  29
ATOM     29  C   UNL     1       5.461   1.340   1.851  0.00  0.00    +0.065 C 
BRANCH  29  30
ATOM     30  C   UNL     1       4.840   2.328   2.810  0.00  0.00    -0.020 A 
ATOM     31  C   UNL     1       4.540   2.109   4.140  0.00  0.00    +0.087 A 
ATOM     32  N   UNL     1       4.003   3.248   4.666  0.00  0.00    -0.360 N 
ATOM     33  C   UNL     1       3.980   4.243   3.718  0.00  0.00    +0.047 A 
ATOM     34  C   UNL     1       3.550   5.571   3.820  0.00  0.00    +0.028 A 
ATOM     35  C   UNL     1       3.655   6.373   2.681  0.00  0.00    +0.026 A 
ATOM     36  C   UNL     1       4.159   5.855   1.490  0.00  0.00    +0.049 A 
ATOM     37  C   UNL     1       4.590   4.528   1.404  0.00  0.00    +0.034 A 
ATOM     38  C   UNL     1       4.497   3.697   2.541  0.00  0.00    +0.005 A 
ATOM     39  H   UNL     1       3.685   3.343   5.619  0.00  0.00    +0.165 HD
BRANCH  36  40
ATOM     40  N   UNL     1       4.294   6.704   0.351  0.00  0.00    -0.213 N 
ATOM     41  H   UNL     1       3.500   7.323   0.181  0.00  0.00    +0.174 HD
BRANCH  40  42
ATOM     42  S   UNL     1       5.742   7.597   0.223  0.00  0.00    +0.141 S 
ATOM     43  O   UNL     1       5.403   8.651  -0.724  0.00  0.00    -0.147 OA
ATOM     44  O   UNL     1       6.164   7.981   1.558  0.00  0.00    -0.147 OA
BRANCH  42  45
ATOM     45  C   UNL     1       6.951   6.422  -0.569  0.00  0.00    +0.538 C 
ATOM     46  F   UNL     1       7.337   5.419   0.266  0.00  0.00    -0.149 F 
ATOM     47  F   UNL     1       6.429   5.829  -1.683  0.00  0.00    -0.149 F 
ATOM     48  F   UNL     1       8.090   7.060  -0.968  0.00  0.00    -0.149 F 
ENDBRANCH  42  45
ENDBRANCH  40  42
ENDBRANCH  36  40
ENDBRANCH  29  30
ENDBRANCH  25  29
ENDBRANCH   3  25
TORSDOF 10
