
 OpenBabel09122222393D

 48 53  0  0  1  0  0  0  0  0999 V2000
    4.8320   -7.4790   -1.1910 O   0  0  0  0  0  0  0  0  0  0  0  0
    5.3130   -7.3120   -0.0710 C   0  0  0  0  0  0  0  0  0  0  0  0
    4.9710   -8.1130    0.9780 N   0  0  0  0  0  0  0  0  0  0  0  0
    4.4700   -8.9610    0.7370 H   0  0  0  0  0  0  0  0  0  0  0  0
    6.2790   -6.2090    0.1170 C   0  0  0  0  0  0  0  0  0  0  0  0
    6.9850   -5.7470   -1.0000 C   0  0  0  0  0  3  0  0  0  0  0  0
    7.9700   -4.7600   -0.8780 C   0  0  0  0  0  3  0  0  0  0  0  0
    8.2270   -4.2610    0.4080 C   0  0  0  0  0  0  0  0  0  0  0  0
    7.5330   -4.7130    1.5270 C   0  0  0  0  0  0  0  0  0  0  0  0
    6.5640   -5.7180    1.3980 C   0  0  0  0  0  3  0  0  0  0  0  0
    7.9400   -4.0500    2.6500 N   0  0  0  0  0  0  0  0  0  0  0  0
    8.8130   -3.1460    2.2520 C   0  0  0  0  0  0  0  0  0  0  0  0
    9.1270   -3.3400    0.9180 N   0  0  0  0  0  0  0  0  0  0  0  0
   10.2640   -2.7670    0.2070 C   0  0  0  0  0  3  0  0  0  0  0  0
   11.0140   -3.7770   -0.6830 C   0  0  0  0  0  2  0  0  0  0  0  0
   12.2360   -3.1340   -1.3350 C   0  0  0  0  0  2  0  0  0  0  0  0
   11.8600   -1.8720   -2.1080 C   0  0  0  0  0  2  0  0  0  0  0  0
   11.1190   -0.8690   -1.2280 C   0  0  0  0  0  2  0  0  0  0  0  0
    9.8930   -1.4920   -0.5630 C   0  0  0  0  0  2  0  0  0  0  0  0
    9.3070   -2.1000    3.1990 C   0  0  0  0  0  0  0  0  0  0  0  0
    9.9480   -2.1900    4.4590 C   0  0  0  0  0  3  0  0  0  0  0  0
   10.2020   -0.8970    4.8570 C   0  0  0  0  0  3  0  0  0  0  0  0
    9.7710   -0.0160    3.9200 O   0  0  0  0  0  0  0  0  0  0  0  0
    9.2460   -0.7530    2.9070 C   0  0  0  0  0  3  0  0  0  0  0  0
    5.2330   -7.9910    2.4360 C   0  0  2  0  0  3  0  0  0  0  0  0
    6.2550   -9.0200    3.0050 C   0  0  0  0  0  0  0  0  0  0  0  0
    7.4230   -8.9470    2.5220 O   0  0  0  0  0  0  0  0  0  0  0  0
    5.7990   -9.8260    3.8700 O   0  0  0  0  0  1  0  0  0  0  0  0
    3.9300   -8.0580    3.2560 C   0  0  0  0  0  2  0  0  0  0  0  0
    3.6880   -6.9370    4.2380 C   0  0  0  0  0  0  0  0  0  0  0  0
    4.0330   -5.6090    4.0760 C   0  0  0  0  0  3  0  0  0  0  0  0
    3.6340   -4.9110    5.1790 N   0  0  0  0  0  0  0  0  0  0  0  0
    2.9860   -5.7440    6.0590 C   0  0  0  0  0  0  0  0  0  0  0  0
    2.3870   -5.4570    7.2910 C   0  0  0  0  0  3  0  0  0  0  0  0
    1.7820   -6.5140    7.9760 C   0  0  0  0  0  3  0  0  0  0  0  0
    1.7910   -7.8030    7.4470 C   0  0  0  0  0  0  0  0  0  0  0  0
    2.3880   -8.0730    6.2120 C   0  0  0  0  0  3  0  0  0  0  0  0
    3.0050   -7.0230    5.4990 C   0  0  0  0  0  0  0  0  0  0  0  0
    3.7840   -3.9220    5.3140 H   0  0  0  0  0  0  0  0  0  0  0  0
    1.1310   -8.8580    8.1450 N   0  0  0  0  0  0  0  0  0  0  0  0
    1.1560   -8.7800    9.1630 H   0  0  0  0  0  0  0  0  0  0  0  0
   -0.4570   -9.2360    7.6480 S   0  0  0  0  0  0  0  0  0  0  0  0
   -0.3900   -9.1200    6.1980 O   0  0  0  0  0  0  0  0  0  0  0  0
   -0.8240  -10.5190    8.2210 O   0  0  0  0  0  0  0  0  0  0  0  0
   -1.5040   -7.8540    8.3290 C   0  0  0  0  0  0  0  0  0  0  0  0
   -1.7160   -6.8580    7.4270 F   0  0  0  0  0  0  0  0  0  0  0  0
   -2.7340   -8.2960    8.7250 F   0  0  0  0  0  0  0  0  0  0  0  0
   -0.9300   -7.2760    9.4250 F   0  0  0  0  0  0  0  0  0  0  0  0
  1  2  2  0  0  0  0
  2  5  1  0  0  0  0
  2  3  1  0  0  0  0
  3 25  1  0  0  0  0
  4  3  1  0  0  0  0
  5 10  1  0  0  0  0
  6  7  1  0  0  0  0
  6  5  2  0  0  0  0
  7  8  2  0  0  0  0
  8 13  1  0  0  0  0
  8  9  1  0  0  0  0
  9 11  1  0  0  0  0
 10  9  2  0  0  0  0
 12 11  2  0  0  0  0
 12 20  1  0  0  0  0
 13 12  1  0  0  0  0
 14 13  1  0  0  0  0
 15 14  1  0  0  0  0
 16 15  1  0  0  0  0
 17 16  1  0  0  0  0
 17 18  1  0  0  0  0
 18 19  1  0  0  0  0
 19 14  1  0  0  0  0
 20 21  1  0  0  0  0
 21 22  2  0  0  0  0
 23 22  1  0  0  0  0
 24 20  2  0  0  0  0
 24 23  1  0  0  0  0
 25 26  1  0  0  0  0
 25 29  1  1  0  0  0
 26 28  1  0  0  0  0
 27 26  2  0  0  0  0
 29 30  1  0  0  0  0
 30 38  1  0  0  0  0
 31 30  2  0  0  0  0
 31 32  1  0  0  0  0
 32 39  1  0  0  0  0
 32 33  1  0  0  0  0
 33 34  1  0  0  0  0
 34 35  2  0  0  0  0
 36 35  1  0  0  0  0
 36 40  1  0  0  0  0
 37 36  2  0  0  0  0
 38 33  2  0  0  0  0
 38 37  1  0  0  0  0
 40 41  1  0  0  0  0
 42 40  1  0  0  0  0
 42 44  2  0  0  0  0
 42 45  1  0  0  0  0
 43 42  2  0  0  0  0
 45 47  1  0  0  0  0
 45 48  1  0  0  0  0
 46 45  1  0  0  0  0
M  END
>  <minimizedAffinity>
-9.05949593

$$$$
