
 OpenBabel09122222393D

 48 53  0  0  1  0  0  0  0  0999 V2000
    8.8120   -4.1810   -0.9900 O   0  0  0  0  0  0  0  0  0  0  0  0
    8.3870   -4.6120    0.0800 C   0  0  0  0  0  0  0  0  0  0  0  0
    7.7200   -5.7990    0.1560 N   0  0  0  0  0  0  0  0  0  0  0  0
    7.7800   -6.3880   -0.6670 H   0  0  0  0  0  0  0  0  0  0  0  0
    8.6110   -3.8040    1.2980 C   0  0  0  0  0  0  0  0  0  0  0  0
    9.6340   -2.8490    1.2810 C   0  0  0  0  0  3  0  0  0  0  0  0
    9.9510   -2.1060    2.4240 C   0  0  0  0  0  3  0  0  0  0  0  0
    9.2100   -2.3630    3.5860 C   0  0  0  0  0  0  0  0  0  0  0  0
    8.1910   -3.3120    3.6170 C   0  0  0  0  0  0  0  0  0  0  0  0
    7.8960   -4.0670    2.4720 C   0  0  0  0  0  3  0  0  0  0  0  0
    7.6000   -3.3490    4.8490 N   0  0  0  0  0  0  0  0  0  0  0  0
    8.1710   -2.4010    5.5640 C   0  0  0  0  0  0  0  0  0  0  0  0
    9.2570   -1.8770    4.8830 N   0  0  0  0  0  0  0  0  0  0  0  0
   10.3180   -1.0550    5.4520 C   0  0  0  0  0  3  0  0  0  0  0  0
   10.1110    0.4570    5.2450 C   0  0  0  0  0  2  0  0  0  0  0  0
   11.2930    1.2550    5.7920 C   0  0  0  0  0  2  0  0  0  0  0  0
   11.5650    0.9190    7.2570 C   0  0  0  0  0  2  0  0  0  0  0  0
   11.7730   -0.5790    7.4650 C   0  0  0  0  0  2  0  0  0  0  0  0
   10.6020   -1.3970    6.9210 C   0  0  0  0  0  2  0  0  0  0  0  0
    7.6200   -2.0230    6.9010 C   0  0  0  0  0  0  0  0  0  0  0  0
    7.2240   -0.7770    7.4440 C   0  0  0  0  0  3  0  0  0  0  0  0
    6.7620   -1.0380    8.7140 C   0  0  0  0  0  3  0  0  0  0  0  0
    6.8330   -2.3650    8.9850 O   0  0  0  0  0  0  0  0  0  0  0  0
    7.3360   -2.9600    7.8730 C   0  0  0  0  0  3  0  0  0  0  0  0
    6.9370   -6.4200    1.2560 C   0  0  2  0  0  3  0  0  0  0  0  0
    7.5480   -7.7320    1.8330 C   0  0  0  0  0  0  0  0  0  0  0  0
    8.5400   -8.1930    1.1970 O   0  0  0  0  0  0  0  0  0  0  0  0
    6.9730   -8.1990    2.8610 O   0  0  0  0  0  1  0  0  0  0  0  0
    5.4760   -6.6760    0.8400 C   0  0  0  0  0  2  0  0  0  0  0  0
    4.5570   -7.2370    1.9000 C   0  0  0  0  0  0  0  0  0  0  0  0
    3.8820   -8.4410    1.8520 C   0  0  0  0  0  3  0  0  0  0  0  0
    3.1670   -8.5930    3.0040 N   0  0  0  0  0  0  0  0  0  0  0  0
    3.3890   -7.5280    3.8440 C   0  0  0  0  0  0  0  0  0  0  0  0
    2.8950   -7.2810    5.1300 C   0  0  0  0  0  3  0  0  0  0  0  0
    3.3040   -6.1040    5.7630 C   0  0  0  0  0  3  0  0  0  0  0  0
    4.1610   -5.2130    5.1230 C   0  0  0  0  0  0  0  0  0  0  0  0
    4.6510   -5.4760    3.8400 C   0  0  0  0  0  3  0  0  0  0  0  0
    4.2560   -6.6580    3.1790 C   0  0  0  0  0  0  0  0  0  0  0  0
    2.5750   -9.3840    3.2090 H   0  0  0  0  0  0  0  0  0  0  0  0
    4.5970   -4.0370    5.8050 N   0  0  0  0  0  0  0  0  0  0  0  0
    5.3470   -3.5240    5.3390 H   0  0  0  0  0  0  0  0  0  0  0  0
    3.3870   -2.9400    6.2990 S   0  0  0  0  0  0  0  0  0  0  0  0
    2.6500   -3.6880    7.3090 O   0  0  0  0  0  0  0  0  0  0  0  0
    4.0270   -1.6980    6.6930 O   0  0  0  0  0  0  0  0  0  0  0  0
    2.3140   -2.7140    4.7940 C   0  0  0  0  0  0  0  0  0  0  0  0
    1.5010   -1.6260    4.8840 F   0  0  0  0  0  0  0  0  0  0  0  0
    3.0560   -2.5590    3.6580 F   0  0  0  0  0  0  0  0  0  0  0  0
    1.5040   -3.7930    4.5830 F   0  0  0  0  0  0  0  0  0  0  0  0
  1  2  2  0  0  0  0
  2  3  1  0  0  0  0
  2  5  1  0  0  0  0
  3 25  1  0  0  0  0
  4  3  1  0  0  0  0
  5 10  1  0  0  0  0
  6  5  2  0  0  0  0
  6  7  1  0  0  0  0
  7  8  2  0  0  0  0
  8  9  1  0  0  0  0
  8 13  1  0  0  0  0
  9 11  1  0  0  0  0
 10  9  2  0  0  0  0
 11 12  2  0  0  0  0
 12 20  1  0  0  0  0
 13 14  1  0  0  0  0
 13 12  1  0  0  0  0
 14 19  1  0  0  0  0
 15 14  1  0  0  0  0
 15 16  1  0  0  0  0
 16 17  1  0  0  0  0
 17 18  1  0  0  0  0
 19 18  1  0  0  0  0
 20 21  1  0  0  0  0
 20 24  2  0  0  0  0
 21 22  2  0  0  0  0
 22 23  1  0  0  0  0
 24 23  1  0  0  0  0
 25 29  1  6  0  0  0
 25 26  1  0  0  0  0
 26 28  1  0  0  0  0
 27 26  2  0  0  0  0
 29 30  1  0  0  0  0
 30 38  1  0  0  0  0
 31 30  2  0  0  0  0
 31 32  1  0  0  0  0
 32 39  1  0  0  0  0
 32 33  1  0  0  0  0
 33 34  1  0  0  0  0
 34 35  2  0  0  0  0
 36 35  1  0  0  0  0
 36 40  1  0  0  0  0
 37 36  2  0  0  0  0
 38 37  1  0  0  0  0
 38 33  2  0  0  0  0
 40 42  1  0  0  0  0
 41 40  1  0  0  0  0
 42 44  2  0  0  0  0
 42 43  2  0  0  0  0
 45 46  1  0  0  0  0
 45 42  1  0  0  0  0
 47 45  1  0  0  0  0
 48 45  1  0  0  0  0
M  END
>  <minimizedAffinity>
-8.69877148

$$$$
