
 OpenBabel09122222393D

 48 53  0  0  1  0  0  0  0  0999 V2000
    4.6000   -7.5580   -1.3120 O   0  0  0  0  0  0  0  0  0  0  0  0
    5.0390   -7.4550   -0.1670 C   0  0  0  0  0  0  0  0  0  0  0  0
    4.6430   -8.3020    0.8250 N   0  0  0  0  0  0  0  0  0  0  0  0
    4.1410   -9.1290    0.5220 H   0  0  0  0  0  0  0  0  0  0  0  0
    6.0110   -6.3780    0.1150 C   0  0  0  0  0  0  0  0  0  0  0  0
    6.8100   -5.9140   -0.9360 C   0  0  0  0  0  3  0  0  0  0  0  0
    7.8040   -4.9520   -0.7210 C   0  0  0  0  0  3  0  0  0  0  0  0
    7.9730   -4.4810    0.5890 C   0  0  0  0  0  0  0  0  0  0  0  0
    7.1860   -4.9360    1.6440 C   0  0  0  0  0  0  0  0  0  0  0  0
    6.2070   -5.9160    1.4220 C   0  0  0  0  0  3  0  0  0  0  0  0
    7.5200   -4.3010    2.8070 N   0  0  0  0  0  0  0  0  0  0  0  0
    8.4400   -3.4110    2.4940 C   0  0  0  0  0  0  0  0  0  0  0  0
    8.8510   -3.5900    1.1840 N   0  0  0  0  0  0  0  0  0  0  0  0
   10.0510   -3.0320    0.5720 C   0  0  0  0  0  3  0  0  0  0  0  0
   10.9930   -4.0920   -0.0280 C   0  0  0  0  0  2  0  0  0  0  0  0
   12.2650   -3.4480   -0.5790 C   0  0  0  0  0  2  0  0  0  0  0  0
   11.9430   -2.3450   -1.5850 C   0  0  0  0  0  2  0  0  0  0  0  0
   11.0110   -1.2920   -0.9920 C   0  0  0  0  0  2  0  0  0  0  0  0
    9.7330   -1.9140   -0.4310 C   0  0  0  0  0  2  0  0  0  0  0  0
    8.8820   -2.3940    3.4950 C   0  0  0  0  0  0  0  0  0  0  0  0
    9.0850   -2.4680    4.8950 C   0  0  0  0  0  3  0  0  0  0  0  0
    9.5270   -1.2260    5.2890 C   0  0  0  0  0  3  0  0  0  0  0  0
    9.6240   -0.3930    4.2220 O   0  0  0  0  0  0  0  0  0  0  0  0
    9.2500   -1.1140    3.1340 C   0  0  0  0  0  3  0  0  0  0  0  0
    4.8480   -8.2580    2.2970 C   0  0  2  0  0  3  0  0  0  0  0  0
    6.0080   -9.1550    2.8230 C   0  0  0  0  0  0  0  0  0  0  0  0
    5.8110  -10.4020    2.7340 O   0  0  0  0  0  0  0  0  0  0  0  0
    7.0080   -8.5370    3.2970 O   0  0  0  0  0  1  0  0  0  0  0  0
    3.5540   -8.5950    3.0620 C   0  0  0  0  0  2  0  0  0  0  0  0
    3.6750   -8.7660    4.5580 C   0  0  0  0  0  0  0  0  0  0  0  0
    3.9630   -9.9360    5.2330 C   0  0  0  0  0  3  0  0  0  0  0  0
    3.9960   -9.6770    6.5720 N   0  0  0  0  0  0  0  0  0  0  0  0
    3.7780   -8.3400    6.8020 C   0  0  0  0  0  0  0  0  0  0  0  0
    3.7570   -7.6270    8.0070 C   0  0  0  0  0  3  0  0  0  0  0  0
    3.5190   -6.2520    7.9400 C   0  0  0  0  0  3  0  0  0  0  0  0
    3.3010   -5.6270    6.7140 C   0  0  0  0  0  0  0  0  0  0  0  0
    3.3300   -6.3500    5.5180 C   0  0  0  0  0  3  0  0  0  0  0  0
    3.5710   -7.7400    5.5580 C   0  0  0  0  0  0  0  0  0  0  0  0
    4.1720  -10.3700    7.2840 H   0  0  0  0  0  0  0  0  0  0  0  0
    3.1000   -4.2150    6.6670 N   0  0  0  0  0  0  0  0  0  0  0  0
    3.0320   -3.7610    7.5790 H   0  0  0  0  0  0  0  0  0  0  0  0
    4.1540   -3.3200    5.6680 S   0  0  0  0  0  0  0  0  0  0  0  0
    4.0910   -1.9780    6.2320 O   0  0  0  0  0  0  0  0  0  0  0  0
    5.4400   -3.9930    5.6370 O   0  0  0  0  0  0  0  0  0  0  0  0
    3.3350   -3.3250    3.9950 C   0  0  0  0  0  0  0  0  0  0  0  0
    2.0140   -3.6460    4.0550 F   0  0  0  0  0  0  0  0  0  0  0  0
    3.4170   -2.1060    3.3840 F   0  0  0  0  0  0  0  0  0  0  0  0
    3.9190   -4.2220    3.1480 F   0  0  0  0  0  0  0  0  0  0  0  0
  1  2  2  0  0  0  0
  2  5  1  0  0  0  0
  2  3  1  0  0  0  0
  3 25  1  0  0  0  0
  4  3  1  0  0  0  0
  5 10  1  0  0  0  0
  6  7  1  0  0  0  0
  6  5  2  0  0  0  0
  7  8  2  0  0  0  0
  8 13  1  0  0  0  0
  8  9  1  0  0  0  0
  9 11  1  0  0  0  0
 10  9  2  0  0  0  0
 12 11  2  0  0  0  0
 12 20  1  0  0  0  0
 13 12  1  0  0  0  0
 14 13  1  0  0  0  0
 15 14  1  0  0  0  0
 16 15  1  0  0  0  0
 17 18  1  0  0  0  0
 17 16  1  0  0  0  0
 18 19  1  0  0  0  0
 19 14  1  0  0  0  0
 20 21  1  0  0  0  0
 21 22  2  0  0  0  0
 23 22  1  0  0  0  0
 24 20  2  0  0  0  0
 24 23  1  0  0  0  0
 25 26  1  0  0  0  0
 25 29  1  1  0  0  0
 26 28  1  0  0  0  0
 27 26  2  0  0  0  0
 29 30  1  0  0  0  0
 30 31  2  0  0  0  0
 30 38  1  0  0  0  0
 31 32  1  0  0  0  0
 32 33  1  0  0  0  0
 32 39  1  0  0  0  0
 33 34  1  0  0  0  0
 35 34  2  0  0  0  0
 36 35  1  0  0  0  0
 37 38  1  0  0  0  0
 37 36  2  0  0  0  0
 38 33  2  0  0  0  0
 40 36  1  0  0  0  0
 40 41  1  0  0  0  0
 42 43  2  0  0  0  0
 42 40  1  0  0  0  0
 44 42  2  0  0  0  0
 45 46  1  0  0  0  0
 45 42  1  0  0  0  0
 47 45  1  0  0  0  0
 48 45  1  0  0  0  0
M  END
>  <minimizedAffinity>
-8.9128828

$$$$
