
 OpenBabel09122222393D

 48 53  0  0  1  0  0  0  0  0999 V2000
    9.7240   -4.8820   -0.1850 O   0  0  0  0  0  0  0  0  0  0  0  0
    9.1330   -4.1370    0.5950 C   0  0  0  0  0  0  0  0  0  0  0  0
    9.6280   -2.9100    0.9210 N   0  0  0  0  0  0  0  0  0  0  0  0
   10.3850   -2.5730    0.3360 H   0  0  0  0  0  0  0  0  0  0  0  0
    7.8600   -4.6080    1.1820 C   0  0  0  0  0  0  0  0  0  0  0  0
    7.1410   -3.7290    1.9990 C   0  0  0  0  0  3  0  0  0  0  0  0
    5.9700   -4.1370    2.6490 C   0  0  0  0  0  3  0  0  0  0  0  0
    5.5550   -5.4620    2.4580 C   0  0  0  0  0  0  0  0  0  0  0  0
    6.2630   -6.3480    1.6500 C   0  0  0  0  0  0  0  0  0  0  0  0
    7.4460   -5.9360    1.0200 C   0  0  0  0  0  3  0  0  0  0  0  0
    5.6380   -7.5630    1.5980 N   0  0  0  0  0  0  0  0  0  0  0  0
    4.5220   -7.4360    2.2890 C   0  0  0  0  0  0  0  0  0  0  0  0
    4.5060   -6.2210    2.9520 N   0  0  0  0  0  0  0  0  0  0  0  0
    3.6200   -5.8480    4.0480 C   0  0  0  0  0  3  0  0  0  0  0  0
    4.1850   -6.1730    5.4430 C   0  0  0  0  0  2  0  0  0  0  0  0
    3.1770   -5.8310    6.5390 C   0  0  0  0  0  2  0  0  0  0  0  0
    2.7140   -4.3790    6.4420 C   0  0  0  0  0  2  0  0  0  0  0  0
    2.1510   -4.0550    5.0600 C   0  0  0  0  0  2  0  0  0  0  0  0
    3.1430   -4.3920    3.9480 C   0  0  0  0  0  2  0  0  0  0  0  0
    3.4900   -8.5160    2.2650 C   0  0  0  0  0  0  0  0  0  0  0  0
    2.7720   -9.1630    3.3010 C   0  0  0  0  0  3  0  0  0  0  0  0
    1.9270  -10.0580    2.6860 C   0  0  0  0  0  3  0  0  0  0  0  0
    2.0660   -9.9980    1.3380 O   0  0  0  0  0  0  0  0  0  0  0  0
    3.0030   -9.0460    1.0890 C   0  0  0  0  0  3  0  0  0  0  0  0
    9.2350   -1.9370    1.9740 C   0  0  2  0  0  3  0  0  0  0  0  0
    9.1890   -0.4520    1.5060 C   0  0  0  0  0  0  0  0  0  0  0  0
    9.6310   -0.2370    0.3400 O   0  0  0  0  0  0  0  0  0  0  0  0
    8.7340    0.3760    2.3510 O   0  0  0  0  0  1  0  0  0  0  0  0
   10.1310   -2.0540    3.2210 C   0  0  0  0  0  2  0  0  0  0  0  0
    9.4490   -1.9170    4.5620 C   0  0  0  0  0  0  0  0  0  0  0  0
    8.6290   -2.8480    5.1680 C   0  0  0  0  0  3  0  0  0  0  0  0
    8.2210   -2.3580    6.3750 N   0  0  0  0  0  0  0  0  0  0  0  0
    8.7930   -1.1300    6.6070 C   0  0  0  0  0  0  0  0  0  0  0  0
    8.6850   -0.2840    7.7160 C   0  0  0  0  0  3  0  0  0  0  0  0
    9.3980    0.9170    7.6840 C   0  0  0  0  0  3  0  0  0  0  0  0
   10.1740    1.2550    6.5770 C   0  0  0  0  0  0  0  0  0  0  0  0
   10.2760    0.3970    5.4780 C   0  0  0  0  0  3  0  0  0  0  0  0
    9.5680   -0.8240    5.4860 C   0  0  0  0  0  0  0  0  0  0  0  0
    7.6010   -2.8420    7.0080 H   0  0  0  0  0  0  0  0  0  0  0  0
   10.9240    2.4680    6.5840 N   0  0  0  0  0  0  0  0  0  0  0  0
   11.9170    2.3600    6.3700 H   0  0  0  0  0  0  0  0  0  0  0  0
   10.2930    3.7700    5.6790 S   0  0  0  0  0  0  0  0  0  0  0  0
    8.8650    3.4830    5.6310 O   0  0  0  0  0  0  0  0  0  0  0  0
   10.7250    5.0100    6.2960 O   0  0  0  0  0  0  0  0  0  0  0  0
   11.0210    3.5570    3.9780 C   0  0  0  0  0  0  0  0  0  0  0  0
   12.0920    2.7170    3.9630 F   0  0  0  0  0  0  0  0  0  0  0  0
   10.1110    3.0520    3.0940 F   0  0  0  0  0  0  0  0  0  0  0  0
   11.4480    4.7450    3.4580 F   0  0  0  0  0  0  0  0  0  0  0  0
  1  2  2  0  0  0  0
  2  3  1  0  0  0  0
  2  5  1  0  0  0  0
  3 25  1  0  0  0  0
  4  3  1  0  0  0  0
  5  6  1  0  0  0  0
  6  7  2  0  0  0  0
  8  7  1  0  0  0  0
  8 13  1  0  0  0  0
  9  8  2  0  0  0  0
 10  5  2  0  0  0  0
 10  9  1  0  0  0  0
 11  9  1  0  0  0  0
 11 12  2  0  0  0  0
 12 13  1  0  0  0  0
 13 14  1  0  0  0  0
 14 15  1  0  0  0  0
 15 16  1  0  0  0  0
 17 16  1  0  0  0  0
 18 17  1  0  0  0  0
 19 14  1  0  0  0  0
 19 18  1  0  0  0  0
 20 12  1  0  0  0  0
 20 21  1  0  0  0  0
 22 21  2  0  0  0  0
 23 22  1  0  0  0  0
 24 23  1  0  0  0  0
 24 20  2  0  0  0  0
 25 29  1  1  0  0  0
 26 25  1  0  0  0  0
 26 28  1  0  0  0  0
 27 26  2  0  0  0  0
 29 30  1  0  0  0  0
 30 31  2  0  0  0  0
 30 38  1  0  0  0  0
 31 32  1  0  0  0  0
 32 33  1  0  0  0  0
 32 39  1  0  0  0  0
 33 34  1  0  0  0  0
 35 34  2  0  0  0  0
 36 40  1  0  0  0  0
 36 35  1  0  0  0  0
 37 38  1  0  0  0  0
 37 36  2  0  0  0  0
 38 33  2  0  0  0  0
 41 40  1  0  0  0  0
 42 44  2  0  0  0  0
 42 40  1  0  0  0  0
 43 42  2  0  0  0  0
 45 42  1  0  0  0  0
 46 45  1  0  0  0  0
 47 45  1  0  0  0  0
 48 45  1  0  0  0  0
M  END
>  <minimizedAffinity>
-8.169631

$$$$
