
 OpenBabel09122222393D

 48 53  0  0  1  0  0  0  0  0999 V2000
   11.2110   -1.9920    6.2480 O   0  0  0  0  0  0  0  0  0  0  0  0
   10.3870   -2.0750    5.3380 C   0  0  0  0  0  0  0  0  0  0  0  0
   10.7670   -2.0540    4.0290 N   0  0  0  0  0  0  0  0  0  0  0  0
   11.7590   -2.1760    3.8590 H   0  0  0  0  0  0  0  0  0  0  0  0
    8.9580   -2.1920    5.6980 C   0  0  0  0  0  0  0  0  0  0  0  0
    8.4470   -1.3300    6.6750 C   0  0  0  0  0  3  0  0  0  0  0  0
    7.1240   -1.4400    7.1180 C   0  0  0  0  0  3  0  0  0  0  0  0
    6.3370   -2.4540    6.5530 C   0  0  0  0  0  0  0  0  0  0  0  0
    6.8330   -3.3190    5.5820 C   0  0  0  0  0  0  0  0  0  0  0  0
    8.1670   -3.2140    5.1600 C   0  0  0  0  0  3  0  0  0  0  0  0
    5.8650   -4.1900    5.1670 N   0  0  0  0  0  0  0  0  0  0  0  0
    4.7600   -3.8440    5.7970 C   0  0  0  0  0  0  0  0  0  0  0  0
    5.0370   -2.8890    6.7600 N   0  0  0  0  0  0  0  0  0  0  0  0
    4.1650   -2.4920    7.8590 C   0  0  0  0  0  3  0  0  0  0  0  0
    3.2660   -1.2850    7.5330 C   0  0  0  0  0  2  0  0  0  0  0  0
    2.4380   -0.8720    8.7490 C   0  0  0  0  0  2  0  0  0  0  0  0
    1.6300   -2.0450    9.3000 C   0  0  0  0  0  2  0  0  0  0  0  0
    2.5190   -3.2420    9.6250 C   0  0  0  0  0  2  0  0  0  0  0  0
    3.3590   -3.6700    8.4230 C   0  0  0  0  0  2  0  0  0  0  0  0
    3.4500   -4.4570    5.4200 C   0  0  0  0  0  0  0  0  0  0  0  0
    2.8440   -5.6880    5.7720 C   0  0  0  0  0  3  0  0  0  0  0  0
    1.6160   -5.7060    5.1520 C   0  0  0  0  0  3  0  0  0  0  0  0
    1.4170   -4.5610    4.4520 O   0  0  0  0  0  0  0  0  0  0  0  0
    2.5260   -3.7990    4.6350 C   0  0  0  0  0  3  0  0  0  0  0  0
    9.9780   -1.9220    2.7760 C   0  0  2  0  0  3  0  0  0  0  0  0
    9.2740   -0.5440    2.5900 C   0  0  0  0  0  0  0  0  0  0  0  0
    9.6090    0.3520    3.4180 O   0  0  0  0  0  1  0  0  0  0  0  0
    8.4310   -0.4820    1.6450 O   0  0  0  0  0  0  0  0  0  0  0  0
    8.9400   -3.0510    2.6350 C   0  0  0  0  0  2  0  0  0  0  0  0
    8.7480   -3.6280    1.2520 C   0  0  0  0  0  0  0  0  0  0  0  0
    9.5570   -3.4200    0.1530 C   0  0  0  0  0  3  0  0  0  0  0  0
    9.0570   -4.1230   -0.9040 N   0  0  0  0  0  0  0  0  0  0  0  0
    7.9470   -4.8360   -0.5170 C   0  0  0  0  0  0  0  0  0  0  0  0
    7.1390   -5.7100   -1.2530 C   0  0  0  0  0  3  0  0  0  0  0  0
    6.0680   -6.3130   -0.5890 C   0  0  0  0  0  3  0  0  0  0  0  0
    5.8170   -6.0370    0.7540 C   0  0  0  0  0  0  0  0  0  0  0  0
    6.6360   -5.1660    1.4780 C   0  0  0  0  0  3  0  0  0  0  0  0
    7.7260   -4.5450    0.8310 C   0  0  0  0  0  0  0  0  0  0  0  0
    9.4580   -4.1260   -1.8300 H   0  0  0  0  0  0  0  0  0  0  0  0
    4.7420   -6.6960    1.4220 N   0  0  0  0  0  0  0  0  0  0  0  0
    4.0060   -7.0480    0.8070 H   0  0  0  0  0  0  0  0  0  0  0  0
    5.1610   -7.9060    2.5480 S   0  0  0  0  0  0  0  0  0  0  0  0
    6.4580   -8.3710    2.0740 O   0  0  0  0  0  0  0  0  0  0  0  0
    5.0790   -7.3390    3.8830 O   0  0  0  0  0  0  0  0  0  0  0  0
    3.8940   -9.2470    2.2920 C   0  0  0  0  0  0  0  0  0  0  0  0
    2.7570   -9.0440    3.0120 F   0  0  0  0  0  0  0  0  0  0  0  0
    3.5190   -9.3490    0.9830 F   0  0  0  0  0  0  0  0  0  0  0  0
    4.3730  -10.4730    2.6540 F   0  0  0  0  0  0  0  0  0  0  0  0
  2  5  1  0  0  0  0
  2  1  2  0  0  0  0
  3  2  1  0  0  0  0
  4  3  1  0  0  0  0
  5  6  1  0  0  0  0
  6  7  2  0  0  0  0
  8 13  1  0  0  0  0
  8  7  1  0  0  0  0
  9  8  2  0  0  0  0
 10  9  1  0  0  0  0
 10  5  2  0  0  0  0
 11  9  1  0  0  0  0
 11 12  2  0  0  0  0
 12 13  1  0  0  0  0
 13 14  1  0  0  0  0
 14 19  1  0  0  0  0
 15 14  1  0  0  0  0
 15 16  1  0  0  0  0
 16 17  1  0  0  0  0
 17 18  1  0  0  0  0
 19 18  1  0  0  0  0
 20 21  1  0  0  0  0
 20 12  1  0  0  0  0
 22 21  2  0  0  0  0
 23 24  1  0  0  0  0
 23 22  1  0  0  0  0
 24 20  2  0  0  0  0
 25 29  1  1  0  0  0
 25  3  1  0  0  0  0
 26 25  1  0  0  0  0
 26 27  1  0  0  0  0
 28 26  2  0  0  0  0
 30 29  1  0  0  0  0
 31 30  2  0  0  0  0
 32 33  1  0  0  0  0
 32 31  1  0  0  0  0
 33 38  1  0  0  0  0
 34 35  1  0  0  0  0
 34 33  2  0  0  0  0
 35 36  2  0  0  0  0
 36 40  1  0  0  0  0
 36 37  1  0  0  0  0
 38 30  1  0  0  0  0
 38 37  2  0  0  0  0
 39 32  1  0  0  0  0
 40 42  1  0  0  0  0
 41 40  1  0  0  0  0
 42 44  2  0  0  0  0
 43 42  2  0  0  0  0
 45 42  1  0  0  0  0
 45 48  1  0  0  0  0
 45 46  1  0  0  0  0
 47 45  1  0  0  0  0
M  END
>  <minimizedAffinity>
-8.65899277

$$$$
