
 OpenBabel09122221003D

 48 53  0  0  1  0  0  0  0  0999 V2000
    4.8320   -7.4790   -1.1910 O   0  0  0  0  0  0  0  0  0  0  0  0
    5.3130   -7.3120   -0.0710 C   0  0  0  0  0  0  0  0  0  0  0  0
    4.9710   -8.1130    0.9780 N   0  0  0  0  0  0  0  0  0  0  0  0
    4.4700   -8.9610    0.7370 H   0  0  0  0  0  0  0  0  0  0  0  0
    6.2790   -6.2090    0.1170 C   0  0  0  0  0  0  0  0  0  0  0  0
    6.9850   -5.7470   -1.0000 C   0  0  0  0  0  3  0  0  0  0  0  0
    7.9700   -4.7600   -0.8780 C   0  0  0  0  0  3  0  0  0  0  0  0
    8.2270   -4.2610    0.4080 C   0  0  0  0  0  0  0  0  0  0  0  0
    7.5330   -4.7130    1.5270 C   0  0  0  0  0  0  0  0  0  0  0  0
    6.5640   -5.7180    1.3980 C   0  0  0  0  0  3  0  0  0  0  0  0
    7.9400   -4.0500    2.6500 N   0  0  0  0  0  0  0  0  0  0  0  0
    8.8130   -3.1460    2.2520 C   0  0  0  0  0  0  0  0  0  0  0  0
    9.1270   -3.3400    0.9180 N   0  0  0  0  0  0  0  0  0  0  0  0
   10.2640   -2.7670    0.2070 C   0  0  0  0  0  3  0  0  0  0  0  0
   11.0140   -3.7770   -0.6830 C   0  0  0  0  0  2  0  0  0  0  0  0
   12.2360   -3.1340   -1.3350 C   0  0  0  0  0  2  0  0  0  0  0  0
   11.8600   -1.8720   -2.1080 C   0  0  0  0  0  2  0  0  0  0  0  0
   11.1190   -0.8690   -1.2280 C   0  0  0  0  0  2  0  0  0  0  0  0
    9.8930   -1.4920   -0.5630 C   0  0  0  0  0  2  0  0  0  0  0  0
    9.3070   -2.1000    3.1990 C   0  0  0  0  0  0  0  0  0  0  0  0
    9.9480   -2.1900    4.4590 C   0  0  0  0  0  3  0  0  0  0  0  0
   10.2020   -0.8970    4.8570 C   0  0  0  0  0  3  0  0  0  0  0  0
    9.7710   -0.0160    3.9200 O   0  0  0  0  0  0  0  0  0  0  0  0
    9.2460   -0.7530    2.9070 C   0  0  0  0  0  3  0  0  0  0  0  0
    5.2330   -7.9910    2.4360 C   0  0  2  0  0  3  0  0  0  0  0  0
    6.2550   -9.0200    3.0050 C   0  0  0  0  0  0  0  0  0  0  0  0
    7.4230   -8.9470    2.5220 O   0  0  0  0  0  0  0  0  0  0  0  0
    5.7990   -9.8260    3.8700 O   0  0  0  0  0  1  0  0  0  0  0  0
    3.9300   -8.0580    3.2560 C   0  0  0  0  0  2  0  0  0  0  0  0
    3.6880   -6.9370    4.2380 C   0  0  0  0  0  0  0  0  0  0  0  0
    4.0330   -5.6090    4.0760 C   0  0  0  0  0  3  0  0  0  0  0  0
    3.6340   -4.9110    5.1790 N   0  0  0  0  0  0  0  0  0  0  0  0
    2.9860   -5.7440    6.0590 C   0  0  0  0  0  0  0  0  0  0  0  0
    2.3870   -5.4570    7.2910 C   0  0  0  0  0  3  0  0  0  0  0  0
    1.7820   -6.5140    7.9760 C   0  0  0  0  0  3  0  0  0  0  0  0
    1.7910   -7.8030    7.4470 C   0  0  0  0  0  0  0  0  0  0  0  0
    2.3880   -8.0730    6.2120 C   0  0  0  0  0  3  0  0  0  0  0  0
    3.0050   -7.0230    5.4990 C   0  0  0  0  0  0  0  0  0  0  0  0
    3.7840   -3.9220    5.3140 H   0  0  0  0  0  0  0  0  0  0  0  0
    1.1310   -8.8580    8.1450 N   0  0  0  0  0  0  0  0  0  0  0  0
    1.1560   -8.7800    9.1630 H   0  0  0  0  0  0  0  0  0  0  0  0
   -0.4570   -9.2360    7.6480 S   0  0  0  0  0  0  0  0  0  0  0  0
   -0.3900   -9.1200    6.1980 O   0  0  0  0  0  0  0  0  0  0  0  0
   -0.8240  -10.5190    8.2210 O   0  0  0  0  0  0  0  0  0  0  0  0
   -1.5040   -7.8540    8.3290 C   0  0  0  0  0  0  0  0  0  0  0  0
   -1.7160   -6.8580    7.4270 F   0  0  0  0  0  0  0  0  0  0  0  0
   -2.7340   -8.2960    8.7250 F   0  0  0  0  0  0  0  0  0  0  0  0
   -0.9300   -7.2760    9.4250 F   0  0  0  0  0  0  0  0  0  0  0  0
  1  2  2  0  0  0  0
  2  5  1  0  0  0  0
  2  3  1  0  0  0  0
  3 25  1  0  0  0  0
  4  3  1  0  0  0  0
  5 10  1  0  0  0  0
  6  7  1  0  0  0  0
  6  5  2  0  0  0  0
  7  8  2  0  0  0  0
  8 13  1  0  0  0  0
  8  9  1  0  0  0  0
  9 11  1  0  0  0  0
 10  9  2  0  0  0  0
 12 11  2  0  0  0  0
 12 20  1  0  0  0  0
 13 12  1  0  0  0  0
 14 13  1  0  0  0  0
 15 14  1  0  0  0  0
 16 15  1  0  0  0  0
 17 16  1  0  0  0  0
 17 18  1  0  0  0  0
 18 19  1  0  0  0  0
 19 14  1  0  0  0  0
 20 21  1  0  0  0  0
 21 22  2  0  0  0  0
 23 22  1  0  0  0  0
 24 20  2  0  0  0  0
 24 23  1  0  0  0  0
 25 26  1  0  0  0  0
 25 29  1  1  0  0  0
 26 28  1  0  0  0  0
 27 26  2  0  0  0  0
 29 30  1  0  0  0  0
 30 38  1  0  0  0  0
 31 30  2  0  0  0  0
 31 32  1  0  0  0  0
 32 39  1  0  0  0  0
 32 33  1  0  0  0  0
 33 34  1  0  0  0  0
 34 35  2  0  0  0  0
 36 35  1  0  0  0  0
 36 40  1  0  0  0  0
 37 36  2  0  0  0  0
 38 33  2  0  0  0  0
 38 37  1  0  0  0  0
 40 41  1  0  0  0  0
 42 40  1  0  0  0  0
 42 44  2  0  0  0  0
 42 45  1  0  0  0  0
 43 42  2  0  0  0  0
 45 47  1  0  0  0  0
 45 48  1  0  0  0  0
 46 45  1  0  0  0  0
M  END
>  <minimizedAffinity>
-9.05949593

$$$$

 OpenBabel09122221003D

 48 53  0  0  1  0  0  0  0  0999 V2000
    4.6000   -7.5580   -1.3120 O   0  0  0  0  0  0  0  0  0  0  0  0
    5.0390   -7.4550   -0.1670 C   0  0  0  0  0  0  0  0  0  0  0  0
    4.6430   -8.3020    0.8250 N   0  0  0  0  0  0  0  0  0  0  0  0
    4.1410   -9.1290    0.5220 H   0  0  0  0  0  0  0  0  0  0  0  0
    6.0110   -6.3780    0.1150 C   0  0  0  0  0  0  0  0  0  0  0  0
    6.8100   -5.9140   -0.9360 C   0  0  0  0  0  3  0  0  0  0  0  0
    7.8040   -4.9520   -0.7210 C   0  0  0  0  0  3  0  0  0  0  0  0
    7.9730   -4.4810    0.5890 C   0  0  0  0  0  0  0  0  0  0  0  0
    7.1860   -4.9360    1.6440 C   0  0  0  0  0  0  0  0  0  0  0  0
    6.2070   -5.9160    1.4220 C   0  0  0  0  0  3  0  0  0  0  0  0
    7.5200   -4.3010    2.8070 N   0  0  0  0  0  0  0  0  0  0  0  0
    8.4400   -3.4110    2.4940 C   0  0  0  0  0  0  0  0  0  0  0  0
    8.8510   -3.5900    1.1840 N   0  0  0  0  0  0  0  0  0  0  0  0
   10.0510   -3.0320    0.5720 C   0  0  0  0  0  3  0  0  0  0  0  0
   10.9930   -4.0920   -0.0280 C   0  0  0  0  0  2  0  0  0  0  0  0
   12.2650   -3.4480   -0.5790 C   0  0  0  0  0  2  0  0  0  0  0  0
   11.9430   -2.3450   -1.5850 C   0  0  0  0  0  2  0  0  0  0  0  0
   11.0110   -1.2920   -0.9920 C   0  0  0  0  0  2  0  0  0  0  0  0
    9.7330   -1.9140   -0.4310 C   0  0  0  0  0  2  0  0  0  0  0  0
    8.8820   -2.3940    3.4950 C   0  0  0  0  0  0  0  0  0  0  0  0
    9.0850   -2.4680    4.8950 C   0  0  0  0  0  3  0  0  0  0  0  0
    9.5270   -1.2260    5.2890 C   0  0  0  0  0  3  0  0  0  0  0  0
    9.6240   -0.3930    4.2220 O   0  0  0  0  0  0  0  0  0  0  0  0
    9.2500   -1.1140    3.1340 C   0  0  0  0  0  3  0  0  0  0  0  0
    4.8480   -8.2580    2.2970 C   0  0  2  0  0  3  0  0  0  0  0  0
    6.0080   -9.1550    2.8230 C   0  0  0  0  0  0  0  0  0  0  0  0
    5.8110  -10.4020    2.7340 O   0  0  0  0  0  0  0  0  0  0  0  0
    7.0080   -8.5370    3.2970 O   0  0  0  0  0  1  0  0  0  0  0  0
    3.5540   -8.5950    3.0620 C   0  0  0  0  0  2  0  0  0  0  0  0
    3.6750   -8.7660    4.5580 C   0  0  0  0  0  0  0  0  0  0  0  0
    3.9630   -9.9360    5.2330 C   0  0  0  0  0  3  0  0  0  0  0  0
    3.9960   -9.6770    6.5720 N   0  0  0  0  0  0  0  0  0  0  0  0
    3.7780   -8.3400    6.8020 C   0  0  0  0  0  0  0  0  0  0  0  0
    3.7570   -7.6270    8.0070 C   0  0  0  0  0  3  0  0  0  0  0  0
    3.5190   -6.2520    7.9400 C   0  0  0  0  0  3  0  0  0  0  0  0
    3.3010   -5.6270    6.7140 C   0  0  0  0  0  0  0  0  0  0  0  0
    3.3300   -6.3500    5.5180 C   0  0  0  0  0  3  0  0  0  0  0  0
    3.5710   -7.7400    5.5580 C   0  0  0  0  0  0  0  0  0  0  0  0
    4.1720  -10.3700    7.2840 H   0  0  0  0  0  0  0  0  0  0  0  0
    3.1000   -4.2150    6.6670 N   0  0  0  0  0  0  0  0  0  0  0  0
    3.0320   -3.7610    7.5790 H   0  0  0  0  0  0  0  0  0  0  0  0
    4.1540   -3.3200    5.6680 S   0  0  0  0  0  0  0  0  0  0  0  0
    4.0910   -1.9780    6.2320 O   0  0  0  0  0  0  0  0  0  0  0  0
    5.4400   -3.9930    5.6370 O   0  0  0  0  0  0  0  0  0  0  0  0
    3.3350   -3.3250    3.9950 C   0  0  0  0  0  0  0  0  0  0  0  0
    2.0140   -3.6460    4.0550 F   0  0  0  0  0  0  0  0  0  0  0  0
    3.4170   -2.1060    3.3840 F   0  0  0  0  0  0  0  0  0  0  0  0
    3.9190   -4.2220    3.1480 F   0  0  0  0  0  0  0  0  0  0  0  0
  1  2  2  0  0  0  0
  2  5  1  0  0  0  0
  2  3  1  0  0  0  0
  3 25  1  0  0  0  0
  4  3  1  0  0  0  0
  5 10  1  0  0  0  0
  6  7  1  0  0  0  0
  6  5  2  0  0  0  0
  7  8  2  0  0  0  0
  8 13  1  0  0  0  0
  8  9  1  0  0  0  0
  9 11  1  0  0  0  0
 10  9  2  0  0  0  0
 12 11  2  0  0  0  0
 12 20  1  0  0  0  0
 13 12  1  0  0  0  0
 14 13  1  0  0  0  0
 15 14  1  0  0  0  0
 16 15  1  0  0  0  0
 17 18  1  0  0  0  0
 17 16  1  0  0  0  0
 18 19  1  0  0  0  0
 19 14  1  0  0  0  0
 20 21  1  0  0  0  0
 21 22  2  0  0  0  0
 23 22  1  0  0  0  0
 24 20  2  0  0  0  0
 24 23  1  0  0  0  0
 25 26  1  0  0  0  0
 25 29  1  1  0  0  0
 26 28  1  0  0  0  0
 27 26  2  0  0  0  0
 29 30  1  0  0  0  0
 30 31  2  0  0  0  0
 30 38  1  0  0  0  0
 31 32  1  0  0  0  0
 32 33  1  0  0  0  0
 32 39  1  0  0  0  0
 33 34  1  0  0  0  0
 35 34  2  0  0  0  0
 36 35  1  0  0  0  0
 37 38  1  0  0  0  0
 37 36  2  0  0  0  0
 38 33  2  0  0  0  0
 40 36  1  0  0  0  0
 40 41  1  0  0  0  0
 42 43  2  0  0  0  0
 42 40  1  0  0  0  0
 44 42  2  0  0  0  0
 45 46  1  0  0  0  0
 45 42  1  0  0  0  0
 47 45  1  0  0  0  0
 48 45  1  0  0  0  0
M  END
>  <minimizedAffinity>
-8.9128828

$$$$

 OpenBabel09122221003D

 48 53  0  0  1  0  0  0  0  0999 V2000
    6.3960   -4.9200    8.2700 O   0  0  0  0  0  0  0  0  0  0  0  0
    6.0070   -3.9710    7.5920 C   0  0  0  0  0  0  0  0  0  0  0  0
    4.7150   -3.5400    7.6450 N   0  0  0  0  0  0  0  0  0  0  0  0
    4.1620   -3.9060    8.4120 H   0  0  0  0  0  0  0  0  0  0  0  0
    6.9810   -3.3010    6.7040 C   0  0  0  0  0  0  0  0  0  0  0  0
    7.7150   -2.2250    7.2160 C   0  0  0  0  0  3  0  0  0  0  0  0
    8.5960   -1.4980    6.4060 C   0  0  0  0  0  3  0  0  0  0  0  0
    8.7030   -1.8830    5.0620 C   0  0  0  0  0  0  0  0  0  0  0  0
    7.9770   -2.9500    4.5400 C   0  0  0  0  0  0  0  0  0  0  0  0
    7.0820   -3.6590    5.3540 C   0  0  0  0  0  3  0  0  0  0  0  0
    8.2830   -3.1460    3.2230 N   0  0  0  0  0  0  0  0  0  0  0  0
    9.2340   -2.2810    2.9290 C   0  0  0  0  0  0  0  0  0  0  0  0
    9.4130   -1.3950    3.9770 N   0  0  0  0  0  0  0  0  0  0  0  0
   10.1260   -0.1240    3.9200 C   0  0  0  0  0  3  0  0  0  0  0  0
    9.4940    0.9000    2.9590 C   0  0  0  0  0  2  0  0  0  0  0  0
   10.3320    2.1760    2.8860 C   0  0  0  0  0  2  0  0  0  0  0  0
   10.5660    2.7720    4.2720 C   0  0  0  0  0  2  0  0  0  0  0  0
   11.1940    1.7590    5.2260 C   0  0  0  0  0  2  0  0  0  0  0  0
   10.3730    0.4740    5.3120 C   0  0  0  0  0  2  0  0  0  0  0  0
    9.9540   -2.3610    1.6220 C   0  0  0  0  0  0  0  0  0  0  0  0
    9.7160   -1.7410    0.3710 C   0  0  0  0  0  3  0  0  0  0  0  0
   10.7240   -2.1610   -0.4670 C   0  0  0  0  0  3  0  0  0  0  0  0
   11.5770   -2.9880    0.1890 O   0  0  0  0  0  0  0  0  0  0  0  0
   11.1140   -3.0900    1.4620 C   0  0  0  0  0  3  0  0  0  0  0  0
    3.9590   -2.5860    6.7920 C   0  0  2  0  0  3  0  0  0  0  0  0
    3.5710   -1.2490    7.4930 C   0  0  0  0  0  0  0  0  0  0  0  0
    4.3070   -0.9140    8.4660 O   0  0  0  0  0  1  0  0  0  0  0  0
    2.5530   -0.6590    7.0230 O   0  0  0  0  0  0  0  0  0  0  0  0
    2.6980   -3.2340    6.1920 C   0  0  0  0  0  2  0  0  0  0  0  0
    2.8050   -4.6860    5.7930 C   0  0  0  0  0  0  0  0  0  0  0  0
    2.0980   -5.7440    6.3310 C   0  0  0  0  0  3  0  0  0  0  0  0
    2.4680   -6.8930    5.6950 N   0  0  0  0  0  0  0  0  0  0  0  0
    3.3810   -6.6140    4.7050 C   0  0  0  0  0  0  0  0  0  0  0  0
    4.0020   -7.4710    3.7890 C   0  0  0  0  0  3  0  0  0  0  0  0
    4.8910   -6.9030    2.8740 C   0  0  0  0  0  3  0  0  0  0  0  0
    5.1510   -5.5340    2.8910 C   0  0  0  0  0  0  0  0  0  0  0  0
    4.5200   -4.6890    3.8080 C   0  0  0  0  0  3  0  0  0  0  0  0
    3.6150   -5.2380    4.7420 C   0  0  0  0  0  0  0  0  0  0  0  0
    2.1080   -7.8100    5.9140 H   0  0  0  0  0  0  0  0  0  0  0  0
    6.0330   -4.9700    1.9210 N   0  0  0  0  0  0  0  0  0  0  0  0
    6.6480   -4.2370    2.2750 H   0  0  0  0  0  0  0  0  0  0  0  0
    6.9440   -6.0630    0.9800 S   0  0  0  0  0  0  0  0  0  0  0  0
    8.0050   -5.2300    0.4300 O   0  0  0  0  0  0  0  0  0  0  0  0
    7.3170   -7.1890    1.8170 O   0  0  0  0  0  0  0  0  0  0  0  0
    5.7920   -6.5780   -0.3910 C   0  0  0  0  0  0  0  0  0  0  0  0
    4.6080   -5.9070   -0.3650 F   0  0  0  0  0  0  0  0  0  0  0  0
    6.3400   -6.3650   -1.6230 F   0  0  0  0  0  0  0  0  0  0  0  0
    5.4910   -7.9080   -0.3260 F   0  0  0  0  0  0  0  0  0  0  0  0
  2  3  1  0  0  0  0
  2  1  2  0  0  0  0
  3  4  1  0  0  0  0
  5  6  1  0  0  0  0
  5  2  1  0  0  0  0
  7  6  2  0  0  0  0
  8  7  1  0  0  0  0
  9  8  2  0  0  0  0
  9 10  1  0  0  0  0
 10  5  2  0  0  0  0
 11  9  1  0  0  0  0
 12 11  2  0  0  0  0
 12 13  1  0  0  0  0
 13  8  1  0  0  0  0
 14 13  1  0  0  0  0
 14 19  1  0  0  0  0
 15 14  1  0  0  0  0
 16 15  1  0  0  0  0
 16 17  1  0  0  0  0
 17 18  1  0  0  0  0
 18 19  1  0  0  0  0
 20 12  1  0  0  0  0
 21 20  1  0  0  0  0
 22 23  1  0  0  0  0
 22 21  2  0  0  0  0
 23 24  1  0  0  0  0
 24 20  2  0  0  0  0
 25 29  1  1  0  0  0
 25 26  1  0  0  0  0
 25  3  1  0  0  0  0
 26 27  1  0  0  0  0
 28 26  2  0  0  0  0
 30 29  1  0  0  0  0
 30 31  2  0  0  0  0
 32 39  1  0  0  0  0
 32 31  1  0  0  0  0
 33 38  1  0  0  0  0
 33 32  1  0  0  0  0
 34 33  2  0  0  0  0
 35 36  2  0  0  0  0
 35 34  1  0  0  0  0
 36 37  1  0  0  0  0
 37 38  2  0  0  0  0
 38 30  1  0  0  0  0
 40 41  1  0  0  0  0
 40 36  1  0  0  0  0
 42 44  2  0  0  0  0
 42 40  1  0  0  0  0
 43 42  2  0  0  0  0
 45 46  1  0  0  0  0
 45 48  1  0  0  0  0
 45 42  1  0  0  0  0
 47 45  1  0  0  0  0
M  END
>  <minimizedAffinity>
-8.77948475

$$$$

 OpenBabel09122221003D

 48 53  0  0  1  0  0  0  0  0999 V2000
    8.8120   -4.1810   -0.9900 O   0  0  0  0  0  0  0  0  0  0  0  0
    8.3870   -4.6120    0.0800 C   0  0  0  0  0  0  0  0  0  0  0  0
    7.7200   -5.7990    0.1560 N   0  0  0  0  0  0  0  0  0  0  0  0
    7.7800   -6.3880   -0.6670 H   0  0  0  0  0  0  0  0  0  0  0  0
    8.6110   -3.8040    1.2980 C   0  0  0  0  0  0  0  0  0  0  0  0
    9.6340   -2.8490    1.2810 C   0  0  0  0  0  3  0  0  0  0  0  0
    9.9510   -2.1060    2.4240 C   0  0  0  0  0  3  0  0  0  0  0  0
    9.2100   -2.3630    3.5860 C   0  0  0  0  0  0  0  0  0  0  0  0
    8.1910   -3.3120    3.6170 C   0  0  0  0  0  0  0  0  0  0  0  0
    7.8960   -4.0670    2.4720 C   0  0  0  0  0  3  0  0  0  0  0  0
    7.6000   -3.3490    4.8490 N   0  0  0  0  0  0  0  0  0  0  0  0
    8.1710   -2.4010    5.5640 C   0  0  0  0  0  0  0  0  0  0  0  0
    9.2570   -1.8770    4.8830 N   0  0  0  0  0  0  0  0  0  0  0  0
   10.3180   -1.0550    5.4520 C   0  0  0  0  0  3  0  0  0  0  0  0
   10.1110    0.4570    5.2450 C   0  0  0  0  0  2  0  0  0  0  0  0
   11.2930    1.2550    5.7920 C   0  0  0  0  0  2  0  0  0  0  0  0
   11.5650    0.9190    7.2570 C   0  0  0  0  0  2  0  0  0  0  0  0
   11.7730   -0.5790    7.4650 C   0  0  0  0  0  2  0  0  0  0  0  0
   10.6020   -1.3970    6.9210 C   0  0  0  0  0  2  0  0  0  0  0  0
    7.6200   -2.0230    6.9010 C   0  0  0  0  0  0  0  0  0  0  0  0
    7.2240   -0.7770    7.4440 C   0  0  0  0  0  3  0  0  0  0  0  0
    6.7620   -1.0380    8.7140 C   0  0  0  0  0  3  0  0  0  0  0  0
    6.8330   -2.3650    8.9850 O   0  0  0  0  0  0  0  0  0  0  0  0
    7.3360   -2.9600    7.8730 C   0  0  0  0  0  3  0  0  0  0  0  0
    6.9370   -6.4200    1.2560 C   0  0  2  0  0  3  0  0  0  0  0  0
    7.5480   -7.7320    1.8330 C   0  0  0  0  0  0  0  0  0  0  0  0
    8.5400   -8.1930    1.1970 O   0  0  0  0  0  0  0  0  0  0  0  0
    6.9730   -8.1990    2.8610 O   0  0  0  0  0  1  0  0  0  0  0  0
    5.4760   -6.6760    0.8400 C   0  0  0  0  0  2  0  0  0  0  0  0
    4.5570   -7.2370    1.9000 C   0  0  0  0  0  0  0  0  0  0  0  0
    3.8820   -8.4410    1.8520 C   0  0  0  0  0  3  0  0  0  0  0  0
    3.1670   -8.5930    3.0040 N   0  0  0  0  0  0  0  0  0  0  0  0
    3.3890   -7.5280    3.8440 C   0  0  0  0  0  0  0  0  0  0  0  0
    2.8950   -7.2810    5.1300 C   0  0  0  0  0  3  0  0  0  0  0  0
    3.3040   -6.1040    5.7630 C   0  0  0  0  0  3  0  0  0  0  0  0
    4.1610   -5.2130    5.1230 C   0  0  0  0  0  0  0  0  0  0  0  0
    4.6510   -5.4760    3.8400 C   0  0  0  0  0  3  0  0  0  0  0  0
    4.2560   -6.6580    3.1790 C   0  0  0  0  0  0  0  0  0  0  0  0
    2.5750   -9.3840    3.2090 H   0  0  0  0  0  0  0  0  0  0  0  0
    4.5970   -4.0370    5.8050 N   0  0  0  0  0  0  0  0  0  0  0  0
    5.3470   -3.5240    5.3390 H   0  0  0  0  0  0  0  0  0  0  0  0
    3.3870   -2.9400    6.2990 S   0  0  0  0  0  0  0  0  0  0  0  0
    2.6500   -3.6880    7.3090 O   0  0  0  0  0  0  0  0  0  0  0  0
    4.0270   -1.6980    6.6930 O   0  0  0  0  0  0  0  0  0  0  0  0
    2.3140   -2.7140    4.7940 C   0  0  0  0  0  0  0  0  0  0  0  0
    1.5010   -1.6260    4.8840 F   0  0  0  0  0  0  0  0  0  0  0  0
    3.0560   -2.5590    3.6580 F   0  0  0  0  0  0  0  0  0  0  0  0
    1.5040   -3.7930    4.5830 F   0  0  0  0  0  0  0  0  0  0  0  0
  1  2  2  0  0  0  0
  2  3  1  0  0  0  0
  2  5  1  0  0  0  0
  3 25  1  0  0  0  0
  4  3  1  0  0  0  0
  5 10  1  0  0  0  0
  6  5  2  0  0  0  0
  6  7  1  0  0  0  0
  7  8  2  0  0  0  0
  8  9  1  0  0  0  0
  8 13  1  0  0  0  0
  9 11  1  0  0  0  0
 10  9  2  0  0  0  0
 11 12  2  0  0  0  0
 12 20  1  0  0  0  0
 13 14  1  0  0  0  0
 13 12  1  0  0  0  0
 14 19  1  0  0  0  0
 15 14  1  0  0  0  0
 15 16  1  0  0  0  0
 16 17  1  0  0  0  0
 17 18  1  0  0  0  0
 19 18  1  0  0  0  0
 20 21  1  0  0  0  0
 20 24  2  0  0  0  0
 21 22  2  0  0  0  0
 22 23  1  0  0  0  0
 24 23  1  0  0  0  0
 25 29  1  6  0  0  0
 25 26  1  0  0  0  0
 26 28  1  0  0  0  0
 27 26  2  0  0  0  0
 29 30  1  0  0  0  0
 30 38  1  0  0  0  0
 31 30  2  0  0  0  0
 31 32  1  0  0  0  0
 32 39  1  0  0  0  0
 32 33  1  0  0  0  0
 33 34  1  0  0  0  0
 34 35  2  0  0  0  0
 36 35  1  0  0  0  0
 36 40  1  0  0  0  0
 37 36  2  0  0  0  0
 38 37  1  0  0  0  0
 38 33  2  0  0  0  0
 40 42  1  0  0  0  0
 41 40  1  0  0  0  0
 42 44  2  0  0  0  0
 42 43  2  0  0  0  0
 45 46  1  0  0  0  0
 45 42  1  0  0  0  0
 47 45  1  0  0  0  0
 48 45  1  0  0  0  0
M  END
>  <minimizedAffinity>
-8.69877148

$$$$

 OpenBabel09122221003D

 48 53  0  0  1  0  0  0  0  0999 V2000
   11.2110   -1.9920    6.2480 O   0  0  0  0  0  0  0  0  0  0  0  0
   10.3870   -2.0750    5.3380 C   0  0  0  0  0  0  0  0  0  0  0  0
   10.7670   -2.0540    4.0290 N   0  0  0  0  0  0  0  0  0  0  0  0
   11.7590   -2.1760    3.8590 H   0  0  0  0  0  0  0  0  0  0  0  0
    8.9580   -2.1920    5.6980 C   0  0  0  0  0  0  0  0  0  0  0  0
    8.4470   -1.3300    6.6750 C   0  0  0  0  0  3  0  0  0  0  0  0
    7.1240   -1.4400    7.1180 C   0  0  0  0  0  3  0  0  0  0  0  0
    6.3370   -2.4540    6.5530 C   0  0  0  0  0  0  0  0  0  0  0  0
    6.8330   -3.3190    5.5820 C   0  0  0  0  0  0  0  0  0  0  0  0
    8.1670   -3.2140    5.1600 C   0  0  0  0  0  3  0  0  0  0  0  0
    5.8650   -4.1900    5.1670 N   0  0  0  0  0  0  0  0  0  0  0  0
    4.7600   -3.8440    5.7970 C   0  0  0  0  0  0  0  0  0  0  0  0
    5.0370   -2.8890    6.7600 N   0  0  0  0  0  0  0  0  0  0  0  0
    4.1650   -2.4920    7.8590 C   0  0  0  0  0  3  0  0  0  0  0  0
    3.2660   -1.2850    7.5330 C   0  0  0  0  0  2  0  0  0  0  0  0
    2.4380   -0.8720    8.7490 C   0  0  0  0  0  2  0  0  0  0  0  0
    1.6300   -2.0450    9.3000 C   0  0  0  0  0  2  0  0  0  0  0  0
    2.5190   -3.2420    9.6250 C   0  0  0  0  0  2  0  0  0  0  0  0
    3.3590   -3.6700    8.4230 C   0  0  0  0  0  2  0  0  0  0  0  0
    3.4500   -4.4570    5.4200 C   0  0  0  0  0  0  0  0  0  0  0  0
    2.8440   -5.6880    5.7720 C   0  0  0  0  0  3  0  0  0  0  0  0
    1.6160   -5.7060    5.1520 C   0  0  0  0  0  3  0  0  0  0  0  0
    1.4170   -4.5610    4.4520 O   0  0  0  0  0  0  0  0  0  0  0  0
    2.5260   -3.7990    4.6350 C   0  0  0  0  0  3  0  0  0  0  0  0
    9.9780   -1.9220    2.7760 C   0  0  2  0  0  3  0  0  0  0  0  0
    9.2740   -0.5440    2.5900 C   0  0  0  0  0  0  0  0  0  0  0  0
    9.6090    0.3520    3.4180 O   0  0  0  0  0  1  0  0  0  0  0  0
    8.4310   -0.4820    1.6450 O   0  0  0  0  0  0  0  0  0  0  0  0
    8.9400   -3.0510    2.6350 C   0  0  0  0  0  2  0  0  0  0  0  0
    8.7480   -3.6280    1.2520 C   0  0  0  0  0  0  0  0  0  0  0  0
    9.5570   -3.4200    0.1530 C   0  0  0  0  0  3  0  0  0  0  0  0
    9.0570   -4.1230   -0.9040 N   0  0  0  0  0  0  0  0  0  0  0  0
    7.9470   -4.8360   -0.5170 C   0  0  0  0  0  0  0  0  0  0  0  0
    7.1390   -5.7100   -1.2530 C   0  0  0  0  0  3  0  0  0  0  0  0
    6.0680   -6.3130   -0.5890 C   0  0  0  0  0  3  0  0  0  0  0  0
    5.8170   -6.0370    0.7540 C   0  0  0  0  0  0  0  0  0  0  0  0
    6.6360   -5.1660    1.4780 C   0  0  0  0  0  3  0  0  0  0  0  0
    7.7260   -4.5450    0.8310 C   0  0  0  0  0  0  0  0  0  0  0  0
    9.4580   -4.1260   -1.8300 H   0  0  0  0  0  0  0  0  0  0  0  0
    4.7420   -6.6960    1.4220 N   0  0  0  0  0  0  0  0  0  0  0  0
    4.0060   -7.0480    0.8070 H   0  0  0  0  0  0  0  0  0  0  0  0
    5.1610   -7.9060    2.5480 S   0  0  0  0  0  0  0  0  0  0  0  0
    6.4580   -8.3710    2.0740 O   0  0  0  0  0  0  0  0  0  0  0  0
    5.0790   -7.3390    3.8830 O   0  0  0  0  0  0  0  0  0  0  0  0
    3.8940   -9.2470    2.2920 C   0  0  0  0  0  0  0  0  0  0  0  0
    2.7570   -9.0440    3.0120 F   0  0  0  0  0  0  0  0  0  0  0  0
    3.5190   -9.3490    0.9830 F   0  0  0  0  0  0  0  0  0  0  0  0
    4.3730  -10.4730    2.6540 F   0  0  0  0  0  0  0  0  0  0  0  0
  2  5  1  0  0  0  0
  2  1  2  0  0  0  0
  3  2  1  0  0  0  0
  4  3  1  0  0  0  0
  5  6  1  0  0  0  0
  6  7  2  0  0  0  0
  8 13  1  0  0  0  0
  8  7  1  0  0  0  0
  9  8  2  0  0  0  0
 10  9  1  0  0  0  0
 10  5  2  0  0  0  0
 11  9  1  0  0  0  0
 11 12  2  0  0  0  0
 12 13  1  0  0  0  0
 13 14  1  0  0  0  0
 14 19  1  0  0  0  0
 15 14  1  0  0  0  0
 15 16  1  0  0  0  0
 16 17  1  0  0  0  0
 17 18  1  0  0  0  0
 19 18  1  0  0  0  0
 20 21  1  0  0  0  0
 20 12  1  0  0  0  0
 22 21  2  0  0  0  0
 23 24  1  0  0  0  0
 23 22  1  0  0  0  0
 24 20  2  0  0  0  0
 25 29  1  1  0  0  0
 25  3  1  0  0  0  0
 26 25  1  0  0  0  0
 26 27  1  0  0  0  0
 28 26  2  0  0  0  0
 30 29  1  0  0  0  0
 31 30  2  0  0  0  0
 32 33  1  0  0  0  0
 32 31  1  0  0  0  0
 33 38  1  0  0  0  0
 34 35  1  0  0  0  0
 34 33  2  0  0  0  0
 35 36  2  0  0  0  0
 36 40  1  0  0  0  0
 36 37  1  0  0  0  0
 38 30  1  0  0  0  0
 38 37  2  0  0  0  0
 39 32  1  0  0  0  0
 40 42  1  0  0  0  0
 41 40  1  0  0  0  0
 42 44  2  0  0  0  0
 43 42  2  0  0  0  0
 45 42  1  0  0  0  0
 45 48  1  0  0  0  0
 45 46  1  0  0  0  0
 47 45  1  0  0  0  0
M  END
>  <minimizedAffinity>
-8.65899277

$$$$

 OpenBabel09122221003D

 48 53  0  0  1  0  0  0  0  0999 V2000
    9.7940   -4.4190   -0.8730 O   0  0  0  0  0  0  0  0  0  0  0  0
    9.2280   -3.8680    0.0700 C   0  0  0  0  0  0  0  0  0  0  0  0
    9.5370   -2.5930    0.4390 N   0  0  0  0  0  0  0  0  0  0  0  0
   10.0960   -2.0670   -0.2240 H   0  0  0  0  0  0  0  0  0  0  0  0
    8.1960   -4.6290    0.8060 C   0  0  0  0  0  0  0  0  0  0  0  0
    7.9840   -5.9670    0.4580 C   0  0  0  0  0  3  0  0  0  0  0  0
    6.9700   -6.7210    1.0610 C   0  0  0  0  0  3  0  0  0  0  0  0
    6.1710   -6.0790    2.0180 C   0  0  0  0  0  0  0  0  0  0  0  0
    6.3710   -4.7470    2.3720 C   0  0  0  0  0  0  0  0  0  0  0  0
    7.3750   -3.9940    1.7470 C   0  0  0  0  0  3  0  0  0  0  0  0
    5.4910   -4.3670    3.3470 N   0  0  0  0  0  0  0  0  0  0  0  0
    4.8000   -5.4440    3.6630 C   0  0  0  0  0  0  0  0  0  0  0  0
    5.0780   -6.4690    2.7750 N   0  0  0  0  0  0  0  0  0  0  0  0
    4.3000   -7.6880    2.5920 C   0  0  0  0  0  3  0  0  0  0  0  0
    3.8150   -7.9040    1.1470 C   0  0  0  0  0  2  0  0  0  0  0  0
    2.9410   -9.1530    1.0410 C   0  0  0  0  0  2  0  0  0  0  0  0
    3.6580  -10.3860    1.5860 C   0  0  0  0  0  2  0  0  0  0  0  0
    4.1370  -10.1750    3.0200 C   0  0  0  0  0  2  0  0  0  0  0  0
    5.0110   -8.9290    3.1500 C   0  0  0  0  0  2  0  0  0  0  0  0
    3.8880   -5.4380    4.8470 C   0  0  0  0  0  0  0  0  0  0  0  0
    3.3790   -6.4840    5.6560 C   0  0  0  0  0  3  0  0  0  0  0  0
    2.6090   -5.8830    6.6260 C   0  0  0  0  0  3  0  0  0  0  0  0
    2.6200   -4.5350    6.4780 O   0  0  0  0  0  0  0  0  0  0  0  0
    3.4140   -4.2700    5.4080 C   0  0  0  0  0  3  0  0  0  0  0  0
    9.1680   -1.7980    1.6400 C   0  0  2  0  0  3  0  0  0  0  0  0
    9.1490   -0.2550    1.4230 C   0  0  0  0  0  0  0  0  0  0  0  0
    9.8020    0.1590    0.4210 O   0  0  0  0  0  0  0  0  0  0  0  0
    8.4990    0.4120    2.2820 O   0  0  0  0  0  1  0  0  0  0  0  0
   10.0690   -2.1340    2.8430 C   0  0  0  0  0  2  0  0  0  0  0  0
    9.4440   -2.0180    4.2130 C   0  0  0  0  0  0  0  0  0  0  0  0
    8.6370   -2.9520    4.8330 C   0  0  0  0  0  3  0  0  0  0  0  0
    8.2840   -2.4830    6.0650 N   0  0  0  0  0  0  0  0  0  0  0  0
    8.8800   -1.2670    6.2990 C   0  0  0  0  0  0  0  0  0  0  0  0
    8.8270   -0.4430    7.4290 C   0  0  0  0  0  3  0  0  0  0  0  0
    9.5520    0.7510    7.3920 C   0  0  0  0  0  3  0  0  0  0  0  0
   10.2870    1.1030    6.2620 C   0  0  0  0  0  0  0  0  0  0  0  0
   10.3350    0.2670    5.1420 C   0  0  0  0  0  3  0  0  0  0  0  0
    9.6130   -0.9460    5.1540 C   0  0  0  0  0  0  0  0  0  0  0  0
    7.6840   -2.9720    6.7130 H   0  0  0  0  0  0  0  0  0  0  0  0
   11.0520    2.3070    6.2630 N   0  0  0  0  0  0  0  0  0  0  0  0
   12.0270    2.1960    5.9800 H   0  0  0  0  0  0  0  0  0  0  0  0
   10.3790    3.6480    5.4510 S   0  0  0  0  0  0  0  0  0  0  0  0
    8.9490    3.3670    5.4680 O   0  0  0  0  0  0  0  0  0  0  0  0
   10.8490    4.8600    6.0970 O   0  0  0  0  0  0  0  0  0  0  0  0
   11.0140    3.5090    3.7050 C   0  0  0  0  0  0  0  0  0  0  0  0
   12.1370    2.7450    3.6110 F   0  0  0  0  0  0  0  0  0  0  0  0
   10.0880    2.9530    2.8700 F   0  0  0  0  0  0  0  0  0  0  0  0
   11.3250    4.7300    3.1810 F   0  0  0  0  0  0  0  0  0  0  0  0
  1  2  2  0  0  0  0
  2  3  1  0  0  0  0
  2  5  1  0  0  0  0
  3 25  1  0  0  0  0
  4  3  1  0  0  0  0
  5 10  1  0  0  0  0
  6  5  2  0  0  0  0
  6  7  1  0  0  0  0
  7  8  2  0  0  0  0
  8  9  1  0  0  0  0
  8 13  1  0  0  0  0
  9 11  1  0  0  0  0
 10  9  2  0  0  0  0
 11 12  2  0  0  0  0
 12 20  1  0  0  0  0
 13 12  1  0  0  0  0
 14 13  1  0  0  0  0
 14 19  1  0  0  0  0
 15 14  1  0  0  0  0
 16 15  1  0  0  0  0
 16 17  1  0  0  0  0
 17 18  1  0  0  0  0
 18 19  1  0  0  0  0
 20 24  2  0  0  0  0
 20 21  1  0  0  0  0
 21 22  2  0  0  0  0
 23 22  1  0  0  0  0
 24 23  1  0  0  0  0
 25 29  1  1  0  0  0
 26 25  1  0  0  0  0
 26 28  1  0  0  0  0
 27 26  2  0  0  0  0
 29 30  1  0  0  0  0
 30 31  2  0  0  0  0
 30 38  1  0  0  0  0
 31 32  1  0  0  0  0
 32 33  1  0  0  0  0
 32 39  1  0  0  0  0
 33 34  1  0  0  0  0
 35 34  2  0  0  0  0
 36 40  1  0  0  0  0
 36 35  1  0  0  0  0
 37 38  1  0  0  0  0
 37 36  2  0  0  0  0
 38 33  2  0  0  0  0
 41 40  1  0  0  0  0
 42 43  2  0  0  0  0
 42 44  2  0  0  0  0
 42 40  1  0  0  0  0
 45 42  1  0  0  0  0
 46 45  1  0  0  0  0
 47 45  1  0  0  0  0
 48 45  1  0  0  0  0
M  END
>  <minimizedAffinity>
-8.58776665

$$$$

 OpenBabel09122221003D

 48 53  0  0  1  0  0  0  0  0999 V2000
    6.4240   -5.2320    8.9370 O   0  0  0  0  0  0  0  0  0  0  0  0
    5.8890   -4.2890    8.3550 C   0  0  0  0  0  0  0  0  0  0  0  0
    4.5730   -3.9900    8.5450 N   0  0  0  0  0  0  0  0  0  0  0  0
    4.1280   -4.4480    9.3320 H   0  0  0  0  0  0  0  0  0  0  0  0
    6.7120   -3.4810    7.4300 C   0  0  0  0  0  0  0  0  0  0  0  0
    6.5900   -3.7160    6.0560 C   0  0  0  0  0  3  0  0  0  0  0  0
    7.3950   -3.0420    5.1300 C   0  0  0  0  0  3  0  0  0  0  0  0
    8.3350   -2.1320    5.6360 C   0  0  0  0  0  0  0  0  0  0  0  0
    8.4680   -1.8910    7.0010 C   0  0  0  0  0  0  0  0  0  0  0  0
    7.6710   -2.5870    7.9210 C   0  0  0  0  0  3  0  0  0  0  0  0
    9.4220   -0.9410    7.2340 N   0  0  0  0  0  0  0  0  0  0  0  0
    9.8350   -0.5290    6.0510 C   0  0  0  0  0  0  0  0  0  0  0  0
    9.3070   -1.3330    5.0560 N   0  0  0  0  0  0  0  0  0  0  0  0
    9.7640   -1.4070    3.6730 C   0  0  0  0  0  3  0  0  0  0  0  0
   10.0200   -2.8430    3.1790 C   0  0  0  0  0  2  0  0  0  0  0  0
   10.5720   -2.8450    1.7540 C   0  0  0  0  0  2  0  0  0  0  0  0
    9.6630   -2.0740    0.8010 C   0  0  0  0  0  2  0  0  0  0  0  0
    9.4090   -0.6490    1.2870 C   0  0  0  0  0  2  0  0  0  0  0  0
    8.8590   -0.6240    2.7120 C   0  0  0  0  0  2  0  0  0  0  0  0
   10.7310    0.6600    5.9330 C   0  0  0  0  0  0  0  0  0  0  0  0
   11.0170    1.5270    4.8500 C   0  0  0  0  0  3  0  0  0  0  0  0
   11.8960    2.4710    5.3300 C   0  0  0  0  0  3  0  0  0  0  0  0
   12.1610    2.2510    6.6420 O   0  0  0  0  0  0  0  0  0  0  0  0
   11.4360    1.1620    7.0070 C   0  0  0  0  0  3  0  0  0  0  0  0
    3.6580   -3.0690    7.8210 C   0  0  2  0  0  3  0  0  0  0  0  0
    2.7280   -2.2180    8.7370 C   0  0  0  0  0  0  0  0  0  0  0  0
    1.8090   -2.8610    9.3230 O   0  0  0  0  0  1  0  0  0  0  0  0
    2.9840   -0.9770    8.7770 O   0  0  0  0  0  0  0  0  0  0  0  0
    2.8040   -3.8170    6.7800 C   0  0  0  0  0  2  0  0  0  0  0  0
    3.2430   -3.7110    5.3390 C   0  0  0  0  0  0  0  0  0  0  0  0
    3.3800   -2.5510    4.6020 C   0  0  0  0  0  3  0  0  0  0  0  0
    3.8090   -2.8720    3.3470 N   0  0  0  0  0  0  0  0  0  0  0  0
    4.0050   -4.2290    3.2450 C   0  0  0  0  0  0  0  0  0  0  0  0
    4.4650   -4.9920    2.1660 C   0  0  0  0  0  3  0  0  0  0  0  0
    4.5790   -6.3720    2.3520 C   0  0  0  0  0  3  0  0  0  0  0  0
    4.2310   -6.9570    3.5670 C   0  0  0  0  0  0  0  0  0  0  0  0
    3.7780   -6.1820    4.6390 C   0  0  0  0  0  3  0  0  0  0  0  0
    3.6560   -4.7850    4.4780 C   0  0  0  0  0  0  0  0  0  0  0  0
    3.9720   -2.2030    2.6090 H   0  0  0  0  0  0  0  0  0  0  0  0
    4.3930   -8.3630    3.7470 N   0  0  0  0  0  0  0  0  0  0  0  0
    4.8870   -8.6320    4.5990 H   0  0  0  0  0  0  0  0  0  0  0  0
    2.9970   -9.3270    3.5760 S   0  0  0  0  0  0  0  0  0  0  0  0
    3.3140  -10.5170    4.3550 O   0  0  0  0  0  0  0  0  0  0  0  0
    1.8430   -8.5370    3.9660 O   0  0  0  0  0  0  0  0  0  0  0  0
    2.9490   -9.7700    1.7670 C   0  0  0  0  0  0  0  0  0  0  0  0
    1.8590  -10.5140    1.4350 F   0  0  0  0  0  0  0  0  0  0  0  0
    2.9250   -8.6590    0.9730 F   0  0  0  0  0  0  0  0  0  0  0  0
    4.0460  -10.4910    1.3930 F   0  0  0  0  0  0  0  0  0  0  0  0
  2  3  1  0  0  0  0
  2  1  2  0  0  0  0
  3  4  1  0  0  0  0
  5 10  1  0  0  0  0
  5  2  1  0  0  0  0
  6  5  2  0  0  0  0
  7  8  2  0  0  0  0
  7  6  1  0  0  0  0
  8  9  1  0  0  0  0
  9 11  1  0  0  0  0
  9 10  2  0  0  0  0
 12 11  2  0  0  0  0
 13  8  1  0  0  0  0
 13 12  1  0  0  0  0
 14 13  1  0  0  0  0
 15 14  1  0  0  0  0
 16 15  1  0  0  0  0
 17 18  1  0  0  0  0
 17 16  1  0  0  0  0
 18 19  1  0  0  0  0
 19 14  1  0  0  0  0
 20 12  1  0  0  0  0
 20 24  2  0  0  0  0
 21 22  2  0  0  0  0
 21 20  1  0  0  0  0
 22 23  1  0  0  0  0
 23 24  1  0  0  0  0
 25 29  1  6  0  0  0
 25  3  1  0  0  0  0
 25 26  1  0  0  0  0
 26 28  2  0  0  0  0
 26 27  1  0  0  0  0
 30 29  1  0  0  0  0
 31 30  2  0  0  0  0
 32 31  1  0  0  0  0
 33 32  1  0  0  0  0
 33 38  1  0  0  0  0
 34 35  1  0  0  0  0
 34 33  2  0  0  0  0
 35 36  2  0  0  0  0
 36 40  1  0  0  0  0
 36 37  1  0  0  0  0
 38 37  2  0  0  0  0
 38 30  1  0  0  0  0
 39 32  1  0  0  0  0
 40 41  1  0  0  0  0
 42 40  1  0  0  0  0
 42 44  2  0  0  0  0
 42 43  2  0  0  0  0
 45 42  1  0  0  0  0
 46 45  1  0  0  0  0
 47 45  1  0  0  0  0
 48 45  1  0  0  0  0
M  END
>  <minimizedAffinity>
-8.46640205

$$$$

 OpenBabel09122221003D

 48 53  0  0  1  0  0  0  0  0999 V2000
    1.4670   -1.3420    5.5730 O   0  0  0  0  0  0  0  0  0  0  0  0
    2.3860   -2.0590    5.9650 C   0  0  0  0  0  0  0  0  0  0  0  0
    3.0910   -1.7600    7.0930 N   0  0  0  0  0  0  0  0  0  0  0  0
    2.6850   -1.0460    7.6880 H   0  0  0  0  0  0  0  0  0  0  0  0
    2.7190   -3.2630    5.1740 C   0  0  0  0  0  0  0  0  0  0  0  0
    2.2710   -4.5050    5.6370 C   0  0  0  0  0  3  0  0  0  0  0  0
    2.6170   -5.6910    4.9790 C   0  0  0  0  0  3  0  0  0  0  0  0
    3.4390   -5.5850    3.8480 C   0  0  0  0  0  0  0  0  0  0  0  0
    3.8940   -4.3560    3.3790 C   0  0  0  0  0  0  0  0  0  0  0  0
    3.5590   -3.1750    4.0570 C   0  0  0  0  0  3  0  0  0  0  0  0
    4.6440   -4.5160    2.2480 N   0  0  0  0  0  0  0  0  0  0  0  0
    4.6080   -5.8010    1.9560 C   0  0  0  0  0  0  0  0  0  0  0  0
    4.0100   -6.5070    2.9860 N   0  0  0  0  0  0  0  0  0  0  0  0
    4.0660   -7.9500    3.1880 C   0  0  0  0  0  3  0  0  0  0  0  0
    5.4880   -8.4890    3.4300 C   0  0  0  0  0  2  0  0  0  0  0  0
    5.4850  -10.0120    3.5540 C   0  0  0  0  0  2  0  0  0  0  0  0
    4.5120  -10.4850    4.6320 C   0  0  0  0  0  2  0  0  0  0  0  0
    3.1010   -9.9530    4.3930 C   0  0  0  0  0  2  0  0  0  0  0  0
    3.0800   -8.4310    4.2630 C   0  0  0  0  0  2  0  0  0  0  0  0
    5.1530   -6.2990    0.6570 C   0  0  0  0  0  0  0  0  0  0  0  0
    6.3420   -5.9930   -0.0500 C   0  0  0  0  0  3  0  0  0  0  0  0
    6.3340   -6.7820   -1.1780 C   0  0  0  0  0  3  0  0  0  0  0  0
    5.2270   -7.5640   -1.2060 O   0  0  0  0  0  0  0  0  0  0  0  0
    4.5240   -7.2800   -0.0790 C   0  0  0  0  0  3  0  0  0  0  0  0
    4.3500   -2.3240    7.6460 C   0  0  2  0  0  3  0  0  0  0  0  0
    4.2360   -2.8800    9.0970 C   0  0  0  0  0  0  0  0  0  0  0  0
    5.3020   -3.3640    9.5780 O   0  0  0  0  0  0  0  0  0  0  0  0
    3.0860   -2.8040    9.6250 O   0  0  0  0  0  1  0  0  0  0  0  0
    5.5070   -1.3090    7.5770 C   0  0  0  0  0  2  0  0  0  0  0  0
    6.7900   -1.7840    6.9370 C   0  0  0  0  0  0  0  0  0  0  0  0
    6.9490   -2.8970    6.1350 C   0  0  0  0  0  3  0  0  0  0  0  0
    8.2530   -2.9780    5.7440 N   0  0  0  0  0  0  0  0  0  0  0  0
    8.9640   -1.9090    6.2370 C   0  0  0  0  0  0  0  0  0  0  0  0
   10.3100   -1.5690    6.0640 C   0  0  0  0  0  3  0  0  0  0  0  0
   10.7660   -0.4020    6.6810 C   0  0  0  0  0  3  0  0  0  0  0  0
    9.9040    0.3810    7.4470 C   0  0  0  0  0  0  0  0  0  0  0  0
    8.5600    0.0320    7.6060 C   0  0  0  0  0  3  0  0  0  0  0  0
    8.0740   -1.1420    6.9920 C   0  0  0  0  0  0  0  0  0  0  0  0
    8.6320   -3.7120    5.1640 H   0  0  0  0  0  0  0  0  0  0  0  0
   10.3820    1.5900    8.0340 N   0  0  0  0  0  0  0  0  0  0  0  0
   11.3630    1.5710    8.3190 H   0  0  0  0  0  0  0  0  0  0  0  0
   10.0710    3.0360    7.1830 S   0  0  0  0  0  0  0  0  0  0  0  0
   11.1490    3.9160    7.6130 O   0  0  0  0  0  0  0  0  0  0  0  0
    9.9620    2.7210    5.7700 O   0  0  0  0  0  0  0  0  0  0  0  0
    8.4570    3.6530    7.8770 C   0  0  0  0  0  0  0  0  0  0  0  0
    8.5340    4.9310    8.3380 F   0  0  0  0  0  0  0  0  0  0  0  0
    7.4600    3.6290    6.9440 F   0  0  0  0  0  0  0  0  0  0  0  0
    8.0280    2.8850    8.9210 F   0  0  0  0  0  0  0  0  0  0  0  0
  1  2  2  0  0  0  0
  2  3  1  0  0  0  0
  3 25  1  0  0  0  0
  3  4  1  0  0  0  0
  5  6  1  0  0  0  0
  5  2  1  0  0  0  0
  7  6  2  0  0  0  0
  8  7  1  0  0  0  0
  9  8  2  0  0  0  0
  9 10  1  0  0  0  0
 10  5  2  0  0  0  0
 11  9  1  0  0  0  0
 12 11  2  0  0  0  0
 12 13  1  0  0  0  0
 13 14  1  0  0  0  0
 13  8  1  0  0  0  0
 14 15  1  0  0  0  0
 14 19  1  0  0  0  0
 15 16  1  0  0  0  0
 16 17  1  0  0  0  0
 18 17  1  0  0  0  0
 19 18  1  0  0  0  0
 20 12  1  0  0  0  0
 21 20  1  0  0  0  0
 22 21  2  0  0  0  0
 23 22  1  0  0  0  0
 23 24  1  0  0  0  0
 24 20  2  0  0  0  0
 25 29  1  1  0  0  0
 25 26  1  0  0  0  0
 26 27  2  0  0  0  0
 26 28  1  0  0  0  0
 30 38  1  0  0  0  0
 30 29  1  0  0  0  0
 31 30  2  0  0  0  0
 32 31  1  0  0  0  0
 32 33  1  0  0  0  0
 33 38  1  0  0  0  0
 34 33  2  0  0  0  0
 34 35  1  0  0  0  0
 35 36  2  0  0  0  0
 36 37  1  0  0  0  0
 36 40  1  0  0  0  0
 38 37  2  0  0  0  0
 39 32  1  0  0  0  0
 40 41  1  0  0  0  0
 42 43  2  0  0  0  0
 42 45  1  0  0  0  0
 42 40  1  0  0  0  0
 44 42  2  0  0  0  0
 45 46  1  0  0  0  0
 45 48  1  0  0  0  0
 47 45  1  0  0  0  0
M  END
>  <minimizedAffinity>
-8.30544472

$$$$

 OpenBabel09122221003D

 48 53  0  0  1  0  0  0  0  0999 V2000
    9.7240   -4.8820   -0.1850 O   0  0  0  0  0  0  0  0  0  0  0  0
    9.1330   -4.1370    0.5950 C   0  0  0  0  0  0  0  0  0  0  0  0
    9.6280   -2.9100    0.9210 N   0  0  0  0  0  0  0  0  0  0  0  0
   10.3850   -2.5730    0.3360 H   0  0  0  0  0  0  0  0  0  0  0  0
    7.8600   -4.6080    1.1820 C   0  0  0  0  0  0  0  0  0  0  0  0
    7.1410   -3.7290    1.9990 C   0  0  0  0  0  3  0  0  0  0  0  0
    5.9700   -4.1370    2.6490 C   0  0  0  0  0  3  0  0  0  0  0  0
    5.5550   -5.4620    2.4580 C   0  0  0  0  0  0  0  0  0  0  0  0
    6.2630   -6.3480    1.6500 C   0  0  0  0  0  0  0  0  0  0  0  0
    7.4460   -5.9360    1.0200 C   0  0  0  0  0  3  0  0  0  0  0  0
    5.6380   -7.5630    1.5980 N   0  0  0  0  0  0  0  0  0  0  0  0
    4.5220   -7.4360    2.2890 C   0  0  0  0  0  0  0  0  0  0  0  0
    4.5060   -6.2210    2.9520 N   0  0  0  0  0  0  0  0  0  0  0  0
    3.6200   -5.8480    4.0480 C   0  0  0  0  0  3  0  0  0  0  0  0
    4.1850   -6.1730    5.4430 C   0  0  0  0  0  2  0  0  0  0  0  0
    3.1770   -5.8310    6.5390 C   0  0  0  0  0  2  0  0  0  0  0  0
    2.7140   -4.3790    6.4420 C   0  0  0  0  0  2  0  0  0  0  0  0
    2.1510   -4.0550    5.0600 C   0  0  0  0  0  2  0  0  0  0  0  0
    3.1430   -4.3920    3.9480 C   0  0  0  0  0  2  0  0  0  0  0  0
    3.4900   -8.5160    2.2650 C   0  0  0  0  0  0  0  0  0  0  0  0
    2.7720   -9.1630    3.3010 C   0  0  0  0  0  3  0  0  0  0  0  0
    1.9270  -10.0580    2.6860 C   0  0  0  0  0  3  0  0  0  0  0  0
    2.0660   -9.9980    1.3380 O   0  0  0  0  0  0  0  0  0  0  0  0
    3.0030   -9.0460    1.0890 C   0  0  0  0  0  3  0  0  0  0  0  0
    9.2350   -1.9370    1.9740 C   0  0  2  0  0  3  0  0  0  0  0  0
    9.1890   -0.4520    1.5060 C   0  0  0  0  0  0  0  0  0  0  0  0
    9.6310   -0.2370    0.3400 O   0  0  0  0  0  0  0  0  0  0  0  0
    8.7340    0.3760    2.3510 O   0  0  0  0  0  1  0  0  0  0  0  0
   10.1310   -2.0540    3.2210 C   0  0  0  0  0  2  0  0  0  0  0  0
    9.4490   -1.9170    4.5620 C   0  0  0  0  0  0  0  0  0  0  0  0
    8.6290   -2.8480    5.1680 C   0  0  0  0  0  3  0  0  0  0  0  0
    8.2210   -2.3580    6.3750 N   0  0  0  0  0  0  0  0  0  0  0  0
    8.7930   -1.1300    6.6070 C   0  0  0  0  0  0  0  0  0  0  0  0
    8.6850   -0.2840    7.7160 C   0  0  0  0  0  3  0  0  0  0  0  0
    9.3980    0.9170    7.6840 C   0  0  0  0  0  3  0  0  0  0  0  0
   10.1740    1.2550    6.5770 C   0  0  0  0  0  0  0  0  0  0  0  0
   10.2760    0.3970    5.4780 C   0  0  0  0  0  3  0  0  0  0  0  0
    9.5680   -0.8240    5.4860 C   0  0  0  0  0  0  0  0  0  0  0  0
    7.6010   -2.8420    7.0080 H   0  0  0  0  0  0  0  0  0  0  0  0
   10.9240    2.4680    6.5840 N   0  0  0  0  0  0  0  0  0  0  0  0
   11.9170    2.3600    6.3700 H   0  0  0  0  0  0  0  0  0  0  0  0
   10.2930    3.7700    5.6790 S   0  0  0  0  0  0  0  0  0  0  0  0
    8.8650    3.4830    5.6310 O   0  0  0  0  0  0  0  0  0  0  0  0
   10.7250    5.0100    6.2960 O   0  0  0  0  0  0  0  0  0  0  0  0
   11.0210    3.5570    3.9780 C   0  0  0  0  0  0  0  0  0  0  0  0
   12.0920    2.7170    3.9630 F   0  0  0  0  0  0  0  0  0  0  0  0
   10.1110    3.0520    3.0940 F   0  0  0  0  0  0  0  0  0  0  0  0
   11.4480    4.7450    3.4580 F   0  0  0  0  0  0  0  0  0  0  0  0
  1  2  2  0  0  0  0
  2  3  1  0  0  0  0
  2  5  1  0  0  0  0
  3 25  1  0  0  0  0
  4  3  1  0  0  0  0
  5  6  1  0  0  0  0
  6  7  2  0  0  0  0
  8  7  1  0  0  0  0
  8 13  1  0  0  0  0
  9  8  2  0  0  0  0
 10  5  2  0  0  0  0
 10  9  1  0  0  0  0
 11  9  1  0  0  0  0
 11 12  2  0  0  0  0
 12 13  1  0  0  0  0
 13 14  1  0  0  0  0
 14 15  1  0  0  0  0
 15 16  1  0  0  0  0
 17 16  1  0  0  0  0
 18 17  1  0  0  0  0
 19 14  1  0  0  0  0
 19 18  1  0  0  0  0
 20 12  1  0  0  0  0
 20 21  1  0  0  0  0
 22 21  2  0  0  0  0
 23 22  1  0  0  0  0
 24 23  1  0  0  0  0
 24 20  2  0  0  0  0
 25 29  1  1  0  0  0
 26 25  1  0  0  0  0
 26 28  1  0  0  0  0
 27 26  2  0  0  0  0
 29 30  1  0  0  0  0
 30 31  2  0  0  0  0
 30 38  1  0  0  0  0
 31 32  1  0  0  0  0
 32 33  1  0  0  0  0
 32 39  1  0  0  0  0
 33 34  1  0  0  0  0
 35 34  2  0  0  0  0
 36 40  1  0  0  0  0
 36 35  1  0  0  0  0
 37 38  1  0  0  0  0
 37 36  2  0  0  0  0
 38 33  2  0  0  0  0
 41 40  1  0  0  0  0
 42 44  2  0  0  0  0
 42 40  1  0  0  0  0
 43 42  2  0  0  0  0
 45 42  1  0  0  0  0
 46 45  1  0  0  0  0
 47 45  1  0  0  0  0
 48 45  1  0  0  0  0
M  END
>  <minimizedAffinity>
-8.169631

$$$$

 OpenBabel09122221003D

 48 53  0  0  1  0  0  0  0  0999 V2000
    9.4170   -3.9820   -0.5490 O   0  0  0  0  0  0  0  0  0  0  0  0
    9.0010   -3.6710    0.5660 C   0  0  0  0  0  0  0  0  0  0  0  0
    9.4650   -2.5670    1.2170 N   0  0  0  0  0  0  0  0  0  0  0  0
   10.0040   -1.9190    0.6520 H   0  0  0  0  0  0  0  0  0  0  0  0
    7.9790   -4.5340    1.1970 C   0  0  0  0  0  0  0  0  0  0  0  0
    7.8460   -5.8490    0.7370 C   0  0  0  0  0  3  0  0  0  0  0  0
    6.8470   -6.6930    1.2350 C   0  0  0  0  0  3  0  0  0  0  0  0
    5.9810   -6.1660    2.2040 C   0  0  0  0  0  0  0  0  0  0  0  0
    6.1010   -4.8590    2.6690 C   0  0  0  0  0  0  0  0  0  0  0  0
    7.0920   -4.0140    2.1470 C   0  0  0  0  0  3  0  0  0  0  0  0
    5.1670   -4.5980    3.6310 N   0  0  0  0  0  0  0  0  0  0  0  0
    4.5160   -5.7260    3.8330 C   0  0  0  0  0  0  0  0  0  0  0  0
    4.8790   -6.6640    2.8810 N   0  0  0  0  0  0  0  0  0  0  0  0
    4.1680   -7.8980    2.5710 C   0  0  0  0  0  3  0  0  0  0  0  0
    3.7150   -8.0020    1.1030 C   0  0  0  0  0  2  0  0  0  0  0  0
    2.9090   -9.2780    0.8650 C   0  0  0  0  0  2  0  0  0  0  0  0
    3.6830  -10.5190    1.3050 C   0  0  0  0  0  2  0  0  0  0  0  0
    4.1320  -10.4190    2.7600 C   0  0  0  0  0  2  0  0  0  0  0  0
    4.9370   -9.1480    3.0220 C   0  0  0  0  0  2  0  0  0  0  0  0
    3.5590   -5.8560    4.9730 C   0  0  0  0  0  0  0  0  0  0  0  0
    3.7620   -6.0180    6.3650 C   0  0  0  0  0  3  0  0  0  0  0  0
    2.5100   -6.0470    6.9380 C   0  0  0  0  0  3  0  0  0  0  0  0
    1.5490   -5.8990    5.9920 O   0  0  0  0  0  0  0  0  0  0  0  0
    2.1940   -5.7640    4.8040 C   0  0  0  0  0  3  0  0  0  0  0  0
    9.2940   -2.1050    2.6190 C   0  0  2  0  0  3  0  0  0  0  0  0
    9.2880   -0.5580    2.8020 C   0  0  0  0  0  0  0  0  0  0  0  0
    9.6490   -0.1460    3.9430 O   0  0  0  0  0  1  0  0  0  0  0  0
    8.9060    0.1120    1.7960 O   0  0  0  0  0  0  0  0  0  0  0  0
   10.3470   -2.7270    3.5560 C   0  0  0  0  0  2  0  0  0  0  0  0
   10.1880   -2.4530    5.0330 C   0  0  0  0  0  0  0  0  0  0  0  0
   11.1830   -2.0750    5.9130 C   0  0  0  0  0  3  0  0  0  0  0  0
   10.6380   -1.9130    7.1540 N   0  0  0  0  0  0  0  0  0  0  0  0
    9.2820   -2.1340    7.1080 C   0  0  0  0  0  0  0  0  0  0  0  0
    8.3230   -2.0480    8.1250 C   0  0  0  0  0  3  0  0  0  0  0  0
    6.9960   -2.3190    7.7850 C   0  0  0  0  0  3  0  0  0  0  0  0
    6.6530   -2.6720    6.4810 C   0  0  0  0  0  0  0  0  0  0  0  0
    7.6200   -2.7470    5.4750 C   0  0  0  0  0  3  0  0  0  0  0  0
    8.9680   -2.4770    5.7910 C   0  0  0  0  0  0  0  0  0  0  0  0
   11.1590   -1.6530    7.9780 H   0  0  0  0  0  0  0  0  0  0  0  0
    5.2850   -2.9040    6.1490 N   0  0  0  0  0  0  0  0  0  0  0  0
    5.0230   -3.8880    6.0720 H   0  0  0  0  0  0  0  0  0  0  0  0
    4.1150   -2.0820    7.0800 S   0  0  0  0  0  0  0  0  0  0  0  0
    3.8530   -3.0030    8.1780 O   0  0  0  0  0  0  0  0  0  0  0  0
    4.6260   -0.7610    7.3970 O   0  0  0  0  0  0  0  0  0  0  0  0
    2.6150   -1.9930    5.9780 C   0  0  0  0  0  0  0  0  0  0  0  0
    1.6390   -2.8680    6.3440 F   0  0  0  0  0  0  0  0  0  0  0  0
    2.0520   -0.7490    5.9850 F   0  0  0  0  0  0  0  0  0  0  0  0
    2.9240   -2.2710    4.6780 F   0  0  0  0  0  0  0  0  0  0  0  0
  1  2  2  0  0  0  0
  2  5  1  0  0  0  0
  2  3  1  0  0  0  0
  3 25  1  0  0  0  0
  4  3  1  0  0  0  0
  5 10  1  0  0  0  0
  6  5  2  0  0  0  0
  6  7  1  0  0  0  0
  7  8  2  0  0  0  0
  8  9  1  0  0  0  0
  8 13  1  0  0  0  0
  9 11  1  0  0  0  0
 10  9  2  0  0  0  0
 11 12  2  0  0  0  0
 12 20  1  0  0  0  0
 13 12  1  0  0  0  0
 14 13  1  0  0  0  0
 14 19  1  0  0  0  0
 15 14  1  0  0  0  0
 16 15  1  0  0  0  0
 16 17  1  0  0  0  0
 17 18  1  0  0  0  0
 18 19  1  0  0  0  0
 20 21  1  0  0  0  0
 21 22  2  0  0  0  0
 23 22  1  0  0  0  0
 24 20  2  0  0  0  0
 24 23  1  0  0  0  0
 25 26  1  0  0  0  0
 25 29  1  1  0  0  0
 26 27  1  0  0  0  0
 28 26  2  0  0  0  0
 29 30  1  0  0  0  0
 30 38  1  0  0  0  0
 30 31  2  0  0  0  0
 31 32  1  0  0  0  0
 32 39  1  0  0  0  0
 33 32  1  0  0  0  0
 33 34  1  0  0  0  0
 35 34  2  0  0  0  0
 36 35  1  0  0  0  0
 37 38  1  0  0  0  0
 37 36  2  0  0  0  0
 38 33  2  0  0  0  0
 40 36  1  0  0  0  0
 40 42  1  0  0  0  0
 41 40  1  0  0  0  0
 42 44  2  0  0  0  0
 42 43  2  0  0  0  0
 45 47  1  0  0  0  0
 45 46  1  0  0  0  0
 45 42  1  0  0  0  0
 48 45  1  0  0  0  0
M  END
>  <minimizedAffinity>
-8.10040951

$$$$
