REMARK  Name = 
REMARK  11 active torsions:
REMARK  status: ('A' for Active; 'I' for Inactive)
REMARK    1  A    between atoms: C_1  and  C_2
REMARK    2  A    between atoms: C_2  and  C_3
REMARK    3  A    between atoms: C_2  and  C_4
REMARK    4  A    between atoms: C_4  and  C_5
REMARK    5  A    between atoms: C_5  and  N_6
REMARK    6  A    between atoms: C_9  and  C_10
REMARK    7  A    between atoms: C_17  and  N_18
REMARK    8  A    between atoms: N_18  and  S_19
REMARK    9  A    between atoms: S_19  and  N_22
REMARK   10  A    between atoms: N_22  and  N_23
REMARK   11  A    between atoms: C_31  and  O_32
REMARK                            x       y       z     vdW  Elec       q    Type
REMARK                         _______ _______ _______ _____ _____    ______ ____
ROOT
ATOM      1  C   UNL     1      -1.727  -3.783   0.759  0.00  0.00    +0.308 C 
ATOM      2  N   UNL     1      -2.828  -3.115   0.507  0.00  0.00    -0.131 N 
ATOM      3  S   UNL     1      -3.268  -2.560  -0.931  0.00  0.00    +0.141 S 
ATOM      4  O   UNL     1      -4.054  -3.551  -1.638  0.00  0.00    -0.129 OA
ATOM      5  O   UNL     1      -3.782  -1.214  -0.769  0.00  0.00    -0.129 OA
ATOM      6  C   UNL     1      -1.761  -2.406  -1.828  0.00  0.00    +0.176 A 
ATOM      7  C   UNL     1      -1.634  -1.446  -2.833  0.00  0.00    +0.059 A 
ATOM      8  C   UNL     1      -0.406  -1.288  -3.470  0.00  0.00    +0.051 A 
ATOM      9  C   UNL     1       0.633  -2.173  -3.174  0.00  0.00    +0.028 A 
ATOM     10  C   UNL     1       0.489  -3.129  -2.159  0.00  0.00    +0.053 A 
ATOM     11  C   UNL     1      -0.702  -3.219  -1.441  0.00  0.00    +0.148 A 
ATOM     12  N   UNL     1      -0.787  -3.986  -0.281  0.00  0.00    -0.200 N 
ATOM     13  H   UNL     1      -3.472  -2.941   1.273  0.00  0.00    +0.339 HD
ATOM     14  H   UNL     1       0.007  -4.578  -0.033  0.00  0.00    +0.298 HD
ENDROOT
BRANCH   1  18
ATOM     15  N   UNL     1      -1.830  -3.679   4.535  0.00  0.00    -0.292 N 
ATOM     16  C   UNL     1      -2.305  -3.696   3.243  0.00  0.00    +0.271 A 
ATOM     17  O   UNL     1      -3.382  -3.197   2.902  0.00  0.00    -0.267 OA
ATOM     18  C   UNL     1      -1.408  -4.222   2.168  0.00  0.00    +0.170 A 
ATOM     19  C   UNL     1      -0.306  -4.906   2.527  0.00  0.00    +0.148 A 
ATOM     20  C   UNL     1       0.008  -5.146   3.946  0.00  0.00    +0.060 A 
ATOM     21  C   UNL     1       1.024  -6.007   4.383  0.00  0.00    +0.016 A 
ATOM     22  C   UNL     1       1.330  -6.095   5.739  0.00  0.00    +0.021 A 
ATOM     23  C   UNL     1       0.606  -5.319   6.622  0.00  0.00    +0.113 A 
ATOM     24  N   UNL     1      -0.399  -4.506   6.242  0.00  0.00    -0.237 NA
ATOM     25  C   UNL     1      -0.707  -4.447   4.925  0.00  0.00    +0.147 A 
BRANCH  19  26
ATOM     26  O   UNL     1       0.618  -5.314   1.576  0.00  0.00    -0.505 OA
ATOM     27  H   UNL     1       1.480  -5.468   2.004  0.00  0.00    +0.292 HD
ENDBRANCH  19  26
BRANCH  15  28
ATOM     28  C   UNL     1      -2.492  -2.842   5.539  0.00  0.00    +0.127 C 
BRANCH  28  29
ATOM     29  C   UNL     1      -1.731  -1.527   5.799  0.00  0.00    +0.025 C 
BRANCH  29  31
ATOM     30  C   UNL     1      -2.873  -0.005   4.095  0.00  0.00    +0.007 C 
ATOM     31  C   UNL     1      -1.551  -0.614   4.566  0.00  0.00    -0.016 C 
ATOM     32  C   UNL     1      -0.560   0.510   4.885  0.00  0.00    +0.007 C 
ENDBRANCH  29  31
ENDBRANCH  28  29
ENDBRANCH  15  28
ENDBRANCH   1  18
BRANCH   8  33
ATOM     33  N   UNL     1      -0.317  -0.217  -4.403  0.00  0.00    -0.205 N 
ATOM     34  H   UNL     1      -0.962  -0.261  -5.191  0.00  0.00    +0.175 HD
BRANCH  33  35
ATOM     35  S   UNL     1       1.131   0.487  -4.851  0.00  0.00    +0.122 S 
ATOM     36  O   UNL     1       1.934  -0.510  -5.522  0.00  0.00    -0.137 OA
ATOM     37  O   UNL     1       0.823   1.736  -5.508  0.00  0.00    -0.137 OA
BRANCH  35  38
ATOM     38  N   UNL     1       1.899   0.819  -3.365  0.00  0.00    -0.109 NA
ATOM     39  H   UNL     1       2.810   1.244  -3.557  0.00  0.00    +0.169 HD
BRANCH  38  40
ATOM     40  N   UNL     1       1.063   1.609  -2.544  0.00  0.00    -0.223 NA
ATOM     41  C   UNL     1       1.459   3.044  -2.531  0.00  0.00    +0.105 C 
ATOM     42  C   UNL     1       2.344   2.766  -1.305  0.00  0.00    +0.034 C 
ATOM     43  C   UNL     1       1.479   1.510  -1.121  0.00  0.00    +0.105 C 
ENDBRANCH  38  40
ENDBRANCH  35  38
ENDBRANCH  33  35
ENDBRANCH   8  33
TORSDOF 9
