
 OpenBabel09122222213D

 43 47  0  0  1  0  0  0  0  0999 V2000
    3.4230   -8.5210    5.2020 C   0  0  1  0  0  3  0  0  0  0  0  0
    3.8660   -8.2700    6.4110 N   0  0  0  0  0  0  0  0  0  0  0  0
    3.3030   -8.9290    7.7600 S   0  0  0  0  0  0  0  0  0  0  0  0
    4.0220  -10.1500    8.0660 O   0  0  0  0  0  0  0  0  0  0  0  0
    3.1850   -7.8910    8.7660 O   0  0  0  0  0  0  0  0  0  0  0  0
    1.6600   -9.4190    7.3630 C   0  0  0  0  0  0  0  0  0  0  0  0
    0.6800   -9.4680    8.3560 C   0  0  0  0  0  3  0  0  0  0  0  0
   -0.6300   -9.7780    8.0020 C   0  0  0  0  0  0  0  0  0  0  0  0
   -0.9100  -10.1500    6.6850 C   0  0  0  0  0  3  0  0  0  0  0  0
    0.0860  -10.0920    5.7000 C   0  0  0  0  0  3  0  0  0  0  0  0
    1.3750   -9.6760    6.0270 C   0  0  0  0  0  0  0  0  0  0  0  0
    2.3090   -9.3800    5.0360 N   0  0  0  0  0  0  0  0  0  0  0  0
    4.6380   -7.6190    6.5160 H   0  0  0  0  0  0  0  0  0  0  0  0
    2.0690   -9.5900    4.0670 H   0  0  0  0  0  0  0  0  0  0  0  0
    4.3970   -5.5650    3.0590 N   0  0  0  0  0  0  0  0  0  0  0  0
    4.2920   -6.3470    4.1870 C   0  0  0  0  0  0  0  0  0  0  0  0
    4.3000   -5.8960    5.3370 O   0  0  0  0  0  0  0  0  0  0  0  0
    4.0150   -7.8060    4.0110 C   0  0  0  0  0  0  0  0  0  0  0  0
    4.1550   -8.3440    2.7850 C   0  0  0  0  0  0  0  0  0  0  0  0
    4.5860   -7.5220    1.6410 C   0  0  0  0  0  0  0  0  0  0  0  0
    4.9360   -8.0510    0.3920 C   0  0  0  0  0  3  0  0  0  0  0  0
    5.2270   -7.1990   -0.6710 C   0  0  0  0  0  3  0  0  0  0  0  0
    5.1610   -5.8380   -0.4510 C   0  0  0  0  0  3  0  0  0  0  0  0
    4.8600   -5.2940    0.7440 N   0  0  0  0  0  0  0  0  0  0  0  0
    4.6060   -6.1300    1.7780 C   0  0  0  0  0  0  0  0  0  0  0  0
    3.7990   -9.6630    2.5440 O   0  0  0  0  0  0  0  0  0  0  0  0
    3.6300   -9.7860    1.5920 H   0  0  0  0  0  0  0  0  0  0  0  0
    4.2830   -4.1090    3.1740 C   0  0  0  0  0  2  0  0  0  0  0  0
    2.9990   -3.6780    3.9110 C   0  0  0  0  0  2  0  0  0  0  0  0
    1.7700   -1.8040    5.1360 C   0  0  0  0  0  1  0  0  0  0  0  0
    3.1300   -2.4060    4.7770 C   0  0  0  0  0  3  0  0  0  0  0  0
    3.9000   -2.7230    6.0630 C   0  0  0  0  0  1  0  0  0  0  0  0
   -1.5970   -9.6990    9.0440 N   0  0  0  0  0  0  0  0  0  0  0  0
   -2.2380  -10.4880    9.1140 H   0  0  0  0  0  0  0  0  0  0  0  0
   -2.3470   -8.2740    9.4880 S   0  0  0  0  0  0  0  0  0  0  0  0
   -3.7320   -8.5620    9.7870 O   0  0  0  0  0  0  0  0  0  0  0  0
   -1.5100   -7.6290   10.4730 O   0  0  0  0  0  0  0  0  0  0  0  0
   -2.3360   -7.3450    8.0580 N   0  0  0  0  0  0  0  0  0  0  0  0
   -1.6050   -7.7070    7.4410 H   0  0  0  0  0  0  0  0  0  0  0  0
   -3.6210   -7.3270    7.4720 N   0  0  0  0  0  0  0  0  0  0  0  0
   -3.8400   -8.4610    6.5320 C   0  0  0  0  0  2  0  0  0  0  0  0
   -3.3390   -7.5750    5.3800 C   0  0  0  0  0  2  0  0  0  0  0  0
   -3.6570   -6.3970    6.3140 C   0  0  0  0  0  2  0  0  0  0  0  0
  1 18  1  1  0  0  0
  1  2  1  0  0  0  0
  2 13  1  0  0  0  0
  2  3  1  0  0  0  0
  3  4  2  0  0  0  0
  3  5  2  0  0  0  0
  6  3  1  0  0  0  0
  6  7  1  0  0  0  0
  8  7  2  0  0  0  0
  8 33  1  0  0  0  0
  9  8  1  0  0  0  0
 10 11  1  0  0  0  0
 10  9  2  0  0  0  0
 11  6  2  0  0  0  0
 12  1  1  0  0  0  0
 12 11  1  0  0  0  0
 14 12  1  0  0  0  0
 15 28  1  0  0  0  0
 15 16  1  0  0  0  0
 16 17  2  0  0  0  0
 18 16  1  0  0  0  0
 19 18  2  0  0  0  0
 20 25  1  0  0  0  0
 20 19  1  0  0  0  0
 21 20  2  0  0  0  0
 22 23  2  0  0  0  0
 22 21  1  0  0  0  0
 23 24  1  0  0  0  0
 24 25  2  0  0  0  0
 25 15  1  0  0  0  0
 26 19  1  0  0  0  0
 27 26  1  0  0  0  0
 28 29  1  0  0  0  0
 29 31  1  0  0  0  0
 31 30  1  0  0  0  0
 31 32  1  0  0  0  0
 33 34  1  0  0  0  0
 33 35  1  0  0  0  0
 35 36  2  0  0  0  0
 35 37  2  0  0  0  0
 38 35  1  0  0  0  0
 39 38  1  0  0  0  0
 40 38  1  0  0  0  0
 41 40  1  0  0  0  0
 42 43  1  0  0  0  0
 42 41  1  0  0  0  0
 43 40  1  0  0  0  0
M  END
>  <minimizedAffinity>
-7.09607458

$$$$

 OpenBabel09122222213D

 43 47  0  0  1  0  0  0  0  0999 V2000
    2.4660   -7.3620    7.2510 C   0  0  0  0  0  0  0  0  0  0  0  0
    2.2720   -6.5980    8.3000 N   0  0  0  0  0  0  0  0  0  0  0  0
    1.4100   -6.9960    9.5910 S   0  0  0  0  0  0  0  0  0  0  0  0
    2.2480   -7.6430   10.5810 O   0  0  0  0  0  0  0  0  0  0  0  0
    0.5940   -5.8590    9.9700 O   0  0  0  0  0  0  0  0  0  0  0  0
    0.2950   -8.2320    9.0170 C   0  0  0  0  0  0  0  0  0  0  0  0
   -0.9520   -8.3930    9.6230 C   0  0  0  0  0  3  0  0  0  0  0  0
   -1.8480   -9.3200    9.0980 C   0  0  0  0  0  0  0  0  0  0  0  0
   -1.4340  -10.1500    8.0540 C   0  0  0  0  0  3  0  0  0  0  0  0
   -0.1790   -9.9720    7.4550 C   0  0  0  0  0  3  0  0  0  0  0  0
    0.6800   -8.9710    7.9050 C   0  0  0  0  0  0  0  0  0  0  0  0
    1.8160   -8.6180    7.1800 N   0  0  0  0  0  0  0  0  0  0  0  0
    2.7110   -5.6820    8.3170 H   0  0  0  0  0  0  0  0  0  0  0  0
    2.0730   -9.1900    6.3740 H   0  0  0  0  0  0  0  0  0  0  0  0
    4.3420   -4.8350    5.1600 N   0  0  0  0  0  0  0  0  0  0  0  0
    3.9800   -5.5540    6.2770 C   0  0  0  0  0  0  0  0  0  0  0  0
    4.1020   -5.1340    7.4320 O   0  0  0  0  0  0  0  0  0  0  0  0
    3.2720   -6.8560    6.0790 C   0  0  0  0  0  0  0  0  0  0  0  0
    3.2660   -7.4050    4.8500 C   0  0  2  0  0  3  0  0  0  0  0  0
    3.9500   -6.7480    3.7230 C   0  0  0  0  0  0  0  0  0  0  0  0
    4.1470   -7.3510    2.4740 C   0  0  0  0  0  3  0  0  0  0  0  0
    4.7050   -6.6230    1.4260 C   0  0  0  0  0  3  0  0  0  0  0  0
    5.0560   -5.3080    1.6610 C   0  0  0  0  0  3  0  0  0  0  0  0
    4.9130   -4.7060    2.8570 N   0  0  0  0  0  0  0  0  0  0  0  0
    4.3930   -5.4290    3.8770 C   0  0  0  0  0  0  0  0  0  0  0  0
    2.5270   -8.5490    4.5870 O   0  0  0  0  0  0  0  0  0  0  0  0
    2.3480   -8.6090    3.6310 H   0  0  0  0  0  0  0  0  0  0  0  0
    4.6780   -3.4140    5.2900 C   0  0  0  0  0  2  0  0  0  0  0  0
    3.4240   -2.5190    5.3490 C   0  0  0  0  0  2  0  0  0  0  0  0
    4.3550   -1.3450    7.4180 C   0  0  0  0  0  1  0  0  0  0  0  0
    3.1100   -1.9150    6.7360 C   0  0  0  0  0  3  0  0  0  0  0  0
    2.0550   -0.8120    6.6010 C   0  0  0  0  0  1  0  0  0  0  0  0
   -3.1390   -9.3510    9.6940 N   0  0  0  0  0  0  0  0  0  0  0  0
   -3.3380  -10.1620   10.2790 H   0  0  0  0  0  0  0  0  0  0  0  0
   -4.5190   -8.8200    8.9150 S   0  0  0  0  0  0  0  0  0  0  0  0
   -4.7880   -9.7100    7.8080 O   0  0  0  0  0  0  0  0  0  0  0  0
   -5.5270   -8.5880    9.9240 O   0  0  0  0  0  0  0  0  0  0  0  0
   -4.0560   -7.3230    8.2420 N   0  0  0  0  0  0  0  0  0  0  0  0
   -3.0870   -7.1320    8.5100 H   0  0  0  0  0  0  0  0  0  0  0  0
   -4.2720   -7.3220    6.8460 N   0  0  0  0  0  0  0  0  0  0  0  0
   -3.2830   -8.1570    6.1100 C   0  0  0  0  0  2  0  0  0  0  0  0
   -2.3940   -6.9140    5.9390 C   0  0  0  0  0  2  0  0  0  0  0  0
   -3.6740   -6.1140    6.2220 C   0  0  0  0  0  2  0  0  0  0  0  0
  1  2  1  0  0  0  0
  2 13  1  0  0  0  0
  2  3  1  0  0  0  0
  3  5  2  0  0  0  0
  3  4  2  0  0  0  0
  6  3  1  0  0  0  0
  6  7  1  0  0  0  0
  8  7  2  0  0  0  0
  8 33  1  0  0  0  0
  9  8  1  0  0  0  0
 10 11  1  0  0  0  0
 10  9  2  0  0  0  0
 11  6  2  0  0  0  0
 12  1  1  0  0  0  0
 12 11  1  0  0  0  0
 14 12  1  0  0  0  0
 15 28  1  0  0  0  0
 15 16  1  0  0  0  0
 16 17  2  0  0  0  0
 18 16  1  0  0  0  0
 18  1  2  0  0  0  0
 19 26  1  6  0  0  0
 19 18  1  0  0  0  0
 20 25  1  0  0  0  0
 20 19  1  0  0  0  0
 21 20  2  0  0  0  0
 22 23  2  0  0  0  0
 22 21  1  0  0  0  0
 23 24  1  0  0  0  0
 24 25  2  0  0  0  0
 25 15  1  0  0  0  0
 27 26  1  0  0  0  0
 28 29  1  0  0  0  0
 29 31  1  0  0  0  0
 31 30  1  0  0  0  0
 32 31  1  0  0  0  0
 33 34  1  0  0  0  0
 35 33  1  0  0  0  0
 35 37  2  0  0  0  0
 36 35  2  0  0  0  0
 38 39  1  0  0  0  0
 38 35  1  0  0  0  0
 40 38  1  0  0  0  0
 41 40  1  0  0  0  0
 42 41  1  0  0  0  0
 42 43  1  0  0  0  0
 43 40  1  0  0  0  0
M  END
>  <minimizedAffinity>
-6.48199511

$$$$

 OpenBabel09122222213D

 43 47  0  0  1  0  0  0  0  0999 V2000
    0.9870   -7.6550    9.2120 C   0  0  1  0  0  3  0  0  0  0  0  0
    2.1750   -8.1580    8.9710 N   0  0  0  0  0  0  0  0  0  0  0  0
    3.5700   -7.4610    9.3400 S   0  0  0  0  0  0  0  0  0  0  0  0
    3.9960   -7.8500   10.6690 O   0  0  0  0  0  0  0  0  0  0  0  0
    4.4750   -7.6180    8.2180 O   0  0  0  0  0  0  0  0  0  0  0  0
    3.1970   -5.7430    9.4340 C   0  0  0  0  0  0  0  0  0  0  0  0
    4.1760   -4.7920    9.1420 C   0  0  0  0  0  3  0  0  0  0  0  0
    3.8340   -3.4430    9.1420 C   0  0  0  0  0  0  0  0  0  0  0  0
    2.5530   -3.0660    9.5510 C   0  0  0  0  0  3  0  0  0  0  0  0
    1.5810   -4.0340    9.8370 C   0  0  0  0  0  3  0  0  0  0  0  0
    1.8860   -5.3900    9.7310 C   0  0  0  0  0  0  0  0  0  0  0  0
    0.8850   -6.3590    9.7730 N   0  0  0  0  0  0  0  0  0  0  0  0
    2.2310   -9.0710    8.5300 H   0  0  0  0  0  0  0  0  0  0  0  0
   -0.0640   -6.0630   10.0040 H   0  0  0  0  0  0  0  0  0  0  0  0
   -1.2550   -9.6200    6.8900 N   0  0  0  0  0  0  0  0  0  0  0  0
   -0.1160   -9.2830    7.5860 C   0  0  0  0  0  0  0  0  0  0  0  0
    1.0250   -9.5750    7.2150 O   0  0  0  0  0  0  0  0  0  0  0  0
   -0.2560   -8.3970    8.7830 C   0  0  0  0  0  0  0  0  0  0  0  0
   -1.4840   -8.1950    9.2940 C   0  0  0  0  0  0  0  0  0  0  0  0
   -2.6670   -8.8410    8.7000 C   0  0  0  0  0  0  0  0  0  0  0  0
   -3.9380   -8.8300    9.2910 C   0  0  0  0  0  3  0  0  0  0  0  0
   -5.0290   -9.3690    8.6120 C   0  0  0  0  0  3  0  0  0  0  0  0
   -4.8150   -9.9080    7.3590 C   0  0  0  0  0  3  0  0  0  0  0  0
   -3.6030   -9.9660    6.7750 N   0  0  0  0  0  0  0  0  0  0  0  0
   -2.5440   -9.4640    7.4530 C   0  0  0  0  0  0  0  0  0  0  0  0
   -1.6840   -7.2920   10.3280 O   0  0  0  0  0  0  0  0  0  0  0  0
   -2.6170   -7.0110   10.3400 H   0  0  0  0  0  0  0  0  0  0  0  0
   -1.1420  -10.1470    5.5280 C   0  0  0  0  0  2  0  0  0  0  0  0
   -0.5230   -9.1250    4.5540 C   0  0  0  0  0  2  0  0  0  0  0  0
   -2.8880   -8.5540    3.7750 C   0  0  0  0  0  1  0  0  0  0  0  0
   -1.4830   -8.0200    4.0600 C   0  0  0  0  0  3  0  0  0  0  0  0
   -1.5690   -6.8970    5.0990 C   0  0  0  0  0  1  0  0  0  0  0  0
    4.8510   -2.5380    8.7260 N   0  0  0  0  0  0  0  0  0  0  0  0
    5.4160   -2.1340    9.4720 H   0  0  0  0  0  0  0  0  0  0  0  0
    4.6520   -1.4550    7.4690 S   0  0  0  0  0  0  0  0  0  0  0  0
    3.3170   -0.9070    7.5460 O   0  0  0  0  0  0  0  0  0  0  0  0
    5.8000   -0.5770    7.4650 O   0  0  0  0  0  0  0  0  0  0  0  0
    4.7020   -2.4360    6.0750 N   0  0  0  0  0  0  0  0  0  0  0  0
    5.4100   -3.1610    6.2120 H   0  0  0  0  0  0  0  0  0  0  0  0
    3.4150   -2.9430    5.7840 N   0  0  0  0  0  0  0  0  0  0  0  0
    3.4090   -4.4190    5.5880 C   0  0  0  0  0  2  0  0  0  0  0  0
    3.6270   -4.1980    4.0830 C   0  0  0  0  0  2  0  0  0  0  0  0
    3.1000   -2.7790    4.3410 C   0  0  0  0  0  2  0  0  0  0  0  0
  1 18  1  6  0  0  0
  1 12  1  0  0  0  0
  2  1  1  0  0  0  0
  2  3  1  0  0  0  0
  3  6  1  0  0  0  0
  3  4  2  0  0  0  0
  5  3  2  0  0  0  0
  6 11  1  0  0  0  0
  7  8  1  0  0  0  0
  7  6  2  0  0  0  0
  8  9  2  0  0  0  0
  9 10  1  0  0  0  0
 11 12  1  0  0  0  0
 11 10  2  0  0  0  0
 12 14  1  0  0  0  0
 13  2  1  0  0  0  0
 15 25  1  0  0  0  0
 15 16  1  0  0  0  0
 16 18  1  0  0  0  0
 17 16  2  0  0  0  0
 18 19  2  0  0  0  0
 19 26  1  0  0  0  0
 20 21  1  0  0  0  0
 20 19  1  0  0  0  0
 22 21  2  0  0  0  0
 23 22  1  0  0  0  0
 24 23  2  0  0  0  0
 24 25  1  0  0  0  0
 25 20  2  0  0  0  0
 26 27  1  0  0  0  0
 28 15  1  0  0  0  0
 29 28  1  0  0  0  0
 30 31  1  0  0  0  0
 31 29  1  0  0  0  0
 31 32  1  0  0  0  0
 33  8  1  0  0  0  0
 33 34  1  0  0  0  0
 35 36  2  0  0  0  0
 35 33  1  0  0  0  0
 37 35  2  0  0  0  0
 38 39  1  0  0  0  0
 38 35  1  0  0  0  0
 40 38  1  0  0  0  0
 41 40  1  0  0  0  0
 42 43  1  0  0  0  0
 42 41  1  0  0  0  0
 43 40  1  0  0  0  0
M  END
>  <minimizedAffinity>
-6.20812035

$$$$

 OpenBabel09122222213D

 43 47  0  0  1  0  0  0  0  0999 V2000
    2.9090   -5.8640    9.2310 C   0  0  1  0  0  3  0  0  0  0  0  0
    2.2360   -6.5660   10.1120 N   0  0  0  0  0  0  0  0  0  0  0  0
    1.5820   -8.0050    9.8460 S   0  0  0  0  0  0  0  0  0  0  0  0
    2.5270   -9.0570   10.1630 O   0  0  0  0  0  0  0  0  0  0  0  0
    0.2560   -8.0260   10.4340 O   0  0  0  0  0  0  0  0  0  0  0  0
    1.3480   -8.0720    8.1030 C   0  0  0  0  0  0  0  0  0  0  0  0
    0.3160   -8.8390    7.5590 C   0  0  0  0  0  3  0  0  0  0  0  0
    0.0990   -8.8090    6.1840 C   0  0  0  0  0  0  0  0  0  0  0  0
    0.9930   -8.1100    5.3700 C   0  0  0  0  0  3  0  0  0  0  0  0
    2.0220   -7.3420    5.9330 C   0  0  0  0  0  3  0  0  0  0  0  0
    2.1760   -7.2800    7.3170 C   0  0  0  0  0  0  0  0  0  0  0  0
    3.0260   -6.3460    7.9050 N   0  0  0  0  0  0  0  0  0  0  0  0
    2.1240   -6.1870   11.0470 H   0  0  0  0  0  0  0  0  0  0  0  0
    3.6270   -5.7870    7.2960 H   0  0  0  0  0  0  0  0  0  0  0  0
    3.0240   -2.0880    9.3190 N   0  0  0  0  0  0  0  0  0  0  0  0
    2.4980   -3.3540    9.4410 C   0  0  0  0  0  0  0  0  0  0  0  0
    1.2970   -3.6120    9.3170 O   0  0  0  0  0  0  0  0  0  0  0  0
    3.4460   -4.5000    9.5950 C   0  0  0  0  0  0  0  0  0  0  0  0
    4.7330   -4.2360    9.8860 C   0  0  0  0  0  0  0  0  0  0  0  0
    5.2010   -2.8500   10.0640 C   0  0  0  0  0  0  0  0  0  0  0  0
    6.4700   -2.5150   10.5540 C   0  0  0  0  0  3  0  0  0  0  0  0
    6.8760   -1.1830   10.5890 C   0  0  0  0  0  3  0  0  0  0  0  0
    5.9950   -0.2210   10.1350 C   0  0  0  0  0  3  0  0  0  0  0  0
    4.7560   -0.5040    9.6890 N   0  0  0  0  0  0  0  0  0  0  0  0
    4.3600   -1.7980    9.6830 C   0  0  0  0  0  0  0  0  0  0  0  0
    5.6760   -5.2530    9.9240 O   0  0  0  0  0  0  0  0  0  0  0  0
    6.5670   -4.8770    9.7990 H   0  0  0  0  0  0  0  0  0  0  0  0
    2.1890   -1.0050    8.7910 C   0  0  0  0  0  2  0  0  0  0  0  0
    2.4170   -0.7710    7.2840 C   0  0  0  0  0  2  0  0  0  0  0  0
    1.7360   -1.9540    5.1250 C   0  0  0  0  0  1  0  0  0  0  0  0
    2.5320   -2.0520    6.4280 C   0  0  0  0  0  3  0  0  0  0  0  0
    4.0020   -2.3370    6.1040 C   0  0  0  0  0  1  0  0  0  0  0  0
   -1.0380   -9.5230    5.7130 N   0  0  0  0  0  0  0  0  0  0  0  0
   -0.8530  -10.2310    5.0030 H   0  0  0  0  0  0  0  0  0  0  0  0
   -2.5310   -8.8120    5.4770 S   0  0  0  0  0  0  0  0  0  0  0  0
   -2.3970   -7.3890    5.6920 O   0  0  0  0  0  0  0  0  0  0  0  0
   -3.0600   -9.3120    4.2290 O   0  0  0  0  0  0  0  0  0  0  0  0
   -3.4770   -9.4170    6.7600 N   0  0  0  0  0  0  0  0  0  0  0  0
   -2.9960  -10.2230    7.1680 H   0  0  0  0  0  0  0  0  0  0  0  0
   -3.7590   -8.3910    7.6910 N   0  0  0  0  0  0  0  0  0  0  0  0
   -2.9800   -8.5280    8.9520 C   0  0  0  0  0  2  0  0  0  0  0  0
   -4.1360   -9.3440    9.5520 C   0  0  0  0  0  2  0  0  0  0  0  0
   -4.9960   -8.6990    8.4540 C   0  0  0  0  0  2  0  0  0  0  0  0
  1 18  1  6  0  0  0
  1  2  1  0  0  0  0
  2 13  1  0  0  0  0
  3  2  1  0  0  0  0
  3  4  2  0  0  0  0
  3  5  2  0  0  0  0
  6  3  1  0  0  0  0
  7  6  1  0  0  0  0
  8  7  2  0  0  0  0
  9 10  2  0  0  0  0
  9  8  1  0  0  0  0
 10 11  1  0  0  0  0
 11 12  1  0  0  0  0
 11  6  2  0  0  0  0
 12  1  1  0  0  0  0
 14 12  1  0  0  0  0
 15 16  1  0  0  0  0
 15 25  1  0  0  0  0
 16 18  1  0  0  0  0
 17 16  2  0  0  0  0
 18 19  2  0  0  0  0
 19 26  1  0  0  0  0
 19 20  1  0  0  0  0
 20 21  1  0  0  0  0
 21 22  2  0  0  0  0
 23 22  1  0  0  0  0
 24 23  2  0  0  0  0
 25 24  1  0  0  0  0
 25 20  2  0  0  0  0
 27 26  1  0  0  0  0
 28 15  1  0  0  0  0
 29 28  1  0  0  0  0
 30 31  1  0  0  0  0
 31 29  1  0  0  0  0
 32 31  1  0  0  0  0
 33  8  1  0  0  0  0
 34 33  1  0  0  0  0
 35 36  2  0  0  0  0
 35 33  1  0  0  0  0
 35 38  1  0  0  0  0
 37 35  2  0  0  0  0
 38 39  1  0  0  0  0
 38 40  1  0  0  0  0
 40 43  1  0  0  0  0
 40 41  1  0  0  0  0
 41 42  1  0  0  0  0
 43 42  1  0  0  0  0
M  END
>  <minimizedAffinity>
-5.9260273

$$$$

 OpenBabel09122222213D

 43 47  0  0  1  0  0  0  0  0999 V2000
    2.3490   -5.8420    8.5940 C   0  0  1  0  0  3  0  0  0  0  0  0
    1.5280   -6.0380    9.5990 N   0  0  0  0  0  0  0  0  0  0  0  0
    0.6820   -7.3740    9.8580 S   0  0  0  0  0  0  0  0  0  0  0  0
    1.4380   -8.3030   10.6740 O   0  0  0  0  0  0  0  0  0  0  0  0
   -0.6630   -7.0010   10.2500 O   0  0  0  0  0  0  0  0  0  0  0  0
    0.5410   -8.1260    8.2720 C   0  0  0  0  0  0  0  0  0  0  0  0
   -0.5610   -8.9250    7.9660 C   0  0  0  0  0  3  0  0  0  0  0  0
   -0.6910   -9.4400    6.6790 C   0  0  0  0  0  0  0  0  0  0  0  0
    0.3430   -9.2440    5.7610 C   0  0  0  0  0  3  0  0  0  0  0  0
    1.4410   -8.4350    6.0840 C   0  0  0  0  0  3  0  0  0  0  0  0
    1.5230   -7.8270    7.3350 C   0  0  0  0  0  0  0  0  0  0  0  0
    2.4690   -6.8370    7.5930 N   0  0  0  0  0  0  0  0  0  0  0  0
    1.4220   -5.2970   10.2860 H   0  0  0  0  0  0  0  0  0  0  0  0
    3.1810   -6.6510    6.8850 H   0  0  0  0  0  0  0  0  0  0  0  0
    4.0780   -3.0210    6.7690 N   0  0  0  0  0  0  0  0  0  0  0  0
    3.1010   -3.9460    7.0610 C   0  0  0  0  0  0  0  0  0  0  0  0
    2.3270   -4.4140    6.2200 O   0  0  0  0  0  0  0  0  0  0  0  0
    3.0630   -4.5200    8.4410 C   0  0  0  0  0  0  0  0  0  0  0  0
    3.7850   -3.9220    9.4070 C   0  0  0  0  0  0  0  0  0  0  0  0
    4.5860   -2.7200    9.1200 C   0  0  0  0  0  0  0  0  0  0  0  0
    5.2010   -1.9410   10.1090 C   0  0  0  0  0  3  0  0  0  0  0  0
    6.0330   -0.8830    9.7490 C   0  0  0  0  0  3  0  0  0  0  0  0
    6.2220   -0.6320    8.4040 C   0  0  0  0  0  3  0  0  0  0  0  0
    5.6220   -1.3380    7.4270 N   0  0  0  0  0  0  0  0  0  0  0  0
    4.7940   -2.3480    7.7870 C   0  0  0  0  0  0  0  0  0  0  0  0
    3.8770   -4.4810   10.6740 O   0  0  0  0  0  0  0  0  0  0  0  0
    4.6750   -4.1450   11.1210 H   0  0  0  0  0  0  0  0  0  0  0  0
    4.3990   -2.7230    5.3700 C   0  0  0  0  0  2  0  0  0  0  0  0
    5.3370   -3.7760    4.7480 C   0  0  0  0  0  2  0  0  0  0  0  0
    6.0360   -4.7200    2.4790 C   0  0  0  0  0  1  0  0  0  0  0  0
    4.8660   -4.3630    3.3980 C   0  0  0  0  0  3  0  0  0  0  0  0
    4.0110   -5.6120    3.6380 C   0  0  0  0  0  1  0  0  0  0  0  0
   -1.8930  -10.1500    6.4060 N   0  0  0  0  0  0  0  0  0  0  0  0
   -1.7770  -11.0870    6.0230 H   0  0  0  0  0  0  0  0  0  0  0  0
   -3.2690   -9.4200    5.8000 S   0  0  0  0  0  0  0  0  0  0  0  0
   -3.1840   -8.0010    6.0600 O   0  0  0  0  0  0  0  0  0  0  0  0
   -3.4610   -9.9030    4.4530 O   0  0  0  0  0  0  0  0  0  0  0  0
   -4.5200  -10.0270    6.7880 N   0  0  0  0  0  0  0  0  0  0  0  0
   -4.1830  -10.8720    7.2580 H   0  0  0  0  0  0  0  0  0  0  0  0
   -4.9790   -9.0260    7.6730 N   0  0  0  0  0  0  0  0  0  0  0  0
   -4.2010   -8.9800    8.9420 C   0  0  0  0  0  2  0  0  0  0  0  0
   -5.2120   -9.9520    9.5710 C   0  0  0  0  0  2  0  0  0  0  0  0
   -6.1550   -9.5050    8.4440 C   0  0  0  0  0  2  0  0  0  0  0  0
  1 18  1  6  0  0  0
  1  2  1  0  0  0  0
  2  3  1  0  0  0  0
  2 13  1  0  0  0  0
  3  5  2  0  0  0  0
  3  4  2  0  0  0  0
  6  3  1  0  0  0  0
  7  6  1  0  0  0  0
  8  7  2  0  0  0  0
  9 10  2  0  0  0  0
  9  8  1  0  0  0  0
 10 11  1  0  0  0  0
 11 12  1  0  0  0  0
 11  6  2  0  0  0  0
 12  1  1  0  0  0  0
 14 12  1  0  0  0  0
 15 16  1  0  0  0  0
 15 25  1  0  0  0  0
 16 18  1  0  0  0  0
 17 16  2  0  0  0  0
 18 19  2  0  0  0  0
 19 26  1  0  0  0  0
 20 19  1  0  0  0  0
 20 21  1  0  0  0  0
 22 21  2  0  0  0  0
 23 22  1  0  0  0  0
 24 25  1  0  0  0  0
 24 23  2  0  0  0  0
 25 20  2  0  0  0  0
 26 27  1  0  0  0  0
 28 15  1  0  0  0  0
 29 28  1  0  0  0  0
 30 31  1  0  0  0  0
 31 32  1  0  0  0  0
 31 29  1  0  0  0  0
 33  8  1  0  0  0  0
 34 33  1  0  0  0  0
 35 36  2  0  0  0  0
 35 33  1  0  0  0  0
 35 38  1  0  0  0  0
 37 35  2  0  0  0  0
 38 39  1  0  0  0  0
 38 40  1  0  0  0  0
 40 43  1  0  0  0  0
 40 41  1  0  0  0  0
 41 42  1  0  0  0  0
 43 42  1  0  0  0  0
M  END
>  <minimizedAffinity>
-5.53186798

$$$$

 OpenBabel09122222213D

 43 47  0  0  1  0  0  0  0  0999 V2000
    2.8060   -7.8980    5.6560 C   0  0  1  0  0  3  0  0  0  0  0  0
    3.0140   -8.0070    6.9470 N   0  0  0  0  0  0  0  0  0  0  0  0
    1.9630   -8.5870    8.0100 S   0  0  0  0  0  0  0  0  0  0  0  0
    2.1290  -10.0190    8.1570 O   0  0  0  0  0  0  0  0  0  0  0  0
    1.9760   -7.7360    9.1840 O   0  0  0  0  0  0  0  0  0  0  0  0
    0.3910   -8.3560    7.2520 C   0  0  0  0  0  0  0  0  0  0  0  0
   -0.7490   -8.1700    8.0360 C   0  0  0  0  0  3  0  0  0  0  0  0
   -1.9660   -7.9060    7.4130 C   0  0  0  0  0  0  0  0  0  0  0  0
   -2.0410   -7.9540    6.0190 C   0  0  0  0  0  3  0  0  0  0  0  0
   -0.8860   -8.1390    5.2480 C   0  0  0  0  0  3  0  0  0  0  0  0
    0.3550   -8.2940    5.8640 C   0  0  0  0  0  0  0  0  0  0  0  0
    1.5360   -8.2370    5.1280 N   0  0  0  0  0  0  0  0  0  0  0  0
    3.9150   -7.7200    7.3160 H   0  0  0  0  0  0  0  0  0  0  0  0
    1.4710   -8.2010    4.1100 H   0  0  0  0  0  0  0  0  0  0  0  0
    4.8010   -5.1530    3.9940 N   0  0  0  0  0  0  0  0  0  0  0  0
    4.2080   -5.8650    5.0110 C   0  0  0  0  0  0  0  0  0  0  0  0
    3.8370   -5.3600    6.0760 O   0  0  0  0  0  0  0  0  0  0  0  0
    3.8660   -7.3000    4.7620 C   0  0  0  0  0  0  0  0  0  0  0  0
    4.3920   -7.9090    3.6840 C   0  0  0  0  0  0  0  0  0  0  0  0
    5.2970   -7.1870    2.7720 C   0  0  0  0  0  0  0  0  0  0  0  0
    6.0270   -7.8070    1.7490 C   0  0  0  0  0  3  0  0  0  0  0  0
    6.7750   -7.0390    0.8610 C   0  0  0  0  0  3  0  0  0  0  0  0
    6.7740   -5.6680    1.0240 C   0  0  0  0  0  3  0  0  0  0  0  0
    6.1110   -5.0400    2.0150 N   0  0  0  0  0  0  0  0  0  0  0  0
    5.4080   -5.7970    2.8900 C   0  0  0  0  0  0  0  0  0  0  0  0
    4.0160   -9.2000    3.3440 O   0  0  0  0  0  0  0  0  0  0  0  0
    4.1990   -9.3540    2.3990 H   0  0  0  0  0  0  0  0  0  0  0  0
    4.8040   -3.6880    4.0410 C   0  0  0  0  0  2  0  0  0  0  0  0
    3.3970   -3.0930    3.8320 C   0  0  0  0  0  2  0  0  0  0  0  0
    3.6880   -1.9250    6.0840 C   0  0  0  0  0  1  0  0  0  0  0  0
    2.7030   -2.5740    5.1110 C   0  0  0  0  0  3  0  0  0  0  0  0
    1.6130   -1.5630    4.7430 C   0  0  0  0  0  1  0  0  0  0  0  0
   -3.0610   -7.6150    8.2740 N   0  0  0  0  0  0  0  0  0  0  0  0
   -2.9920   -7.9890    9.2200 H   0  0  0  0  0  0  0  0  0  0  0  0
   -4.6490   -7.5850    7.7550 S   0  0  0  0  0  0  0  0  0  0  0  0
   -4.9900   -6.2230    7.4120 O   0  0  0  0  0  0  0  0  0  0  0  0
   -4.8100   -8.6420    6.7840 O   0  0  0  0  0  0  0  0  0  0  0  0
   -5.5420   -7.9790    9.1540 N   0  0  0  0  0  0  0  0  0  0  0  0
   -6.4270   -7.4660    9.1300 H   0  0  0  0  0  0  0  0  0  0  0  0
   -5.6970   -9.3790    9.2610 N   0  0  0  0  0  0  0  0  0  0  0  0
   -5.6910   -9.8520   10.6730 C   0  0  0  0  0  2  0  0  0  0  0  0
   -4.1710  -10.0620   10.5730 C   0  0  0  0  0  2  0  0  0  0  0  0
   -4.3970  -10.0690    9.0540 C   0  0  0  0  0  2  0  0  0  0  0  0
  1 18  1  1  0  0  0
  1  2  1  0  0  0  0
  2 13  1  0  0  0  0
  2  3  1  0  0  0  0
  3  4  2  0  0  0  0
  3  5  2  0  0  0  0
  6  3  1  0  0  0  0
  6  7  1  0  0  0  0
  8  7  2  0  0  0  0
  8 33  1  0  0  0  0
  9  8  1  0  0  0  0
 10 11  1  0  0  0  0
 10  9  2  0  0  0  0
 11  6  2  0  0  0  0
 12  1  1  0  0  0  0
 12 11  1  0  0  0  0
 14 12  1  0  0  0  0
 15 28  1  0  0  0  0
 15 16  1  0  0  0  0
 16 17  2  0  0  0  0
 18 16  1  0  0  0  0
 19 18  2  0  0  0  0
 20 25  1  0  0  0  0
 20 19  1  0  0  0  0
 21 20  2  0  0  0  0
 22 23  2  0  0  0  0
 22 21  1  0  0  0  0
 23 24  1  0  0  0  0
 24 25  2  0  0  0  0
 25 15  1  0  0  0  0
 26 19  1  0  0  0  0
 27 26  1  0  0  0  0
 29 28  1  0  0  0  0
 29 31  1  0  0  0  0
 31 30  1  0  0  0  0
 32 31  1  0  0  0  0
 33 34  1  0  0  0  0
 35 33  1  0  0  0  0
 35 38  1  0  0  0  0
 36 35  2  0  0  0  0
 37 35  2  0  0  0  0
 38 40  1  0  0  0  0
 39 38  1  0  0  0  0
 40 41  1  0  0  0  0
 42 41  1  0  0  0  0
 43 40  1  0  0  0  0
 43 42  1  0  0  0  0
M  END
>  <minimizedAffinity>
-5.32905006

$$$$

 OpenBabel09122222213D

 43 47  0  0  1  0  0  0  0  0999 V2000
    2.7970   -6.3060    7.8670 C   0  0  0  0  0  0  0  0  0  0  0  0
    1.6130   -6.1940    7.3140 N   0  0  0  0  0  0  0  0  0  0  0  0
    0.9090   -7.3040    6.3960 S   0  0  0  0  0  0  0  0  0  0  0  0
    0.1220   -8.2100    7.2080 O   0  0  0  0  0  0  0  0  0  0  0  0
    0.3000   -6.6420    5.2580 O   0  0  0  0  0  0  0  0  0  0  0  0
    2.2410   -8.2590    5.7540 C   0  0  0  0  0  0  0  0  0  0  0  0
    2.1220   -8.8910    4.5150 C   0  0  0  0  0  3  0  0  0  0  0  0
    3.2180   -9.5710    3.9910 C   0  0  0  0  0  0  0  0  0  0  0  0
    4.3690   -9.7080    4.7700 C   0  0  0  0  0  3  0  0  0  0  0  0
    4.4730   -9.0640    6.0110 C   0  0  0  0  0  3  0  0  0  0  0  0
    3.4180   -8.2890    6.4910 C   0  0  0  0  0  0  0  0  0  0  0  0
    3.5840   -7.4520    7.5930 N   0  0  0  0  0  0  0  0  0  0  0  0
    1.0790   -5.3480    7.4860 H   0  0  0  0  0  0  0  0  0  0  0  0
    4.4590   -7.5080    8.1160 H   0  0  0  0  0  0  0  0  0  0  0  0
    2.9580   -2.8330    9.3470 N   0  0  0  0  0  0  0  0  0  0  0  0
    2.4250   -4.0580    9.0150 C   0  0  0  0  0  0  0  0  0  0  0  0
    1.2160   -4.2610    8.8620 O   0  0  0  0  0  0  0  0  0  0  0  0
    3.3670   -5.1720    8.6850 C   0  0  0  0  0  0  0  0  0  0  0  0
    4.6690   -5.0250    8.9900 C   0  0  2  0  0  3  0  0  0  0  0  0
    5.1600   -3.8020    9.6470 C   0  0  0  0  0  0  0  0  0  0  0  0
    6.4560   -3.6630   10.1640 C   0  0  0  0  0  3  0  0  0  0  0  0
    6.8770   -2.4360   10.6720 C   0  0  0  0  0  3  0  0  0  0  0  0
    5.9870   -1.3820   10.6510 C   0  0  0  0  0  3  0  0  0  0  0  0
    4.7240   -1.4870   10.1940 N   0  0  0  0  0  0  0  0  0  0  0  0
    4.3140   -2.6900    9.7270 C   0  0  0  0  0  0  0  0  0  0  0  0
    5.6020   -5.9760    8.6010 O   0  0  0  0  0  0  0  0  0  0  0  0
    6.4890   -5.5740    8.5810 H   0  0  0  0  0  0  0  0  0  0  0  0
    2.1120   -1.6380    9.3010 C   0  0  0  0  0  2  0  0  0  0  0  0
    2.0940   -0.9860    7.9040 C   0  0  0  0  0  2  0  0  0  0  0  0
    1.4330   -1.5780    5.5090 C   0  0  0  0  0  1  0  0  0  0  0  0
    2.2870   -1.9580    6.7200 C   0  0  0  0  0  3  0  0  0  0  0  0
    3.7620   -1.9960    6.3070 C   0  0  0  0  0  1  0  0  0  0  0  0
    3.0630  -10.0930    2.6770 N   0  0  0  0  0  0  0  0  0  0  0  0
    3.2630  -11.0870    2.5680 H   0  0  0  0  0  0  0  0  0  0  0  0
    3.4790   -9.2430    1.3000 S   0  0  0  0  0  0  0  0  0  0  0  0
    4.1400  -10.1480    0.3880 O   0  0  0  0  0  0  0  0  0  0  0  0
    2.3130   -8.5050    0.8740 O   0  0  0  0  0  0  0  0  0  0  0  0
    4.6620   -8.1420    1.8440 N   0  0  0  0  0  0  0  0  0  0  0  0
    5.4670   -8.1900    1.2140 H   0  0  0  0  0  0  0  0  0  0  0  0
    4.1100   -6.8460    1.9650 N   0  0  0  0  0  0  0  0  0  0  0  0
    4.7930   -5.8460    1.0990 C   0  0  0  0  0  2  0  0  0  0  0  0
    5.7400   -5.5160    2.2650 C   0  0  0  0  0  2  0  0  0  0  0  0
    4.6610   -6.1500    3.1560 C   0  0  0  0  0  2  0  0  0  0  0  0
  1 18  2  0  0  0  0
  2 13  1  0  0  0  0
  2  1  1  0  0  0  0
  3  4  2  0  0  0  0
  3  2  1  0  0  0  0
  5  3  2  0  0  0  0
  6  3  1  0  0  0  0
  6 11  1  0  0  0  0
  7  6  2  0  0  0  0
  8  7  1  0  0  0  0
  8  9  2  0  0  0  0
  9 10  1  0  0  0  0
 10 11  2  0  0  0  0
 11 12  1  0  0  0  0
 12  1  1  0  0  0  0
 12 14  1  0  0  0  0
 15 25  1  0  0  0  0
 16 15  1  0  0  0  0
 17 16  2  0  0  0  0
 18 19  1  0  0  0  0
 18 16  1  0  0  0  0
 19 26  1  6  0  0  0
 19 20  1  0  0  0  0
 20 25  2  0  0  0  0
 20 21  1  0  0  0  0
 21 22  2  0  0  0  0
 23 22  1  0  0  0  0
 24 23  2  0  0  0  0
 25 24  1  0  0  0  0
 27 26  1  0  0  0  0
 28 15  1  0  0  0  0
 29 28  1  0  0  0  0
 30 31  1  0  0  0  0
 31 29  1  0  0  0  0
 32 31  1  0  0  0  0
 33  8  1  0  0  0  0
 34 33  1  0  0  0  0
 35 38  1  0  0  0  0
 35 33  1  0  0  0  0
 36 35  2  0  0  0  0
 37 35  2  0  0  0  0
 38 40  1  0  0  0  0
 39 38  1  0  0  0  0
 40 43  1  0  0  0  0
 41 40  1  0  0  0  0
 41 42  1  0  0  0  0
 42 43  1  0  0  0  0
M  END
>  <minimizedAffinity>
-5.31792355

$$$$

 OpenBabel09122222213D

 43 47  0  0  1  0  0  0  0  0999 V2000
    3.2570   -5.2670    5.3810 C   0  0  1  0  0  3  0  0  0  0  0  0
    3.6110   -5.8940    6.4780 N   0  0  0  0  0  0  0  0  0  0  0  0
    3.2780   -5.4120    7.9700 S   0  0  0  0  0  0  0  0  0  0  0  0
    2.0130   -5.9650    8.4110 O   0  0  0  0  0  0  0  0  0  0  0  0
    4.4640   -5.5850    8.7860 O   0  0  0  0  0  0  0  0  0  0  0  0
    3.0270   -3.6750    7.8310 C   0  0  0  0  0  0  0  0  0  0  0  0
    3.3050   -2.8340    8.9090 C   0  0  0  0  0  3  0  0  0  0  0  0
    3.1770   -1.4570    8.7470 C   0  0  0  0  0  0  0  0  0  0  0  0
    2.6600   -0.9580    7.5500 C   0  0  0  0  0  3  0  0  0  0  0  0
    2.3900   -1.8170    6.4760 C   0  0  0  0  0  3  0  0  0  0  0  0
    2.6200   -3.1860    6.5950 C   0  0  0  0  0  0  0  0  0  0  0  0
    2.5910   -4.0210    5.4790 N   0  0  0  0  0  0  0  0  0  0  0  0
    4.1260   -6.7650    6.3900 H   0  0  0  0  0  0  0  0  0  0  0  0
    2.2780   -3.6290    4.5900 H   0  0  0  0  0  0  0  0  0  0  0  0
    4.6360   -7.7790    2.9170 N   0  0  0  0  0  0  0  0  0  0  0  0
    3.8590   -7.2870    3.9410 C   0  0  0  0  0  0  0  0  0  0  0  0
    3.4080   -7.9830    4.8560 O   0  0  0  0  0  0  0  0  0  0  0  0
    3.6640   -5.8060    4.0300 C   0  0  0  0  0  0  0  0  0  0  0  0
    4.0090   -5.0470    2.9740 C   0  0  0  0  0  0  0  0  0  0  0  0
    4.5540   -5.6570    1.7490 C   0  0  0  0  0  0  0  0  0  0  0  0
    4.7510   -4.9550    0.5520 C   0  0  0  0  0  3  0  0  0  0  0  0
    5.3730   -5.5760   -0.5280 C   0  0  0  0  0  3  0  0  0  0  0  0
    5.7790   -6.8870   -0.3810 C   0  0  0  0  0  3  0  0  0  0  0  0
    5.5760   -7.6030    0.7430 N   0  0  0  0  0  0  0  0  0  0  0  0
    4.9470   -7.0000    1.7780 C   0  0  0  0  0  0  0  0  0  0  0  0
    3.9580   -3.6630    3.0470 O   0  0  0  0  0  0  0  0  0  0  0  0
    4.5450   -3.2790    2.3700 H   0  0  0  0  0  0  0  0  0  0  0  0
    5.1660   -9.1420    3.0020 C   0  0  0  0  0  2  0  0  0  0  0  0
    4.3250  -10.1500    2.1940 C   0  0  0  0  0  2  0  0  0  0  0  0
    2.7510  -10.0650    0.1840 C   0  0  0  0  0  1  0  0  0  0  0  0
    3.0050   -9.5930    1.6170 C   0  0  0  0  0  3  0  0  0  0  0  0
    1.8270  -10.0110    2.5040 C   0  0  0  0  0  1  0  0  0  0  0  0
    3.5850   -0.6560    9.8500 N   0  0  0  0  0  0  0  0  0  0  0  0
    2.8830   -0.0110   10.2130 H   0  0  0  0  0  0  0  0  0  0  0  0
    5.1210   -0.0150    9.9970 S   0  0  0  0  0  0  0  0  0  0  0  0
    5.0070    1.3260   10.5250 O   0  0  0  0  0  0  0  0  0  0  0  0
    5.9390   -0.9960   10.6710 O   0  0  0  0  0  0  0  0  0  0  0  0
    5.6550    0.1350    8.3840 N   0  0  0  0  0  0  0  0  0  0  0  0
    5.7460    1.1300    8.1630 H   0  0  0  0  0  0  0  0  0  0  0  0
    6.8430   -0.6040    8.1870 N   0  0  0  0  0  0  0  0  0  0  0  0
    6.8770   -1.2990    6.8710 C   0  0  0  0  0  2  0  0  0  0  0  0
    6.2540   -2.5390    7.5340 C   0  0  0  0  0  2  0  0  0  0  0  0
    6.7530   -1.9290    8.8530 C   0  0  0  0  0  2  0  0  0  0  0  0
  1 18  1  6  0  0  0
  1 12  1  0  0  0  0
  1  2  1  0  0  0  0
  2  3  1  0  0  0  0
  3  4  2  0  0  0  0
  3  5  2  0  0  0  0
  6  3  1  0  0  0  0
  6  7  1  0  0  0  0
  8  7  2  0  0  0  0
  8 33  1  0  0  0  0
  9  8  1  0  0  0  0
 10 11  1  0  0  0  0
 10  9  2  0  0  0  0
 11  6  2  0  0  0  0
 12 11  1  0  0  0  0
 13  2  1  0  0  0  0
 14 12  1  0  0  0  0
 15 28  1  0  0  0  0
 15 16  1  0  0  0  0
 16 18  1  0  0  0  0
 16 17  2  0  0  0  0
 19 26  1  0  0  0  0
 19 18  2  0  0  0  0
 20 25  1  0  0  0  0
 20 19  1  0  0  0  0
 21 20  2  0  0  0  0
 22 23  2  0  0  0  0
 22 21  1  0  0  0  0
 23 24  1  0  0  0  0
 24 25  2  0  0  0  0
 25 15  1  0  0  0  0
 27 26  1  0  0  0  0
 29 28  1  0  0  0  0
 30 31  1  0  0  0  0
 31 29  1  0  0  0  0
 31 32  1  0  0  0  0
 33 35  1  0  0  0  0
 33 34  1  0  0  0  0
 35 36  2  0  0  0  0
 35 37  2  0  0  0  0
 38 35  1  0  0  0  0
 39 38  1  0  0  0  0
 40 38  1  0  0  0  0
 40 43  1  0  0  0  0
 41 42  1  0  0  0  0
 41 40  1  0  0  0  0
 42 43  1  0  0  0  0
M  END
>  <minimizedAffinity>
-5.19927263

$$$$

 OpenBabel09122222213D

 43 47  0  0  1  0  0  0  0  0999 V2000
    2.1100   -5.0590    5.1040 C   0  0  0  0  0  0  0  0  0  0  0  0
    1.5030   -3.8950    5.1100 N   0  0  0  0  0  0  0  0  0  0  0  0
    2.2330   -2.4680    5.1310 S   0  0  0  0  0  0  0  0  0  0  0  0
    2.4800   -2.0050    3.7800 O   0  0  0  0  0  0  0  0  0  0  0  0
    1.5420   -1.6100    6.0730 O   0  0  0  0  0  0  0  0  0  0  0  0
    3.8170   -2.7900    5.8300 C   0  0  0  0  0  0  0  0  0  0  0  0
    4.4870   -1.7960    6.5450 C   0  0  0  0  0  3  0  0  0  0  0  0
    5.6990   -2.1010    7.1580 C   0  0  0  0  0  0  0  0  0  0  0  0
    6.2740   -3.3550    6.9430 C   0  0  0  0  0  3  0  0  0  0  0  0
    5.5860   -4.3420    6.2250 C   0  0  0  0  0  3  0  0  0  0  0  0
    4.3210   -4.0790    5.7020 C   0  0  0  0  0  0  0  0  0  0  0  0
    3.5220   -5.1040    5.2000 N   0  0  0  0  0  0  0  0  0  0  0  0
    0.4880   -3.8810    5.0840 H   0  0  0  0  0  0  0  0  0  0  0  0
    3.9290   -6.0360    5.1120 H   0  0  0  0  0  0  0  0  0  0  0  0
    1.4510   -8.7520    4.6490 N   0  0  0  0  0  0  0  0  0  0  0  0
    2.0890   -7.6110    5.0800 C   0  0  0  0  0  0  0  0  0  0  0  0
    3.2980   -7.5520    5.3240 O   0  0  0  0  0  0  0  0  0  0  0  0
    1.3060   -6.3370    5.1200 C   0  0  0  0  0  0  0  0  0  0  0  0
   -0.0340   -6.4020    5.0100 C   0  0  2  0  0  3  0  0  0  0  0  0
   -0.7210   -7.6970    4.8660 C   0  0  0  0  0  0  0  0  0  0  0  0
   -2.1120   -7.8520    4.9400 C   0  0  0  0  0  3  0  0  0  0  0  0
   -2.6910   -9.0930    4.6840 C   0  0  0  0  0  3  0  0  0  0  0  0
   -1.8590  -10.1460    4.3630 C   0  0  0  0  0  3  0  0  0  0  0  0
   -0.5160  -10.0420    4.3150 N   0  0  0  0  0  0  0  0  0  0  0  0
    0.0400   -8.8390    4.5920 C   0  0  0  0  0  0  0  0  0  0  0  0
   -0.7960   -5.2460    4.9250 O   0  0  0  0  0  0  0  0  0  0  0  0
   -1.6550   -5.4510    4.5120 H   0  0  0  0  0  0  0  0  0  0  0  0
    2.2440   -9.9100    4.2290 C   0  0  0  0  0  2  0  0  0  0  0  0
    2.4530   -9.9550    2.7030 C   0  0  0  0  0  2  0  0  0  0  0  0
    4.1540   -9.3430    0.8980 C   0  0  0  0  0  1  0  0  0  0  0  0
    3.9250  -10.0400    2.2410 C   0  0  0  0  0  3  0  0  0  0  0  0
    4.8440   -9.4190    3.2980 C   0  0  0  0  0  1  0  0  0  0  0  0
    6.2690   -1.0750    7.9630 N   0  0  0  0  0  0  0  0  0  0  0  0
    7.2510   -0.8660    7.7850 H   0  0  0  0  0  0  0  0  0  0  0  0
    5.8950   -0.8660    9.5780 S   0  0  0  0  0  0  0  0  0  0  0  0
    6.4360   -1.9820   10.3200 O   0  0  0  0  0  0  0  0  0  0  0  0
    6.2510    0.4870    9.9360 O   0  0  0  0  0  0  0  0  0  0  0  0
    4.1970   -1.0200    9.6250 N   0  0  0  0  0  0  0  0  0  0  0  0
    3.8500   -1.0930    8.6650 H   0  0  0  0  0  0  0  0  0  0  0  0
    3.8240   -2.1050   10.4510 N   0  0  0  0  0  0  0  0  0  0  0  0
    3.6910   -3.3820    9.6980 C   0  0  0  0  0  2  0  0  0  0  0  0
    2.2000   -3.0760    9.4830 C   0  0  0  0  0  2  0  0  0  0  0  0
    2.3540   -2.1160   10.6720 C   0  0  0  0  0  2  0  0  0  0  0  0
  1  2  1  0  0  0  0
  1 18  2  0  0  0  0
  1 12  1  0  0  0  0
  2  3  1  0  0  0  0
  3  6  1  0  0  0  0
  3  5  2  0  0  0  0
  4  3  2  0  0  0  0
  6  7  1  0  0  0  0
  7  8  2  0  0  0  0
  8 33  1  0  0  0  0
  9  8  1  0  0  0  0
 10  9  2  0  0  0  0
 11  6  2  0  0  0  0
 11 10  1  0  0  0  0
 12 11  1  0  0  0  0
 13  2  1  0  0  0  0
 14 12  1  0  0  0  0
 15 16  1  0  0  0  0
 16 18  1  0  0  0  0
 16 17  2  0  0  0  0
 19 26  1  6  0  0  0
 19 18  1  0  0  0  0
 20 21  1  0  0  0  0
 20 19  1  0  0  0  0
 22 21  2  0  0  0  0
 23 22  1  0  0  0  0
 24 23  2  0  0  0  0
 24 25  1  0  0  0  0
 25 15  1  0  0  0  0
 25 20  2  0  0  0  0
 27 26  1  0  0  0  0
 28 15  1  0  0  0  0
 29 28  1  0  0  0  0
 30 31  1  0  0  0  0
 31 29  1  0  0  0  0
 31 32  1  0  0  0  0
 33 35  1  0  0  0  0
 34 33  1  0  0  0  0
 35 38  1  0  0  0  0
 35 37  2  0  0  0  0
 35 36  2  0  0  0  0
 38 40  1  0  0  0  0
 39 38  1  0  0  0  0
 40 43  1  0  0  0  0
 41 40  1  0  0  0  0
 42 41  1  0  0  0  0
 42 43  1  0  0  0  0
M  END
>  <minimizedAffinity>
-4.93861723

$$$$

 OpenBabel09122222213D

 43 47  0  0  1  0  0  0  0  0999 V2000
    3.8160   -6.2310    6.5150 C   0  0  1  0  0  3  0  0  0  0  0  0
    4.1500   -5.2350    5.7290 N   0  0  0  0  0  0  0  0  0  0  0  0
    5.1580   -4.0490    6.1120 S   0  0  0  0  0  0  0  0  0  0  0  0
    6.5170   -4.4040    5.7560 O   0  0  0  0  0  0  0  0  0  0  0  0
    4.5950   -2.7960    5.6480 O   0  0  0  0  0  0  0  0  0  0  0  0
    5.1190   -3.9830    7.8710 C   0  0  0  0  0  0  0  0  0  0  0  0
    5.3570   -2.7800    8.5370 C   0  0  0  0  0  3  0  0  0  0  0  0
    5.2380   -2.7360    9.9230 C   0  0  0  0  0  0  0  0  0  0  0  0
    5.0030   -3.9210   10.6240 C   0  0  0  0  0  3  0  0  0  0  0  0
    4.7630   -5.1200    9.9390 C   0  0  0  0  0  3  0  0  0  0  0  0
    4.7710   -5.1480    8.5460 C   0  0  0  0  0  0  0  0  0  0  0  0
    4.3030   -6.2570    7.8450 N   0  0  0  0  0  0  0  0  0  0  0  0
    3.7590   -5.2080    4.7920 H   0  0  0  0  0  0  0  0  0  0  0  0
    4.0660   -7.0980    8.3730 H   0  0  0  0  0  0  0  0  0  0  0  0
    2.4480   -8.9830    4.3160 N   0  0  0  0  0  0  0  0  0  0  0  0
    3.3490   -8.3080    5.1080 C   0  0  0  0  0  0  0  0  0  0  0  0
    4.5740   -8.4260    5.0050 O   0  0  0  0  0  0  0  0  0  0  0  0
    2.8250   -7.2700    6.0480 C   0  0  0  0  0  0  0  0  0  0  0  0
    1.5020   -7.2310    6.2900 C   0  0  0  0  0  0  0  0  0  0  0  0
    0.5860   -8.1950    5.6550 C   0  0  0  0  0  0  0  0  0  0  0  0
   -0.7630   -8.3340    6.0070 C   0  0  0  0  0  3  0  0  0  0  0  0
   -1.5890   -9.1910    5.2840 C   0  0  0  0  0  3  0  0  0  0  0  0
   -1.0380   -9.8890    4.2280 C   0  0  0  0  0  3  0  0  0  0  0  0
    0.2620   -9.8060    3.8820 N   0  0  0  0  0  0  0  0  0  0  0  0
    1.0630   -8.9910    4.6070 C   0  0  0  0  0  0  0  0  0  0  0  0
    0.9500   -6.2180    7.0620 O   0  0  0  0  0  0  0  0  0  0  0  0
    0.0020   -6.1310    6.8550 H   0  0  0  0  0  0  0  0  0  0  0  0
    2.9220   -9.7090    3.1350 C   0  0  0  0  0  2  0  0  0  0  0  0
    2.9370   -8.8260    1.8720 C   0  0  0  0  0  2  0  0  0  0  0  0
    4.6010   -8.1870    0.0430 C   0  0  0  0  0  1  0  0  0  0  0  0
    4.2970   -8.1710    1.5420 C   0  0  0  0  0  3  0  0  0  0  0  0
    4.3200   -6.7260    2.0490 C   0  0  0  0  0  1  0  0  0  0  0  0
    5.3830   -1.4540   10.5250 N   0  0  0  0  0  0  0  0  0  0  0  0
    5.3790   -1.4400   11.5440 H   0  0  0  0  0  0  0  0  0  0  0  0
    4.6880   -0.0680    9.9010 S   0  0  0  0  0  0  0  0  0  0  0  0
    3.5000    0.2300   10.6690 O   0  0  0  0  0  0  0  0  0  0  0  0
    5.7330    0.9200    9.7640 O   0  0  0  0  0  0  0  0  0  0  0  0
    4.1640   -0.5390    8.3480 N   0  0  0  0  0  0  0  0  0  0  0  0
    4.4750   -1.4990    8.1760 H   0  0  0  0  0  0  0  0  0  0  0  0
    2.7680   -0.3610    8.2240 N   0  0  0  0  0  0  0  0  0  0  0  0
    1.9950   -1.5640    8.6380 C   0  0  0  0  0  2  0  0  0  0  0  0
    2.0280   -2.0590    7.1830 C   0  0  0  0  0  2  0  0  0  0  0  0
    2.3310   -0.5960    6.8230 C   0  0  0  0  0  2  0  0  0  0  0  0
  1 18  1  1  0  0  0
  1 12  1  0  0  0  0
  2  3  1  0  0  0  0
  2  1  1  0  0  0  0
  3  6  1  0  0  0  0
  4  3  2  0  0  0  0
  5  3  2  0  0  0  0
  6  7  2  0  0  0  0
  6 11  1  0  0  0  0
  7  8  1  0  0  0  0
  8 33  1  0  0  0  0
  8  9  2  0  0  0  0
 10  9  1  0  0  0  0
 11 10  2  0  0  0  0
 12 14  1  0  0  0  0
 12 11  1  0  0  0  0
 13  2  1  0  0  0  0
 15 25  1  0  0  0  0
 15 16  1  0  0  0  0
 16 18  1  0  0  0  0
 17 16  2  0  0  0  0
 18 19  2  0  0  0  0
 19 26  1  0  0  0  0
 20 21  1  0  0  0  0
 20 19  1  0  0  0  0
 22 21  2  0  0  0  0
 23 22  1  0  0  0  0
 24 23  2  0  0  0  0
 24 25  1  0  0  0  0
 25 20  2  0  0  0  0
 27 26  1  0  0  0  0
 28 15  1  0  0  0  0
 29 28  1  0  0  0  0
 30 31  1  0  0  0  0
 31 29  1  0  0  0  0
 31 32  1  0  0  0  0
 33 34  1  0  0  0  0
 35 33  1  0  0  0  0
 35 36  2  0  0  0  0
 37 35  2  0  0  0  0
 38 35  1  0  0  0  0
 39 38  1  0  0  0  0
 40 38  1  0  0  0  0
 40 41  1  0  0  0  0
 42 41  1  0  0  0  0
 43 42  1  0  0  0  0
 43 40  1  0  0  0  0
M  END
>  <minimizedAffinity>
-4.80220747

$$$$
