REMARK  Name = 
REMARK  3 active torsions:
REMARK  status: ('A' for Active; 'I' for Inactive)
REMARK    1  A    between atoms: C_2  and  C_4
REMARK    2  A    between atoms: C_8  and  O_9
REMARK    3  A    between atoms: C_10  and  C_11
REMARK                            x       y       z     vdW  Elec       q    Type
REMARK                         _______ _______ _______ _____ _____    ______ ____
ROOT
ATOM      1  C   UNL     1       2.992   0.913  -0.955  0.00  0.00    +0.155 A 
ATOM      2  C   UNL     1       2.450   2.133  -1.068  0.00  0.00    +0.102 A 
ATOM      3  C   UNL     1       2.997   3.058  -2.064  0.00  0.00    +0.227 A 
ATOM      4  O   UNL     1       2.561   4.201  -2.208  0.00  0.00    -0.284 OA
ATOM      5  C   UNL     1       4.110   2.576  -2.922  0.00  0.00    +0.209 A 
ATOM      6  C   UNL     1       4.571   1.335  -2.714  0.00  0.00    +0.196 A 
ATOM      7  O   UNL     1       4.058   0.475  -1.739  0.00  0.00    -0.449 OA
ENDROOT
BRANCH   1   9
ATOM      8  O   UNL     1       1.158   0.107   0.339  0.00  0.00    -0.542 OA
ATOM      9  C   UNL     1       2.396  -0.052   0.099  0.00  0.00    +0.107 C 
ATOM     10  O   UNL     1       3.201  -0.853   0.653  0.00  0.00    -0.542 OA
ENDBRANCH   1   9
BRANCH   6  11
ATOM     11  C   UNL     1       5.717   0.801  -3.580  0.00  0.00    +0.111 C 
ATOM     12  O   UNL     1       6.885   1.163  -3.238  0.00  0.00    -0.541 OA
ATOM     13  O   UNL     1       5.373   0.062  -4.552  0.00  0.00    -0.541 OA
ENDBRANCH   6  11
BRANCH   5  14
ATOM     14  O   UNL     1       4.585   3.454  -3.879  0.00  0.00    -0.501 OA
ATOM     15  H   UNL     1       4.053   4.260  -3.738  0.00  0.00    +0.292 HD
ENDBRANCH   5  14
TORSDOF 3
