
 OpenBabel09122222393D

 15 15  0  0  0  0  0  0  0  0999 V2000
    9.3450   -0.9410    1.7770 C   0  0  0  0  0  0  0  0  0  0  0  0
    8.6670   -1.8510    2.4890 C   0  0  0  0  0  3  0  0  0  0  0  0
    8.5890   -3.2250    1.9840 C   0  0  0  0  0  0  0  0  0  0  0  0
    7.9670   -4.1080    2.5760 O   0  0  0  0  0  0  0  0  0  0  0  0
    9.2990   -3.5410    0.7180 C   0  0  0  0  0  0  0  0  0  0  0  0
    9.9420   -2.5440    0.0930 C   0  0  0  0  0  0  0  0  0  0  0  0
    9.9820   -1.2320    0.5720 O   0  0  0  0  0  0  0  0  0  0  0  0
    9.7190    0.5960    3.5620 O   0  0  0  0  0  1  0  0  0  0  0  0
    9.4210    0.5040    2.3300 C   0  0  0  0  0  0  0  0  0  0  0  0
    9.1240    1.4340    1.5280 O   0  0  0  0  0  0  0  0  0  0  0  0
   10.6870   -2.8310   -1.2150 C   0  0  0  0  0  0  0  0  0  0  0  0
   10.9440   -1.8200   -1.9390 O   0  0  0  0  0  0  0  0  0  0  0  0
   10.9580   -4.0500   -1.4380 O   0  0  0  0  0  1  0  0  0  0  0  0
    9.2410   -4.8510    0.2810 O   0  0  0  0  0  0  0  0  0  0  0  0
    8.6800   -5.2930    0.9460 H   0  0  0  0  0  0  0  0  0  0  0  0
  1  9  1  0  0  0  0
  1  2  2  0  0  0  0
  3  2  1  0  0  0  0
  3  4  2  0  0  0  0
  5  3  1  0  0  0  0
  6  7  1  0  0  0  0
  6  5  2  0  0  0  0
  7  1  1  0  0  0  0
  9  8  1  0  0  0  0
 10  9  2  0  0  0  0
 11  6  1  0  0  0  0
 12 11  2  0  0  0  0
 13 11  1  0  0  0  0
 14  5  1  0  0  0  0
 14 15  1  0  0  0  0
M  END
>  <minimizedAffinity>
-5.62218046

$$$$
