
 OpenBabel09122222393D

 15 15  0  0  0  0  0  0  0  0999 V2000
    8.4190   -2.7020    2.4720 C   0  0  0  0  0  0  0  0  0  0  0  0
    8.6800   -1.3880    2.5110 C   0  0  0  0  0  3  0  0  0  0  0  0
    9.3870   -0.7760    1.3830 C   0  0  0  0  0  0  0  0  0  0  0  0
    9.6780    0.4210    1.3620 O   0  0  0  0  0  0  0  0  0  0  0  0
    9.7490   -1.6460    0.2350 C   0  0  0  0  0  0  0  0  0  0  0  0
    9.4370   -2.9470    0.3110 C   0  0  0  0  0  0  0  0  0  0  0  0
    8.7890   -3.5230    1.4070 O   0  0  0  0  0  0  0  0  0  0  0  0
    8.2300   -3.1830    4.8000 O   0  0  0  0  0  1  0  0  0  0  0  0
    7.6660   -3.3290    3.6700 C   0  0  0  0  0  0  0  0  0  0  0  0
    6.6090   -3.9680    3.4030 O   0  0  0  0  0  0  0  0  0  0  0  0
    9.7920   -3.8770   -0.8540 C   0  0  0  0  0  0  0  0  0  0  0  0
    8.8840   -4.6910   -1.2100 O   0  0  0  0  0  1  0  0  0  0  0  0
   10.9590   -3.7400   -1.3320 O   0  0  0  0  0  0  0  0  0  0  0  0
   10.3830   -1.0390   -0.8330 O   0  0  0  0  0  0  0  0  0  0  0  0
   10.4760   -0.1100   -0.5490 H   0  0  0  0  0  0  0  0  0  0  0  0
  1  2  2  0  0  0  0
  1  9  1  0  0  0  0
  3  2  1  0  0  0  0
  4  3  2  0  0  0  0
  5  6  2  0  0  0  0
  5  3  1  0  0  0  0
  6  7  1  0  0  0  0
  7  1  1  0  0  0  0
  9  8  1  0  0  0  0
 10  9  2  0  0  0  0
 11  6  1  0  0  0  0
 12 11  1  0  0  0  0
 13 11  2  0  0  0  0
 14 15  1  0  0  0  0
 14  5  1  0  0  0  0
M  END
>  <minimizedAffinity>
-5.04266882

$$$$
