
 OpenBabel09122221063D

 15 15  0  0  0  0  0  0  0  0999 V2000
    9.3450   -0.9410    1.7770 C   0  0  0  0  0  0  0  0  0  0  0  0
    8.6670   -1.8510    2.4890 C   0  0  0  0  0  3  0  0  0  0  0  0
    8.5890   -3.2250    1.9840 C   0  0  0  0  0  0  0  0  0  0  0  0
    7.9670   -4.1080    2.5760 O   0  0  0  0  0  0  0  0  0  0  0  0
    9.2990   -3.5410    0.7180 C   0  0  0  0  0  0  0  0  0  0  0  0
    9.9420   -2.5440    0.0930 C   0  0  0  0  0  0  0  0  0  0  0  0
    9.9820   -1.2320    0.5720 O   0  0  0  0  0  0  0  0  0  0  0  0
    9.7190    0.5960    3.5620 O   0  0  0  0  0  1  0  0  0  0  0  0
    9.4210    0.5040    2.3300 C   0  0  0  0  0  0  0  0  0  0  0  0
    9.1240    1.4340    1.5280 O   0  0  0  0  0  0  0  0  0  0  0  0
   10.6870   -2.8310   -1.2150 C   0  0  0  0  0  0  0  0  0  0  0  0
   10.9440   -1.8200   -1.9390 O   0  0  0  0  0  0  0  0  0  0  0  0
   10.9580   -4.0500   -1.4380 O   0  0  0  0  0  1  0  0  0  0  0  0
    9.2410   -4.8510    0.2810 O   0  0  0  0  0  0  0  0  0  0  0  0
    8.6800   -5.2930    0.9460 H   0  0  0  0  0  0  0  0  0  0  0  0
  1  9  1  0  0  0  0
  1  2  2  0  0  0  0
  3  2  1  0  0  0  0
  3  4  2  0  0  0  0
  5  3  1  0  0  0  0
  6  7  1  0  0  0  0
  6  5  2  0  0  0  0
  7  1  1  0  0  0  0
  9  8  1  0  0  0  0
 10  9  2  0  0  0  0
 11  6  1  0  0  0  0
 12 11  2  0  0  0  0
 13 11  1  0  0  0  0
 14  5  1  0  0  0  0
 14 15  1  0  0  0  0
M  END
>  <minimizedAffinity>
-5.62218046

$$$$

 OpenBabel09122221063D

 15 15  0  0  0  0  0  0  0  0999 V2000
    9.5980   -1.9940    2.7860 C   0  0  0  0  0  0  0  0  0  0  0  0
    9.3010   -0.6890    2.8340 C   0  0  0  0  0  3  0  0  0  0  0  0
    9.3490    0.0910    1.5940 C   0  0  0  0  0  0  0  0  0  0  0  0
    9.1090    1.2990    1.5690 O   0  0  0  0  0  0  0  0  0  0  0  0
    9.6960   -0.6220    0.3380 C   0  0  0  0  0  0  0  0  0  0  0  0
    9.9760   -1.9300    0.4150 C   0  0  0  0  0  0  0  0  0  0  0  0
    9.9550   -2.6540    1.6110 O   0  0  0  0  0  0  0  0  0  0  0  0
   10.6040   -2.7990    4.7930 O   0  0  0  0  0  1  0  0  0  0  0  0
    9.5350   -2.8030    4.1050 C   0  0  0  0  0  0  0  0  0  0  0  0
    8.4610   -3.4270    4.3360 O   0  0  0  0  0  0  0  0  0  0  0  0
   10.3360   -2.7010   -0.8590 C   0  0  0  0  0  0  0  0  0  0  0  0
    9.9820   -3.9200   -0.8880 O   0  0  0  0  0  1  0  0  0  0  0  0
   10.9590   -2.0400   -1.7440 O   0  0  0  0  0  0  0  0  0  0  0  0
    9.6990    0.1280   -0.8240 O   0  0  0  0  0  0  0  0  0  0  0  0
    9.4820    1.0290   -0.5190 H   0  0  0  0  0  0  0  0  0  0  0  0
  1  2  2  0  0  0  0
  1  9  1  0  0  0  0
  3  2  1  0  0  0  0
  4  3  2  0  0  0  0
  5  6  2  0  0  0  0
  5  3  1  0  0  0  0
  6  7  1  0  0  0  0
  7  1  1  0  0  0  0
  9 10  2  0  0  0  0
  9  8  1  0  0  0  0
 11  6  1  0  0  0  0
 12 11  1  0  0  0  0
 13 11  2  0  0  0  0
 14 15  1  0  0  0  0
 14  5  1  0  0  0  0
M  END
>  <minimizedAffinity>
-5.54214621

$$$$

 OpenBabel09122221063D

 15 15  0  0  0  0  0  0  0  0999 V2000
   10.0410   -1.9320    0.3160 C   0  0  0  0  0  0  0  0  0  0  0  0
    9.7520   -0.6250    0.2490 C   0  0  0  0  0  3  0  0  0  0  0  0
    9.4310    0.0900    1.4880 C   0  0  0  0  0  0  0  0  0  0  0  0
    9.1360    1.2860    1.4980 O   0  0  0  0  0  0  0  0  0  0  0  0
    9.4770   -0.6730    2.7620 C   0  0  0  0  0  0  0  0  0  0  0  0
    9.7770   -1.9780    2.7020 C   0  0  0  0  0  0  0  0  0  0  0  0
   10.0520   -2.6520    1.5090 O   0  0  0  0  0  0  0  0  0  0  0  0
   10.8120   -1.9250   -1.9410 O   0  0  0  0  0  0  0  0  0  0  0  0
   10.3840   -2.6680   -1.0030 C   0  0  0  0  0  0  0  0  0  0  0  0
   10.1510   -3.9090   -1.0350 O   0  0  0  0  0  1  0  0  0  0  0  0
    9.8360   -2.7980    3.9950 C   0  0  0  0  0  0  0  0  0  0  0  0
   10.7850   -2.5120    4.7890 O   0  0  0  0  0  1  0  0  0  0  0  0
    8.9360   -3.6820    4.1270 O   0  0  0  0  0  0  0  0  0  0  0  0
    9.2060    0.0320    3.9200 O   0  0  0  0  0  0  0  0  0  0  0  0
    9.0060    0.9320    3.6020 H   0  0  0  0  0  0  0  0  0  0  0  0
  1  7  1  0  0  0  0
  2  1  2  0  0  0  0
  2  3  1  0  0  0  0
  3  4  2  0  0  0  0
  3  5  1  0  0  0  0
  5 14  1  0  0  0  0
  6  5  2  0  0  0  0
  6 11  1  0  0  0  0
  7  6  1  0  0  0  0
  8  9  2  0  0  0  0
  9  1  1  0  0  0  0
 10  9  1  0  0  0  0
 11 13  2  0  0  0  0
 11 12  1  0  0  0  0
 15 14  1  0  0  0  0
M  END
>  <minimizedAffinity>
-5.46056557

$$$$

 OpenBabel09122221063D

 15 15  0  0  0  0  0  0  0  0999 V2000
    9.4770   -2.9720    0.6050 C   0  0  0  0  0  0  0  0  0  0  0  0
    9.3190   -3.6070    1.7740 C   0  0  0  0  0  3  0  0  0  0  0  0
    9.2030   -2.8110    2.9980 C   0  0  0  0  0  0  0  0  0  0  0  0
    9.0760   -3.3290    4.1090 O   0  0  0  0  0  0  0  0  0  0  0  0
    9.2360   -1.3320    2.8710 C   0  0  0  0  0  0  0  0  0  0  0  0
    9.4020   -0.8100    1.6470 C   0  0  0  0  0  0  0  0  0  0  0  0
    9.5410   -1.5840    0.4920 O   0  0  0  0  0  0  0  0  0  0  0  0
   10.6880   -3.7140   -1.3110 O   0  0  0  0  0  0  0  0  0  0  0  0
    9.5920   -3.8310   -0.6790 C   0  0  0  0  0  0  0  0  0  0  0  0
    8.5750   -4.5090   -0.9990 O   0  0  0  0  0  1  0  0  0  0  0  0
    9.4390    0.7120    1.4740 C   0  0  0  0  0  0  0  0  0  0  0  0
    8.7500    1.3810    2.3060 O   0  0  0  0  0  1  0  0  0  0  0  0
   10.1470    1.1380    0.5120 O   0  0  0  0  0  0  0  0  0  0  0  0
    9.0880   -0.6020    4.0360 O   0  0  0  0  0  0  0  0  0  0  0  0
    9.0170   -1.2850    4.7300 H   0  0  0  0  0  0  0  0  0  0  0  0
  1  2  2  0  0  0  0
  2  3  1  0  0  0  0
  3  4  2  0  0  0  0
  5  3  1  0  0  0  0
  5 14  1  0  0  0  0
  6  5  2  0  0  0  0
  7  1  1  0  0  0  0
  7  6  1  0  0  0  0
  8  9  2  0  0  0  0
  9  1  1  0  0  0  0
 10  9  1  0  0  0  0
 11  6  1  0  0  0  0
 11 12  1  0  0  0  0
 13 11  2  0  0  0  0
 14 15  1  0  0  0  0
M  END
>  <minimizedAffinity>
-5.42923403

$$$$

 OpenBabel09122221063D

 15 15  0  0  0  0  0  0  0  0999 V2000
   10.4760   -0.9490   -1.1430 C   0  0  0  0  0  0  0  0  0  0  0  0
   10.6530   -2.2740   -1.2350 C   0  0  0  0  0  3  0  0  0  0  0  0
   10.3650   -3.1070   -0.0640 C   0  0  0  0  0  0  0  0  0  0  0  0
   10.5250   -4.3280   -0.0720 O   0  0  0  0  0  0  0  0  0  0  0  0
    9.8590   -2.4330    1.1600 C   0  0  0  0  0  0  0  0  0  0  0  0
    9.7250   -1.1000    1.1330 C   0  0  0  0  0  0  0  0  0  0  0  0
   10.0320   -0.3170    0.0170 O   0  0  0  0  0  0  0  0  0  0  0  0
   10.9570    1.1510   -2.1650 O   0  0  0  0  0  1  0  0  0  0  0  0
   10.7790   -0.0870   -2.3920 C   0  0  0  0  0  0  0  0  0  0  0  0
   10.7620   -0.6810   -3.5080 O   0  0  0  0  0  0  0  0  0  0  0  0
    9.2030   -0.3700    2.3750 C   0  0  0  0  0  0  0  0  0  0  0  0
    8.7620    0.8050    2.1820 O   0  0  0  0  0  0  0  0  0  0  0  0
    9.2790   -1.0150    3.4650 O   0  0  0  0  0  1  0  0  0  0  0  0
    9.5600   -3.2440    2.2390 O   0  0  0  0  0  0  0  0  0  0  0  0
    9.7960   -4.1390    1.9290 H   0  0  0  0  0  0  0  0  0  0  0  0
  1  7  1  0  0  0  0
  2  1  2  0  0  0  0
  2  3  1  0  0  0  0
  3  5  1  0  0  0  0
  4  3  2  0  0  0  0
  5 14  1  0  0  0  0
  6  5  2  0  0  0  0
  6 11  1  0  0  0  0
  7  6  1  0  0  0  0
  9  8  1  0  0  0  0
  9  1  1  0  0  0  0
 10  9  2  0  0  0  0
 11 13  1  0  0  0  0
 12 11  2  0  0  0  0
 15 14  1  0  0  0  0
M  END
>  <minimizedAffinity>
-5.34812546

$$$$

 OpenBabel09122221063D

 15 15  0  0  0  0  0  0  0  0999 V2000
    9.9370   -2.3690   -0.0640 C   0  0  0  0  0  0  0  0  0  0  0  0
    9.3660   -2.1240    1.1230 C   0  0  0  0  0  3  0  0  0  0  0  0
    9.2280   -0.7340    1.5660 C   0  0  0  0  0  0  0  0  0  0  0  0
    8.7330   -0.4370    2.6540 O   0  0  0  0  0  0  0  0  0  0  0  0
    9.7040    0.3360    0.6510 C   0  0  0  0  0  0  0  0  0  0  0  0
   10.2600   -0.0320   -0.5110 C   0  0  0  0  0  0  0  0  0  0  0  0
   10.4120   -1.3640   -0.9050 O   0  0  0  0  0  0  0  0  0  0  0  0
   10.9590   -4.0630   -1.3950 O   0  0  0  0  0  0  0  0  0  0  0  0
   10.0670   -3.8440   -0.5160 C   0  0  0  0  0  0  0  0  0  0  0  0
    9.2460   -4.6640   -0.0180 O   0  0  0  0  0  1  0  0  0  0  0  0
   10.7610    1.0430   -1.4820 C   0  0  0  0  0  0  0  0  0  0  0  0
   10.9540    0.6620   -2.6780 O   0  0  0  0  0  0  0  0  0  0  0  0
   10.9380    2.1950   -0.9820 O   0  0  0  0  0  1  0  0  0  0  0  0
    9.5300    1.6410    1.0750 O   0  0  0  0  0  0  0  0  0  0  0  0
    9.1270    1.5460    1.9590 H   0  0  0  0  0  0  0  0  0  0  0  0
  1  2  2  0  0  0  0
  2  3  1  0  0  0  0
  3  4  2  0  0  0  0
  5 14  1  0  0  0  0
  5  3  1  0  0  0  0
  6  5  2  0  0  0  0
  7  6  1  0  0  0  0
  7  1  1  0  0  0  0
  8  9  2  0  0  0  0
  9  1  1  0  0  0  0
  9 10  1  0  0  0  0
 11 13  1  0  0  0  0
 11  6  1  0  0  0  0
 12 11  2  0  0  0  0
 14 15  1  0  0  0  0
M  END
>  <minimizedAffinity>
-5.23662424

$$$$

 OpenBabel09122221063D

 15 15  0  0  0  0  0  0  0  0999 V2000
    9.8130   -2.3990    0.1670 C   0  0  0  0  0  0  0  0  0  0  0  0
    9.3650   -1.9350    1.3410 C   0  0  0  0  0  3  0  0  0  0  0  0
    9.3440   -0.4880    1.5660 C   0  0  0  0  0  0  0  0  0  0  0  0
    8.9630    0.0060    2.6280 O   0  0  0  0  0  0  0  0  0  0  0  0
    9.7940    0.3940    0.4580 C   0  0  0  0  0  0  0  0  0  0  0  0
   10.2250   -0.1870   -0.6710 C   0  0  0  0  0  0  0  0  0  0  0  0
   10.2670   -1.5710   -0.8580 O   0  0  0  0  0  0  0  0  0  0  0  0
    8.6880   -4.4980    0.0410 O   0  0  0  0  0  1  0  0  0  0  0  0
    9.8220   -3.9320   -0.0540 C   0  0  0  0  0  0  0  0  0  0  0  0
   10.9490   -4.4700   -0.2450 O   0  0  0  0  0  0  0  0  0  0  0  0
   10.6960    0.6890   -1.8370 C   0  0  0  0  0  0  0  0  0  0  0  0
   10.9580    1.8980   -1.5510 O   0  0  0  0  0  1  0  0  0  0  0  0
   10.7640    0.1120   -2.9640 O   0  0  0  0  0  0  0  0  0  0  0  0
    9.7310    1.7570    0.6810 O   0  0  0  0  0  0  0  0  0  0  0  0
    9.4040    1.8270    1.5980 H   0  0  0  0  0  0  0  0  0  0  0  0
  1  2  2  0  0  0  0
  2  3  1  0  0  0  0
  3  4  2  0  0  0  0
  5 14  1  0  0  0  0
  5  3  1  0  0  0  0
  6  5  2  0  0  0  0
  7  6  1  0  0  0  0
  7  1  1  0  0  0  0
  9  8  1  0  0  0  0
  9  1  1  0  0  0  0
 10  9  2  0  0  0  0
 11 12  1  0  0  0  0
 11  6  1  0  0  0  0
 13 11  2  0  0  0  0
 14 15  1  0  0  0  0
M  END
>  <minimizedAffinity>
-5.22458887

$$$$

 OpenBabel09122221063D

 15 15  0  0  0  0  0  0  0  0999 V2000
   10.1850   -0.0780   -0.2560 C   0  0  0  0  0  0  0  0  0  0  0  0
    9.7790    0.2000    0.9910 C   0  0  0  0  0  3  0  0  0  0  0  0
    9.3640   -0.9040    1.8600 C   0  0  0  0  0  0  0  0  0  0  0  0
    8.9610   -0.7200    3.0090 O   0  0  0  0  0  0  0  0  0  0  0  0
    9.4480   -2.2850    1.3170 C   0  0  0  0  0  0  0  0  0  0  0  0
    9.8670   -2.4380    0.0530 C   0  0  0  0  0  0  0  0  0  0  0  0
   10.2310   -1.3710   -0.7740 O   0  0  0  0  0  0  0  0  0  0  0  0
   10.6110    2.2430   -0.5970 O   0  0  0  0  0  1  0  0  0  0  0  0
   10.6250    1.1020   -1.1560 C   0  0  0  0  0  0  0  0  0  0  0  0
   10.8940    0.8260   -2.3600 O   0  0  0  0  0  0  0  0  0  0  0  0
    9.9690   -3.8460   -0.5430 C   0  0  0  0  0  0  0  0  0  0  0  0
    9.0590   -4.6610   -0.1960 O   0  0  0  0  0  1  0  0  0  0  0  0
   10.9580   -4.0480   -1.3110 O   0  0  0  0  0  0  0  0  0  0  0  0
    9.0860   -3.3130    2.1680 O   0  0  0  0  0  0  0  0  0  0  0  0
    8.8130   -2.8520    2.9840 H   0  0  0  0  0  0  0  0  0  0  0  0
  1  2  2  0  0  0  0
  2  3  1  0  0  0  0
  3  4  2  0  0  0  0
  5  3  1  0  0  0  0
  5 14  1  0  0  0  0
  6  5  2  0  0  0  0
  7  1  1  0  0  0  0
  7  6  1  0  0  0  0
  9  8  1  0  0  0  0
  9  1  1  0  0  0  0
 10  9  2  0  0  0  0
 11 12  1  0  0  0  0
 11  6  1  0  0  0  0
 13 11  2  0  0  0  0
 14 15  1  0  0  0  0
M  END
>  <minimizedAffinity>
-5.16892385

$$$$

 OpenBabel09122221063D

 15 15  0  0  0  0  0  0  0  0999 V2000
    8.9920   -2.2590    1.9340 C   0  0  0  0  0  0  0  0  0  0  0  0
    9.4540   -2.6500    0.7390 C   0  0  0  0  0  3  0  0  0  0  0  0
    9.9290   -1.6310   -0.2010 C   0  0  0  0  0  0  0  0  0  0  0  0
   10.3470   -1.9180   -1.3240 O   0  0  0  0  0  0  0  0  0  0  0  0
    9.9010   -0.2130    0.2390 C   0  0  0  0  0  0  0  0  0  0  0  0
    9.4140    0.0570    1.4580 C   0  0  0  0  0  0  0  0  0  0  0  0
    8.9370   -0.9240    2.3320 O   0  0  0  0  0  0  0  0  0  0  0  0
    7.5560   -4.0820    2.4820 O   0  0  0  0  0  0  0  0  0  0  0  0
    8.5000   -3.3500    2.9160 C   0  0  0  0  0  0  0  0  0  0  0  0
    9.0380   -3.3680    4.0590 O   0  0  0  0  0  1  0  0  0  0  0  0
    9.3710    1.5080    1.9500 C   0  0  0  0  0  0  0  0  0  0  0  0
    9.5720    1.6780    3.1920 O   0  0  0  0  0  1  0  0  0  0  0  0
    9.1290    2.3810    1.0620 O   0  0  0  0  0  0  0  0  0  0  0  0
   10.3890    0.7260   -0.6510 O   0  0  0  0  0  0  0  0  0  0  0  0
   10.6320    0.1980   -1.4350 H   0  0  0  0  0  0  0  0  0  0  0  0
  1  7  1  0  0  0  0
  1  9  1  0  0  0  0
  2  1  2  0  0  0  0
  3  5  1  0  0  0  0
  3  2  1  0  0  0  0
  4  3  2  0  0  0  0
  5  6  2  0  0  0  0
  6 11  1  0  0  0  0
  6  7  1  0  0  0  0
  8  9  2  0  0  0  0
  9 10  1  0  0  0  0
 11 12  1  0  0  0  0
 13 11  2  0  0  0  0
 14  5  1  0  0  0  0
 15 14  1  0  0  0  0
M  END
>  <minimizedAffinity>
-5.14730453

$$$$

 OpenBabel09122221063D

 15 15  0  0  0  0  0  0  0  0999 V2000
    8.4190   -2.7020    2.4720 C   0  0  0  0  0  0  0  0  0  0  0  0
    8.6800   -1.3880    2.5110 C   0  0  0  0  0  3  0  0  0  0  0  0
    9.3870   -0.7760    1.3830 C   0  0  0  0  0  0  0  0  0  0  0  0
    9.6780    0.4210    1.3620 O   0  0  0  0  0  0  0  0  0  0  0  0
    9.7490   -1.6460    0.2350 C   0  0  0  0  0  0  0  0  0  0  0  0
    9.4370   -2.9470    0.3110 C   0  0  0  0  0  0  0  0  0  0  0  0
    8.7890   -3.5230    1.4070 O   0  0  0  0  0  0  0  0  0  0  0  0
    8.2300   -3.1830    4.8000 O   0  0  0  0  0  1  0  0  0  0  0  0
    7.6660   -3.3290    3.6700 C   0  0  0  0  0  0  0  0  0  0  0  0
    6.6090   -3.9680    3.4030 O   0  0  0  0  0  0  0  0  0  0  0  0
    9.7920   -3.8770   -0.8540 C   0  0  0  0  0  0  0  0  0  0  0  0
    8.8840   -4.6910   -1.2100 O   0  0  0  0  0  1  0  0  0  0  0  0
   10.9590   -3.7400   -1.3320 O   0  0  0  0  0  0  0  0  0  0  0  0
   10.3830   -1.0390   -0.8330 O   0  0  0  0  0  0  0  0  0  0  0  0
   10.4760   -0.1100   -0.5490 H   0  0  0  0  0  0  0  0  0  0  0  0
  1  2  2  0  0  0  0
  1  9  1  0  0  0  0
  3  2  1  0  0  0  0
  4  3  2  0  0  0  0
  5  6  2  0  0  0  0
  5  3  1  0  0  0  0
  6  7  1  0  0  0  0
  7  1  1  0  0  0  0
  9  8  1  0  0  0  0
 10  9  2  0  0  0  0
 11  6  1  0  0  0  0
 12 11  1  0  0  0  0
 13 11  2  0  0  0  0
 14 15  1  0  0  0  0
 14  5  1  0  0  0  0
M  END
>  <minimizedAffinity>
-5.04266882

$$$$
