
 OpenBabel09122222393D

 15 15  0  0  0  0  0  0  0  0999 V2000
   10.0410   -1.9320    0.3160 C   0  0  0  0  0  0  0  0  0  0  0  0
    9.7520   -0.6250    0.2490 C   0  0  0  0  0  3  0  0  0  0  0  0
    9.4310    0.0900    1.4880 C   0  0  0  0  0  0  0  0  0  0  0  0
    9.1360    1.2860    1.4980 O   0  0  0  0  0  0  0  0  0  0  0  0
    9.4770   -0.6730    2.7620 C   0  0  0  0  0  0  0  0  0  0  0  0
    9.7770   -1.9780    2.7020 C   0  0  0  0  0  0  0  0  0  0  0  0
   10.0520   -2.6520    1.5090 O   0  0  0  0  0  0  0  0  0  0  0  0
   10.8120   -1.9250   -1.9410 O   0  0  0  0  0  0  0  0  0  0  0  0
   10.3840   -2.6680   -1.0030 C   0  0  0  0  0  0  0  0  0  0  0  0
   10.1510   -3.9090   -1.0350 O   0  0  0  0  0  1  0  0  0  0  0  0
    9.8360   -2.7980    3.9950 C   0  0  0  0  0  0  0  0  0  0  0  0
   10.7850   -2.5120    4.7890 O   0  0  0  0  0  1  0  0  0  0  0  0
    8.9360   -3.6820    4.1270 O   0  0  0  0  0  0  0  0  0  0  0  0
    9.2060    0.0320    3.9200 O   0  0  0  0  0  0  0  0  0  0  0  0
    9.0060    0.9320    3.6020 H   0  0  0  0  0  0  0  0  0  0  0  0
  1  7  1  0  0  0  0
  2  1  2  0  0  0  0
  2  3  1  0  0  0  0
  3  4  2  0  0  0  0
  3  5  1  0  0  0  0
  5 14  1  0  0  0  0
  6  5  2  0  0  0  0
  6 11  1  0  0  0  0
  7  6  1  0  0  0  0
  8  9  2  0  0  0  0
  9  1  1  0  0  0  0
 10  9  1  0  0  0  0
 11 13  2  0  0  0  0
 11 12  1  0  0  0  0
 15 14  1  0  0  0  0
M  END
>  <minimizedAffinity>
-5.46056557

$$$$
