REMARK  Name = 
REMARK  5 active torsions:
REMARK  status: ('A' for Active; 'I' for Inactive)
REMARK    1  A    between atoms: C_2  and  C_4
REMARK    2  A    between atoms: N_8  and  C_24
REMARK    3  A    between atoms: C_9  and  C_11
REMARK    4  A    between atoms: C_14  and  O_15
REMARK    5  A    between atoms: O_15  and  C_16
REMARK                            x       y       z     vdW  Elec       q    Type
REMARK                         _______ _______ _______ _____ _____    ______ ____
ROOT
ATOM      1  C   UNL     1       3.250   0.579  -0.633  0.00  0.00    +0.056 A 
ATOM      2  C   UNL     1       2.486   1.492  -1.323  0.00  0.00    +0.130 A 
ATOM      3  N   UNL     1       3.106   2.088  -2.411  0.00  0.00    -0.232 NA
ATOM      4  C   UNL     1       4.310   1.579  -2.566  0.00  0.00    +0.168 A 
ATOM      5  N   UNL     1       5.196   1.957  -3.585  0.00  0.00    -0.243 N 
ATOM      6  C   UNL     1       6.244   1.130  -4.025  0.00  0.00    +0.253 C 
ATOM      7  O   UNL     1       7.260   1.556  -4.580  0.00  0.00    -0.270 OA
ATOM      8  S   UNL     1       4.816   0.528  -1.302  0.00  0.00    -0.051 S 
ENDROOT
BRANCH   6   9
ATOM      9  C   UNL     1       6.101  -0.349  -3.979  0.00  0.00    +0.038 A 
ATOM     10  C   UNL     1       7.179  -1.118  -3.520  0.00  0.00    +0.016 A 
ATOM     11  C   UNL     1       7.033  -2.498  -3.382  0.00  0.00    +0.047 A 
ATOM     12  C   UNL     1       5.816  -3.098  -3.706  0.00  0.00    +0.128 A 
ATOM     13  C   UNL     1       4.771  -2.349  -4.254  0.00  0.00    +0.047 A 
ATOM     14  C   UNL     1       4.913  -0.969  -4.394  0.00  0.00    +0.016 A 
BRANCH  12  15
ATOM     15  O   UNL     1       5.688  -4.450  -3.492  0.00  0.00    -0.456 OA
BRANCH  15  16
ATOM     16  C   UNL     1       4.690  -4.848  -2.624  0.00  0.00    +0.128 A 
ATOM     17  C   UNL     1       4.285  -4.110  -1.507  0.00  0.00    +0.046 A 
ATOM     18  C   UNL     1       3.269  -4.594  -0.681  0.00  0.00    +0.004 A 
ATOM     19  C   UNL     1       2.672  -5.824  -0.956  0.00  0.00    +0.000 A 
ATOM     20  C   UNL     1       3.093  -6.575  -2.055  0.00  0.00    +0.004 A 
ATOM     21  C   UNL     1       4.105  -6.089  -2.885  0.00  0.00    +0.046 A 
ENDBRANCH  15  16
ENDBRANCH  12  15
ENDBRANCH   6   9
BRANCH   5  22
ATOM     22  C   UNL     1       5.038   3.248  -4.281  0.00  0.00    +0.084 C 
ATOM     23  C   UNL     1       3.837   3.249  -5.244  0.00  0.00    +0.023 C 
ATOM     24  C   UNL     1       3.731   4.572  -6.001  0.00  0.00    +0.002 C 
ATOM     25  C   UNL     1       3.700   5.766  -5.051  0.00  0.00    +0.000 C 
ATOM     26  C   UNL     1       4.900   5.769  -4.107  0.00  0.00    +0.002 C 
ATOM     27  C   UNL     1       5.010   4.458  -3.330  0.00  0.00    +0.023 C 
ENDBRANCH   5  22
BRANCH   1  29
ATOM     28  O   UNL     1       1.571   0.004   0.883  0.00  0.00    -0.544 OA
ATOM     29  C   UNL     1       2.765  -0.213   0.511  0.00  0.00    +0.080 C 
ATOM     30  O   UNL     1       3.567  -1.057   1.017  0.00  0.00    -0.544 OA
ENDBRANCH   1  29
TORSDOF 5
