REMARK  Name = 
REMARK  13 active torsions:
REMARK  status: ('A' for Active; 'I' for Inactive)
REMARK    1  A    between atoms: C_1  and  N_2
REMARK    2  A    between atoms: C_3  and  C_5
REMARK    3  A    between atoms: C_8  and  N_9
REMARK    4  A    between atoms: N_9  and  S_10
REMARK    5  A    between atoms: S_10  and  N_13
REMARK    6  A    between atoms: N_13  and  C_14
REMARK    7  A    between atoms: C_24  and  C_25
REMARK    8  A    between atoms: C_26  and  O_27
REMARK    9  A    between atoms: N_34  and  C_35
REMARK   10  A    between atoms: C_35  and  C_36
REMARK   11  A    between atoms: C_36  and  C_37
REMARK   12  A    between atoms: C_37  and  C_38
REMARK   13  A    between atoms: C_37  and  C_39
REMARK                            x       y       z     vdW  Elec       q    Type
REMARK                         _______ _______ _______ _____ _____    ______ ____
ROOT
ATOM      1  C   UNL     1      -1.183  -1.793  -4.386  0.00  0.00    +0.051 A 
ATOM      2  C   UNL     1      -1.309  -2.054  -3.020  0.00  0.00    +0.028 A 
ATOM      3  C   UNL     1      -0.648  -3.132  -2.424  0.00  0.00    +0.053 A 
ATOM      4  C   UNL     1       0.109  -4.011  -3.195  0.00  0.00    +0.148 A 
ATOM      5  C   UNL     1       0.212  -3.752  -4.551  0.00  0.00    +0.176 A 
ATOM      6  C   UNL     1      -0.435  -2.672  -5.167  0.00  0.00    +0.059 A 
ATOM      7  S   UNL     1       1.182  -4.862  -5.487  0.00  0.00    +0.141 S 
ATOM      8  O   UNL     1       0.419  -5.147  -6.680  0.00  0.00    -0.129 OA
ATOM      9  O   UNL     1       2.492  -4.257  -5.564  0.00  0.00    -0.129 OA
ATOM     10  N   UNL     1       1.247  -6.179  -4.580  0.00  0.00    -0.131 N 
ATOM     11  C   UNL     1       1.040  -6.158  -3.289  0.00  0.00    +0.308 C 
ATOM     12  N   UNL     1       0.622  -5.113  -2.595  0.00  0.00    -0.200 N 
ATOM     13  H   UNL     1       1.495  -7.041  -5.062  0.00  0.00    +0.339 HD
ATOM     14  H   UNL     1       0.524  -5.232  -1.581  0.00  0.00    +0.298 HD
ENDROOT
BRANCH  11  15
ATOM     15  C   UNL     1       1.135  -7.447  -2.518  0.00  0.00    +0.170 A 
ATOM     16  C   UNL     1       0.877  -7.621  -1.087  0.00  0.00    +0.148 A 
ATOM     17  C   UNL     1       0.696  -9.208  -0.236  0.00  0.00    +0.060 A 
ATOM     18  C   UNL     1       0.384  -9.351   1.095  0.00  0.00    +0.016 A 
ATOM     19  C   UNL     1       0.281 -10.682   1.548  0.00  0.00    +0.021 A 
ATOM     20  C   UNL     1       0.489 -11.829   0.714  0.00  0.00    +0.113 A 
ATOM     21  N   UNL     1       0.825 -11.862  -0.607  0.00  0.00    -0.237 NA
ATOM     22  C   UNL     1       0.939 -10.649  -1.124  0.00  0.00    +0.147 A 
ATOM     23  N   UNL     1       1.569 -10.447  -2.719  0.00  0.00    -0.292 N 
ATOM     24  C   UNL     1       1.458  -8.969  -3.651  0.00  0.00    +0.271 A 
ATOM     25  O   UNL     1       1.606  -8.805  -4.856  0.00  0.00    -0.267 OA
BRANCH  16  26
ATOM     26  O   UNL     1       0.668  -6.512  -0.282  0.00  0.00    -0.505 OA
ATOM     27  H   UNL     1       0.653  -6.803   0.652  0.00  0.00    +0.292 HD
ENDBRANCH  16  26
BRANCH  23  28
ATOM     28  C   UNL     1       1.747  -9.367  -2.081  0.00  0.00    +0.127 C 
BRANCH  28  29
ATOM     29  C   UNL     1      -0.272  -9.297  -2.472  0.00  0.00    +0.025 C 
BRANCH  29  30
ATOM     30  C   UNL     1      -1.627  -9.382  -1.599  0.00  0.00    -0.016 C 
ATOM     31  C   UNL     1      -2.160  -8.028  -1.099  0.00  0.00    +0.007 C 
ATOM     32  C   UNL     1      -2.739  -9.964  -2.508  0.00  0.00    +0.007 C 
ENDBRANCH  29  30
ENDBRANCH  28  29
ENDBRANCH  23  28
ENDBRANCH  11  15
BRANCH   1  33
ATOM     33  N   UNL     1      -1.918  -0.753  -5.039  0.00  0.00    -0.204 N 
ATOM     34  H   UNL     1      -1.665  -0.587  -6.016  0.00  0.00    +0.175 HD
BRANCH  33  35
ATOM     35  S   UNL     1      -2.039   0.761  -4.298  0.00  0.00    +0.124 S 
ATOM     36  O   UNL     1      -2.481   1.668  -5.327  0.00  0.00    -0.135 OA
ATOM     37  O   UNL     1      -0.844   0.983  -3.520  0.00  0.00    -0.135 OA
BRANCH  35  38
ATOM     38  N   UNL     1      -3.368   0.479  -3.284  0.00  0.00    -0.204 N 
ATOM     39  H   UNL     1      -4.198   0.549  -3.878  0.00  0.00    +0.175 HD
BRANCH  38  43
ATOM     40  C   UNL     1      -3.441   3.119   0.002  0.00  0.00    +0.037 A 
ATOM     41  C   UNL     1      -3.783   3.597  -1.268  0.00  0.00    +0.015 A 
ATOM     42  C   UNL     1      -3.783   2.728  -2.361  0.00  0.00    +0.025 A 
ATOM     43  C   UNL     1      -3.455   1.384  -2.175  0.00  0.00    +0.049 A 
ATOM     44  C   UNL     1      -3.158   0.899  -0.900  0.00  0.00    +0.025 A 
ATOM     45  C   UNL     1      -3.157   1.764   0.194  0.00  0.00    +0.015 A 
BRANCH  40  48
ATOM     46  C   UNL     1      -0.998   3.595   1.675  0.00  0.00    +0.128 C 
ATOM     47  N   UNL     1      -2.304   4.165   1.916  0.00  0.00    -0.314 N 
ATOM     48  C   UNL     1      -3.431   4.058   1.141  0.00  0.00    +0.244 C 
ATOM     49  O   UNL     1      -4.425   4.736   1.374  0.00  0.00    -0.270 OA
ATOM     50  H   UNL     1      -2.410   4.812   2.690  0.00  0.00    +0.149 HD
ENDBRANCH  40  48
ENDBRANCH  38  43
ENDBRANCH  35  38
ENDBRANCH  33  35
ENDBRANCH   1  33
TORSDOF 10
