
 OpenBabel09122222423D

 50 52  0  0  1  0  0  0  0  0999 V2000
    2.7300   -6.5920    4.8150 C   0  0  0  0  0  0  0  0  0  0  0  0
    1.5690   -7.2950    4.4860 C   0  0  0  0  0  3  0  0  0  0  0  0
    1.6190   -8.6350    4.0900 C   0  0  0  0  0  3  0  0  0  0  0  0
    2.8430   -9.2860    3.9560 C   0  0  0  0  0  0  0  0  0  0  0  0
    3.9890   -8.5740    4.2670 C   0  0  0  0  0  0  0  0  0  0  0  0
    3.9590   -7.2330    4.6750 C   0  0  0  0  0  3  0  0  0  0  0  0
    5.5050   -9.4240    4.1050 S   0  0  0  0  0  0  0  0  0  0  0  0
    6.4010   -8.5130    3.4310 O   0  0  0  0  0  0  0  0  0  0  0  0
    5.8060   -9.9280    5.4250 O   0  0  0  0  0  0  0  0  0  0  0  0
    5.1640  -10.6420    3.1250 N   0  0  0  0  0  0  0  0  0  0  0  0
    3.9480  -11.0940    2.9580 C   0  0  1  0  0  3  0  0  0  0  0  0
    2.8490  -10.5410    3.4430 N   0  0  0  0  0  0  0  0  0  0  0  0
    5.9580  -11.0760    2.6580 H   0  0  0  0  0  0  0  0  0  0  0  0
    1.9610  -11.0170    3.2530 H   0  0  0  0  0  0  0  0  0  0  0  0
    3.7270  -12.2540    2.0240 C   0  0  0  0  0  3  0  0  0  0  0  0
    2.8280  -12.2750    0.8680 C   0  0  0  0  0  0  0  0  0  0  0  0
    2.7960  -13.5500   -0.4160 C   0  0  0  0  0  0  0  0  0  0  0  0
    1.9940  -13.5170   -1.5310 C   0  0  0  0  0  3  0  0  0  0  0  0
    2.1390  -14.6110   -2.4090 C   0  0  0  0  0  3  0  0  0  0  0  0
    3.0410  -15.7020   -2.1830 C   0  0  0  0  0  3  0  0  0  0  0  0
    3.8800  -15.8990   -1.1270 N   0  0  0  0  0  0  0  0  0  0  0  0
    3.8160  -14.9120   -0.2470 C   0  0  0  0  0  0  0  0  0  0  0  0
    4.6260  -15.0560    1.2710 N   0  0  0  0  0  2  0  0  0  0  0  0
    4.9180  -13.7260    2.3710 C   0  0  0  0  0  2  0  0  0  0  0  0
    5.7070  -13.6570    3.3060 O   0  0  0  0  0  1  0  0  0  0  0  0
    1.9620  -11.2160    0.6460 O   0  0  0  0  0  0  0  0  0  0  0  0
    1.3490  -11.4600   -0.0770 H   0  0  0  0  0  0  0  0  0  0  0  0
    3.6840  -14.2190    1.4000 C   0  0  0  0  0  2  0  0  0  0  0  0
    3.0530  -15.7530    2.6170 C   0  0  0  0  0  1  0  0  0  0  0  0
    2.2940  -15.8720    4.0370 C   0  0  0  0  0  3  0  0  0  0  0  0
    2.8290  -14.9360    5.1360 C   0  0  0  0  0  1  0  0  0  0  0  0
    0.8150  -15.4640    3.8180 C   0  0  0  0  0  1  0  0  0  0  0  0
    2.7180   -5.1980    5.1360 N   0  0  0  0  0  0  0  0  0  0  0  0
    2.3030   -4.5900    4.4250 H   0  0  0  0  0  0  0  0  0  0  0  0
    4.1490   -4.4560    5.6430 S   0  0  0  0  0  0  0  0  0  0  0  0
    5.1520   -5.4900    5.6320 O   0  0  0  0  0  0  0  0  0  0  0  0
    3.8580   -3.6600    6.8120 O   0  0  0  0  0  0  0  0  0  0  0  0
    4.4480   -3.4630    4.3030 N   0  0  0  0  0  0  0  0  0  0  0  0
    3.5990   -2.9100    4.1640 H   0  0  0  0  0  0  0  0  0  0  0  0
    5.5000   -5.7260    0.9050 C   0  0  0  0  0  0  0  0  0  0  0  0
    4.1780   -5.2900    1.0550 C   0  0  0  0  0  3  0  0  0  0  0  0
    3.8220   -4.5220    2.1660 C   0  0  0  0  0  3  0  0  0  0  0  0
    4.7910   -4.1830    3.1110 C   0  0  0  0  0  0  0  0  0  0  0  0
    6.1180   -4.5800    2.9370 C   0  0  0  0  0  3  0  0  0  0  0  0
    6.4780   -5.3470    1.8290 C   0  0  0  0  0  3  0  0  0  0  0  0
    4.4740   -8.5200    0.5350 C   0  0  0  0  0  1  0  0  0  0  0  0
    5.4160   -7.8500   -0.3320 N   0  0  0  0  0  0  0  0  0  0  0  0
    5.8520   -6.5500   -0.2680 C   0  0  0  0  0  0  0  0  0  0  0  0
    6.5200   -6.0620   -1.1710 O   0  0  0  0  0  0  0  0  0  0  0  0
    5.7380   -8.3390   -1.1610 H   0  0  0  0  0  0  0  0  0  0  0  0
  1 33  1  0  0  0  0
  2  1  2  0  0  0  0
  3  2  1  0  0  0  0
  4  3  2  0  0  0  0
  4  5  1  0  0  0  0
  5  6  2  0  0  0  0
  6  1  1  0  0  0  0
  7  5  1  0  0  0  0
  7  9  2  0  0  0  0
  8  7  2  0  0  0  0
 10  7  1  0  0  0  0
 11 15  1  6  0  0  0
 11 10  1  0  0  0  0
 11 12  1  0  0  0  0
 12  4  1  0  0  0  0
 13 10  1  0  0  0  0
 14 12  1  0  0  0  0
 16 15  2  0  0  0  0
 17 22  1  0  0  0  0
 17 16  1  0  0  0  0
 18 17  2  0  0  0  0
 19 20  2  0  0  0  0
 19 18  1  0  0  0  0
 20 21  1  0  0  0  0
 21 22  2  0  0  0  0
 22 23  1  0  0  0  0
 23 28  1  0  0  0  0
 24 25  1  0  0  0  0
 26 16  1  0  0  0  0
 27 26  1  0  0  0  0
 28 24  1  0  0  0  0
 29 30  1  0  0  0  0
 30 31  1  0  0  0  0
 32 30  1  0  0  0  0
 33 35  1  0  0  0  0
 34 33  1  0  0  0  0
 35 37  2  0  0  0  0
 36 35  2  0  0  0  0
 38 35  1  0  0  0  0
 39 38  1  0  0  0  0
 40 41  2  0  0  0  0
 40 45  1  0  0  0  0
 41 42  1  0  0  0  0
 42 43  2  0  0  0  0
 43 38  1  0  0  0  0
 44 43  1  0  0  0  0
 45 44  2  0  0  0  0
 47 48  1  0  0  0  0
 47 46  1  0  0  0  0
 48 40  1  0  0  0  0
 49 48  2  0  0  0  0
 50 47  1  0  0  0  0
M  END
>  <minimizedAffinity>
-6.90898466

$$$$

 OpenBabel09122222423D

 50 52  0  0  1  0  0  0  0  0999 V2000
    3.8460   -6.6500    5.3360 C   0  0  0  0  0  0  0  0  0  0  0  0
    3.5700   -7.8910    5.9130 C   0  0  0  0  0  3  0  0  0  0  0  0
    3.7990   -9.0810    5.2160 C   0  0  0  0  0  3  0  0  0  0  0  0
    4.2540   -9.0530    3.9000 C   0  0  0  0  0  0  0  0  0  0  0  0
    4.5070   -7.8160    3.3330 C   0  0  0  0  0  0  0  0  0  0  0  0
    4.2940   -6.6120    4.0170 C   0  0  0  0  0  3  0  0  0  0  0  0
    5.0930   -7.8160    1.6880 S   0  0  0  0  0  0  0  0  0  0  0  0
    4.3410   -6.7930    0.9990 O   0  0  0  0  0  0  0  0  0  0  0  0
    6.5330   -7.7420    1.7930 O   0  0  0  0  0  0  0  0  0  0  0  0
    4.6650   -9.2510    1.1240 N   0  0  0  0  0  0  0  0  0  0  0  0
    4.4120  -10.2690    1.9050 C   0  0  1  0  0  3  0  0  0  0  0  0
    4.3350  -10.2250    3.2240 N   0  0  0  0  0  0  0  0  0  0  0  0
    4.6330   -9.3410    0.1110 H   0  0  0  0  0  0  0  0  0  0  0  0
    4.1510  -11.1080    3.7130 H   0  0  0  0  0  0  0  0  0  0  0  0
    4.0280  -11.5840    1.2810 C   0  0  0  0  0  3  0  0  0  0  0  0
    3.1470  -11.7690    0.1250 C   0  0  0  0  0  0  0  0  0  0  0  0
    2.9360  -13.3110   -0.8000 C   0  0  0  0  0  0  0  0  0  0  0  0
    2.1580  -13.4480   -1.9250 C   0  0  0  0  0  3  0  0  0  0  0  0
    2.1470  -14.7380   -2.4930 C   0  0  0  0  0  3  0  0  0  0  0  0
    2.8720  -15.8530   -1.9600 C   0  0  0  0  0  3  0  0  0  0  0  0
    3.6610  -15.8930   -0.8490 N   0  0  0  0  0  0  0  0  0  0  0  0
    3.7380  -14.7170   -0.2480 C   0  0  0  0  0  0  0  0  0  0  0  0
    4.5030  -14.5840    1.2950 N   0  0  0  0  0  2  0  0  0  0  0  0
    4.9800  -13.0740    2.0400 C   0  0  0  0  0  2  0  0  0  0  0  0
    5.7610  -12.8840    2.9650 O   0  0  0  0  0  1  0  0  0  0  0  0
    2.4520  -10.6890   -0.3960 O   0  0  0  0  0  0  0  0  0  0  0  0
    1.8170  -11.0190   -1.0620 H   0  0  0  0  0  0  0  0  0  0  0  0
    3.6960  -13.6160    1.1660 C   0  0  0  0  0  2  0  0  0  0  0  0
    2.7820  -14.7320    2.6330 C   0  0  0  0  0  1  0  0  0  0  0  0
    1.3170  -14.7840    3.3080 C   0  0  0  0  0  3  0  0  0  0  0  0
    1.1850  -15.7590    4.4920 C   0  0  0  0  0  1  0  0  0  0  0  0
    1.0110  -13.3780    3.8830 C   0  0  0  0  0  1  0  0  0  0  0  0
    3.5380   -5.4140    5.9910 N   0  0  0  0  0  0  0  0  0  0  0  0
    3.6830   -5.4090    7.0030 H   0  0  0  0  0  0  0  0  0  0  0  0
    2.0440   -4.6790    5.7030 S   0  0  0  0  0  0  0  0  0  0  0  0
    1.6410   -5.1100    4.3880 O   0  0  0  0  0  0  0  0  0  0  0  0
    2.1430   -3.2880    6.0750 O   0  0  0  0  0  0  0  0  0  0  0  0
    1.0880   -5.5280    6.8160 N   0  0  0  0  0  0  0  0  0  0  0  0
    1.7320   -5.8990    7.5190 H   0  0  0  0  0  0  0  0  0  0  0  0
   -1.2880   -8.6420    5.2540 C   0  0  0  0  0  0  0  0  0  0  0  0
   -1.4000   -7.3570    4.7110 C   0  0  0  0  0  3  0  0  0  0  0  0
   -0.6040   -6.3210    5.2060 C   0  0  0  0  0  3  0  0  0  0  0  0
    0.3090   -6.5800    6.2290 C   0  0  0  0  0  0  0  0  0  0  0  0
    0.4520   -7.8720    6.7390 C   0  0  0  0  0  3  0  0  0  0  0  0
   -0.3410   -8.9090    6.2470 C   0  0  0  0  0  3  0  0  0  0  0  0
   -3.8880   -9.3950    6.5440 C   0  0  0  0  0  1  0  0  0  0  0  0
   -3.2850  -10.0680    5.4160 N   0  0  0  0  0  0  0  0  0  0  0  0
   -2.1500   -9.7180    4.7290 C   0  0  0  0  0  0  0  0  0  0  0  0
   -1.8470  -10.2790    3.6820 O   0  0  0  0  0  0  0  0  0  0  0  0
   -3.7900  -10.8370    4.9900 H   0  0  0  0  0  0  0  0  0  0  0  0
  1  2  1  0  0  0  0
  1 33  1  0  0  0  0
  3  2  2  0  0  0  0
  4  3  1  0  0  0  0
  5  4  2  0  0  0  0
  5  6  1  0  0  0  0
  6  1  2  0  0  0  0
  7  9  2  0  0  0  0
  7  5  1  0  0  0  0
  8  7  2  0  0  0  0
 10  7  1  0  0  0  0
 10 11  1  0  0  0  0
 11 15  1  6  0  0  0
 11 12  1  0  0  0  0
 12 14  1  0  0  0  0
 12  4  1  0  0  0  0
 13 10  1  0  0  0  0
 16 15  2  0  0  0  0
 17 22  1  0  0  0  0
 17 16  1  0  0  0  0
 18 17  2  0  0  0  0
 19 20  2  0  0  0  0
 19 18  1  0  0  0  0
 20 21  1  0  0  0  0
 21 22  2  0  0  0  0
 22 23  1  0  0  0  0
 24 25  1  0  0  0  0
 26 16  1  0  0  0  0
 27 26  1  0  0  0  0
 28 23  1  0  0  0  0
 28 24  1  0  0  0  0
 29 30  1  0  0  0  0
 30 32  1  0  0  0  0
 30 31  1  0  0  0  0
 33 34  1  0  0  0  0
 35 33  1  0  0  0  0
 35 37  2  0  0  0  0
 35 38  1  0  0  0  0
 36 35  2  0  0  0  0
 38 39  1  0  0  0  0
 40 45  1  0  0  0  0
 41 42  1  0  0  0  0
 41 40  2  0  0  0  0
 42 43  2  0  0  0  0
 43 44  1  0  0  0  0
 43 38  1  0  0  0  0
 45 44  2  0  0  0  0
 47 46  1  0  0  0  0
 48 40  1  0  0  0  0
 48 47  1  0  0  0  0
 49 48  2  0  0  0  0
 50 47  1  0  0  0  0
M  END
>  <minimizedAffinity>
-6.56535959

$$$$

 OpenBabel09122222423D

 50 52  0  0  1  0  0  0  0  0999 V2000
    4.3630   -4.8320    3.8630 C   0  0  0  0  0  0  0  0  0  0  0  0
    4.3390   -5.8370    4.8330 C   0  0  0  0  0  3  0  0  0  0  0  0
    4.4910   -7.1830    4.4860 C   0  0  0  0  0  3  0  0  0  0  0  0
    4.6120   -7.5600    3.1510 C   0  0  0  0  0  0  0  0  0  0  0  0
    4.6170   -6.5560    2.1970 C   0  0  0  0  0  0  0  0  0  0  0  0
    4.4750   -5.2010    2.5240 C   0  0  0  0  0  3  0  0  0  0  0  0
    4.7880   -7.0600    0.5340 S   0  0  0  0  0  0  0  0  0  0  0  0
    3.8090   -6.3040   -0.2120 O   0  0  0  0  0  0  0  0  0  0  0  0
    6.1990   -6.9500    0.2420 O   0  0  0  0  0  0  0  0  0  0  0  0
    4.3570   -8.6010    0.5500 N   0  0  0  0  0  0  0  0  0  0  0  0
    4.3850   -9.3310    1.6350 C   0  0  1  0  0  3  0  0  0  0  0  0
    4.6250   -8.8830    2.8560 N   0  0  0  0  0  0  0  0  0  0  0  0
    4.0890   -8.9990   -0.3480 H   0  0  0  0  0  0  0  0  0  0  0  0
    4.6390   -9.5730    3.6140 H   0  0  0  0  0  0  0  0  0  0  0  0
    3.9730  -10.7760    1.5480 C   0  0  0  0  0  3  0  0  0  0  0  0
    3.0060  -11.3450    0.6080 C   0  0  0  0  0  0  0  0  0  0  0  0
    2.7450  -13.1110    0.3080 C   0  0  0  0  0  0  0  0  0  0  0  0
    1.8820  -13.6260   -0.6300 C   0  0  0  0  0  3  0  0  0  0  0  0
    1.8450  -15.0330   -0.7030 C   0  0  0  0  0  3  0  0  0  0  0  0
    2.6280  -15.8980    0.1300 C   0  0  0  0  0  3  0  0  0  0  0  0
    3.5050  -15.5540    1.1150 N   0  0  0  0  0  0  0  0  0  0  0  0
    3.6110  -14.2420    1.2540 C   0  0  0  0  0  0  0  0  0  0  0  0
    4.4950  -13.5840    2.5830 N   0  0  0  0  0  2  0  0  0  0  0  0
    5.0070  -11.9140    2.7060 C   0  0  0  0  0  2  0  0  0  0  0  0
    5.8570  -11.4200    3.4370 O   0  0  0  0  0  1  0  0  0  0  0  0
    2.2550  -10.5090   -0.2030 O   0  0  0  0  0  0  0  0  0  0  0  0
    1.5730  -11.0440   -0.6560 H   0  0  0  0  0  0  0  0  0  0  0  0
    3.6660  -12.7120    2.1860 C   0  0  0  0  0  2  0  0  0  0  0  0
    2.8160  -13.3260    3.9570 C   0  0  0  0  0  1  0  0  0  0  0  0
    2.2430  -12.6030    5.2810 C   0  0  0  0  0  3  0  0  0  0  0  0
    2.9610  -12.9830    6.5870 C   0  0  0  0  0  1  0  0  0  0  0  0
    2.4510  -11.0760    5.1130 C   0  0  0  0  0  1  0  0  0  0  0  0
    4.1200   -3.4570    4.1770 N   0  0  0  0  0  0  0  0  0  0  0  0
    4.9440   -2.9220    4.4610 H   0  0  0  0  0  0  0  0  0  0  0  0
    2.8820   -3.0650    5.2580 S   0  0  0  0  0  0  0  0  0  0  0  0
    1.6640   -3.0970    4.4880 O   0  0  0  0  0  0  0  0  0  0  0  0
    3.2940   -1.9130    6.0220 O   0  0  0  0  0  0  0  0  0  0  0  0
    2.8930   -4.4580    6.2240 N   0  0  0  0  0  0  0  0  0  0  0  0
    3.7780   -4.9320    6.0300 H   0  0  0  0  0  0  0  0  0  0  0  0
   -0.2920   -7.0890    5.3810 C   0  0  0  0  0  0  0  0  0  0  0  0
    0.4980   -7.3110    6.5150 C   0  0  0  0  0  3  0  0  0  0  0  0
    1.5420   -6.4350    6.8170 C   0  0  0  0  0  3  0  0  0  0  0  0
    1.7820   -5.3350    5.9910 C   0  0  0  0  0  0  0  0  0  0  0  0
    0.9650   -5.0900    4.8860 C   0  0  0  0  0  3  0  0  0  0  0  0
   -0.0790   -5.9630    4.5810 C   0  0  0  0  0  3  0  0  0  0  0  0
   -3.1330   -6.6040    6.2070 C   0  0  0  0  0  1  0  0  0  0  0  0
   -2.6420   -7.7940    5.5510 N   0  0  0  0  0  0  0  0  0  0  0  0
   -1.3800   -8.0370    5.0710 C   0  0  0  0  0  0  0  0  0  0  0  0
   -1.1450   -9.0220    4.3810 O   0  0  0  0  0  0  0  0  0  0  0  0
   -3.3090   -8.5190    5.3100 H   0  0  0  0  0  0  0  0  0  0  0  0
  1 33  1  0  0  0  0
  1  2  1  0  0  0  0
  3  2  2  0  0  0  0
  4  3  1  0  0  0  0
  5  6  1  0  0  0  0
  5  4  2  0  0  0  0
  6  1  2  0  0  0  0
  7 10  1  0  0  0  0
  7  5  1  0  0  0  0
  8  7  2  0  0  0  0
  9  7  2  0  0  0  0
 10 11  1  0  0  0  0
 11 15  1  1  0  0  0
 11 12  1  0  0  0  0
 12  4  1  0  0  0  0
 12 14  1  0  0  0  0
 13 10  1  0  0  0  0
 16 15  2  0  0  0  0
 17 16  1  0  0  0  0
 17 22  1  0  0  0  0
 18 17  2  0  0  0  0
 19 18  1  0  0  0  0
 19 20  2  0  0  0  0
 20 21  1  0  0  0  0
 21 22  2  0  0  0  0
 22 23  1  0  0  0  0
 24 25  1  0  0  0  0
 26 16  1  0  0  0  0
 27 26  1  0  0  0  0
 28 23  1  0  0  0  0
 28 24  1  0  0  0  0
 29 30  1  0  0  0  0
 30 31  1  0  0  0  0
 32 30  1  0  0  0  0
 33 34  1  0  0  0  0
 33 35  1  0  0  0  0
 35 37  2  0  0  0  0
 35 38  1  0  0  0  0
 36 35  2  0  0  0  0
 39 38  1  0  0  0  0
 40 41  1  0  0  0  0
 41 42  2  0  0  0  0
 43 38  1  0  0  0  0
 43 42  1  0  0  0  0
 44 43  2  0  0  0  0
 45 44  1  0  0  0  0
 45 40  2  0  0  0  0
 47 46  1  0  0  0  0
 48 40  1  0  0  0  0
 48 47  1  0  0  0  0
 49 48  2  0  0  0  0
 50 47  1  0  0  0  0
M  END
>  <minimizedAffinity>
-5.92570353

$$$$

 OpenBabel09122222423D

 50 52  0  0  1  0  0  0  0  0999 V2000
    4.5700   -6.1420    3.7840 C   0  0  0  0  0  0  0  0  0  0  0  0
    4.3460   -6.3030    2.4150 C   0  0  0  0  0  3  0  0  0  0  0  0
    3.8570   -7.5060    1.8970 C   0  0  0  0  0  3  0  0  0  0  0  0
    3.6370   -8.5980    2.7320 C   0  0  0  0  0  0  0  0  0  0  0  0
    3.8790   -8.4320    4.0850 C   0  0  0  0  0  0  0  0  0  0  0  0
    4.3610   -7.2320    4.6270 C   0  0  0  0  0  3  0  0  0  0  0  0
    3.5770   -9.8140    5.1090 S   0  0  0  0  0  0  0  0  0  0  0  0
    4.7110   -9.9030    6.0000 O   0  0  0  0  0  0  0  0  0  0  0  0
    2.2380   -9.6290    5.6190 O   0  0  0  0  0  0  0  0  0  0  0  0
    3.6050  -11.0560    4.1000 N   0  0  0  0  0  0  0  0  0  0  0  0
    3.4010  -10.9270    2.8150 C   0  0  1  0  0  3  0  0  0  0  0  0
    3.2890   -9.7800    2.1670 N   0  0  0  0  0  0  0  0  0  0  0  0
    3.7580  -11.9700    4.5220 H   0  0  0  0  0  0  0  0  0  0  0  0
    3.1060   -9.8260    1.1580 H   0  0  0  0  0  0  0  0  0  0  0  0
    3.4340  -12.1560    1.9470 C   0  0  0  0  0  3  0  0  0  0  0  0
    2.5520  -12.4400    0.8140 C   0  0  0  0  0  0  0  0  0  0  0  0
    2.7920  -13.7600   -0.4010 C   0  0  0  0  0  0  0  0  0  0  0  0
    1.9920  -13.9680   -1.4990 C   0  0  0  0  0  3  0  0  0  0  0  0
    2.3690  -15.0490   -2.3210 C   0  0  0  0  0  3  0  0  0  0  0  0
    3.4930  -15.8990   -2.0590 C   0  0  0  0  0  3  0  0  0  0  0  0
    4.3640  -15.8460   -1.0120 N   0  0  0  0  0  0  0  0  0  0  0  0
    4.0910  -14.8510   -0.1840 C   0  0  0  0  0  0  0  0  0  0  0  0
    4.9270  -14.7270    1.3220 N   0  0  0  0  0  2  0  0  0  0  0  0
    4.9250  -13.3060    2.3450 C   0  0  0  0  0  2  0  0  0  0  0  0
    5.6880  -13.0130    3.2580 O   0  0  0  0  0  1  0  0  0  0  0  0
    1.4700  -11.6130    0.5550 O   0  0  0  0  0  0  0  0  0  0  0  0
    0.9200  -12.0270   -0.1400 H   0  0  0  0  0  0  0  0  0  0  0  0
    3.8240  -14.1130    1.4280 C   0  0  0  0  0  2  0  0  0  0  0  0
    3.5640  -15.6750    2.7420 C   0  0  0  0  0  1  0  0  0  0  0  0
    2.7970  -15.8970    4.1450 C   0  0  0  0  0  3  0  0  0  0  0  0
    3.3790  -15.1090    5.3310 C   0  0  0  0  0  1  0  0  0  0  0  0
    1.3430  -15.3890    3.9730 C   0  0  0  0  0  1  0  0  0  0  0  0
    5.1540   -4.9560    4.3310 N   0  0  0  0  0  0  0  0  0  0  0  0
    5.9160   -5.1110    4.9950 H   0  0  0  0  0  0  0  0  0  0  0  0
    4.1470   -3.7770    5.0040 S   0  0  0  0  0  0  0  0  0  0  0  0
    3.0790   -3.5840    4.0560 O   0  0  0  0  0  0  0  0  0  0  0  0
    4.9730   -2.6940    5.4830 O   0  0  0  0  0  0  0  0  0  0  0  0
    3.5030   -4.6560    6.3030 N   0  0  0  0  0  0  0  0  0  0  0  0
    4.2210   -5.3350    6.5690 H   0  0  0  0  0  0  0  0  0  0  0  0
   -0.2040   -6.5280    5.5810 C   0  0  0  0  0  0  0  0  0  0  0  0
    0.2180   -5.4970    4.7350 C   0  0  0  0  0  3  0  0  0  0  0  0
    1.4530   -4.8830    4.9510 C   0  0  0  0  0  3  0  0  0  0  0  0
    2.2650   -5.3130    6.0020 C   0  0  0  0  0  0  0  0  0  0  0  0
    1.8620   -6.3720    6.8170 C   0  0  0  0  0  3  0  0  0  0  0  0
    0.6290   -6.9880    6.6050 C   0  0  0  0  0  3  0  0  0  0  0  0
   -0.5220   -9.0920    4.0590 C   0  0  0  0  0  1  0  0  0  0  0  0
   -1.6030   -8.2800    4.5700 N   0  0  0  0  0  0  0  0  0  0  0  0
   -1.5210   -7.1520    5.3460 C   0  0  0  0  0  0  0  0  0  0  0  0
   -2.5220   -6.6610    5.8550 O   0  0  0  0  0  0  0  0  0  0  0  0
   -2.5530   -8.6120    4.4440 H   0  0  0  0  0  0  0  0  0  0  0  0
  1 33  1  0  0  0  0
  1  6  1  0  0  0  0
  2  1  2  0  0  0  0
  3  2  1  0  0  0  0
  3  4  2  0  0  0  0
  4  5  1  0  0  0  0
  5  6  2  0  0  0  0
  5  7  1  0  0  0  0
  7  9  2  0  0  0  0
  7  8  2  0  0  0  0
 10 13  1  0  0  0  0
 10  7  1  0  0  0  0
 11 15  1  6  0  0  0
 11 10  1  0  0  0  0
 12  4  1  0  0  0  0
 12 11  1  0  0  0  0
 14 12  1  0  0  0  0
 16 15  2  0  0  0  0
 17 22  1  0  0  0  0
 17 16  1  0  0  0  0
 18 17  2  0  0  0  0
 19 20  2  0  0  0  0
 19 18  1  0  0  0  0
 20 21  1  0  0  0  0
 21 22  2  0  0  0  0
 22 23  1  0  0  0  0
 23 28  1  0  0  0  0
 24 25  1  0  0  0  0
 26 16  1  0  0  0  0
 27 26  1  0  0  0  0
 28 24  1  0  0  0  0
 29 30  1  0  0  0  0
 30 31  1  0  0  0  0
 32 30  1  0  0  0  0
 33 34  1  0  0  0  0
 33 35  1  0  0  0  0
 35 37  2  0  0  0  0
 35 38  1  0  0  0  0
 36 35  2  0  0  0  0
 38 39  1  0  0  0  0
 40 45  1  0  0  0  0
 41 42  1  0  0  0  0
 41 40  2  0  0  0  0
 42 43  2  0  0  0  0
 43 38  1  0  0  0  0
 43 44  1  0  0  0  0
 45 44  2  0  0  0  0
 46 47  1  0  0  0  0
 47 48  1  0  0  0  0
 48 40  1  0  0  0  0
 48 49  2  0  0  0  0
 50 47  1  0  0  0  0
M  END
>  <minimizedAffinity>
-5.90280819

$$$$

 OpenBabel09122222423D

 50 52  0  0  1  0  0  0  0  0999 V2000
    1.2240  -12.7300    5.6840 C   0  0  0  0  0  0  0  0  0  0  0  0
    0.8810  -11.8250    6.6900 C   0  0  0  0  0  3  0  0  0  0  0  0
    0.9500  -10.4450    6.4790 C   0  0  0  0  0  3  0  0  0  0  0  0
    1.4230   -9.9380    5.2710 C   0  0  0  0  0  0  0  0  0  0  0  0
    1.7770  -10.8440    4.2870 C   0  0  0  0  0  0  0  0  0  0  0  0
    1.7060  -12.2320    4.4750 C   0  0  0  0  0  3  0  0  0  0  0  0
    2.3480  -10.1770    2.7780 S   0  0  0  0  0  0  0  0  0  0  0  0
    3.5160  -10.9480    2.4200 O   0  0  0  0  0  0  0  0  0  0  0  0
    1.1900  -10.1290    1.9160 O   0  0  0  0  0  0  0  0  0  0  0  0
    2.8000   -8.6890    3.1600 N   0  0  0  0  0  0  0  0  0  0  0  0
    2.3490   -8.0630    4.2160 C   0  0  1  0  0  3  0  0  0  0  0  0
    1.5950   -8.5980    5.1620 N   0  0  0  0  0  0  0  0  0  0  0  0
    3.4410   -8.2370    2.5100 H   0  0  0  0  0  0  0  0  0  0  0  0
    1.2930   -7.9820    5.9240 H   0  0  0  0  0  0  0  0  0  0  0  0
    2.8230   -6.6610    4.4850 C   0  0  0  0  0  3  0  0  0  0  0  0
    2.0260   -5.5710    5.0530 C   0  0  0  0  0  0  0  0  0  0  0  0
    2.6770   -3.9930    5.6530 C   0  0  0  0  0  0  0  0  0  0  0  0
    1.9220   -3.0100    6.2470 C   0  0  0  0  0  3  0  0  0  0  0  0
    2.6380   -1.8640    6.6500 C   0  0  0  0  0  3  0  0  0  0  0  0
    4.0490   -1.6950    6.4620 C   0  0  0  0  0  3  0  0  0  0  0  0
    4.9300   -2.5530    5.8740 N   0  0  0  0  0  0  0  0  0  0  0  0
    4.3460   -3.6690    5.4670 C   0  0  0  0  0  0  0  0  0  0  0  0
    5.2240   -4.8000    4.5020 N   0  0  0  0  0  2  0  0  0  0  0  0
    4.7120   -6.4440    4.1850 C   0  0  0  0  0  2  0  0  0  0  0  0
    5.3710   -7.3900    3.7710 O   0  0  0  0  0  1  0  0  0  0  0  0
    0.6630   -5.7380    5.2420 O   0  0  0  0  0  0  0  0  0  0  0  0
    0.2750   -4.8750    5.4920 H   0  0  0  0  0  0  0  0  0  0  0  0
    3.9870   -4.9700    4.2880 C   0  0  0  0  0  2  0  0  0  0  0  0
    4.7150   -4.7260    2.3790 C   0  0  0  0  0  1  0  0  0  0  0  0
    4.9350   -5.6730    1.0900 C   0  0  0  0  0  3  0  0  0  0  0  0
    4.4460   -5.0770   -0.2410 C   0  0  0  0  0  1  0  0  0  0  0  0
    6.4590   -5.8940    0.9200 C   0  0  0  0  0  1  0  0  0  0  0  0
    1.2490  -14.1450    5.8990 N   0  0  0  0  0  0  0  0  0  0  0  0
    0.8410  -14.4590    6.7830 H   0  0  0  0  0  0  0  0  0  0  0  0
    2.7040  -14.9820    5.7040 S   0  0  0  0  0  0  0  0  0  0  0  0
    2.7810  -15.9000    6.8130 O   0  0  0  0  0  0  0  0  0  0  0  0
    3.7430  -14.0260    5.4060 O   0  0  0  0  0  0  0  0  0  0  0  0
    2.3250  -15.9000    4.3300 N   0  0  0  0  0  0  0  0  0  0  0  0
    2.8120  -16.7920    4.4410 H   0  0  0  0  0  0  0  0  0  0  0  0
    3.4520  -14.2120    0.6350 C   0  0  0  0  0  0  0  0  0  0  0  0
    2.0990  -14.2410    0.9900 C   0  0  0  0  0  3  0  0  0  0  0  0
    1.7140  -14.7790    2.2200 C   0  0  0  0  0  3  0  0  0  0  0  0
    2.6860  -15.2700    3.0930 C   0  0  0  0  0  0  0  0  0  0  0  0
    4.0390  -15.1990    2.7570 C   0  0  0  0  0  3  0  0  0  0  0  0
    4.4270  -14.6630    1.5290 C   0  0  0  0  0  3  0  0  0  0  0  0
    2.2150  -15.1430   -1.9340 C   0  0  0  0  0  1  0  0  0  0  0  0
    3.2910  -14.1860   -1.8200 N   0  0  0  0  0  0  0  0  0  0  0  0
    3.8360  -13.6550   -0.6770 C   0  0  0  0  0  0  0  0  0  0  0  0
    4.6280  -12.7220   -0.7290 O   0  0  0  0  0  0  0  0  0  0  0  0
    3.6430  -13.7550   -2.6680 H   0  0  0  0  0  0  0  0  0  0  0  0
  1 33  1  0  0  0  0
  1  2  1  0  0  0  0
  3  2  2  0  0  0  0
  4  3  1  0  0  0  0
  5  6  1  0  0  0  0
  5  4  2  0  0  0  0
  6  1  2  0  0  0  0
  7 10  1  0  0  0  0
  7  5  1  0  0  0  0
  8  7  2  0  0  0  0
  9  7  2  0  0  0  0
 10 11  1  0  0  0  0
 11 15  1  1  0  0  0
 11 12  1  0  0  0  0
 12  4  1  0  0  0  0
 12 14  1  0  0  0  0
 13 10  1  0  0  0  0
 15 16  2  0  0  0  0
 16 26  1  0  0  0  0
 16 17  1  0  0  0  0
 17 18  2  0  0  0  0
 18 19  1  0  0  0  0
 20 19  2  0  0  0  0
 21 20  1  0  0  0  0
 22 17  1  0  0  0  0
 22 21  2  0  0  0  0
 23 22  1  0  0  0  0
 24 28  1  0  0  0  0
 25 24  1  0  0  0  0
 26 27  1  0  0  0  0
 28 23  1  0  0  0  0
 30 29  1  0  0  0  0
 31 30  1  0  0  0  0
 32 30  1  0  0  0  0
 33 34  1  0  0  0  0
 35 33  1  0  0  0  0
 35 36  2  0  0  0  0
 37 35  2  0  0  0  0
 38 39  1  0  0  0  0
 38 35  1  0  0  0  0
 40 41  2  0  0  0  0
 40 45  1  0  0  0  0
 41 42  1  0  0  0  0
 42 43  2  0  0  0  0
 43 38  1  0  0  0  0
 44 43  1  0  0  0  0
 45 44  2  0  0  0  0
 46 47  1  0  0  0  0
 47 48  1  0  0  0  0
 48 40  1  0  0  0  0
 49 48  2  0  0  0  0
 50 47  1  0  0  0  0
M  END
>  <minimizedAffinity>
-4.87055492

$$$$

 OpenBabel09122222423D

 50 52  0  0  1  0  0  0  0  0999 V2000
    3.8170   -8.0330    0.4780 C   0  0  0  0  0  0  0  0  0  0  0  0
    2.6140   -8.5880    0.0370 C   0  0  0  0  0  3  0  0  0  0  0  0
    1.7670   -9.2710    0.9140 C   0  0  0  0  0  3  0  0  0  0  0  0
    2.1330   -9.4660    2.2430 C   0  0  0  0  0  0  0  0  0  0  0  0
    3.3360   -8.9260    2.6640 C   0  0  0  0  0  0  0  0  0  0  0  0
    4.1970   -8.2300    1.8040 C   0  0  0  0  0  3  0  0  0  0  0  0
    3.7590   -9.1720    4.3410 S   0  0  0  0  0  0  0  0  0  0  0  0
    5.1500   -9.5620    4.3460 O   0  0  0  0  0  0  0  0  0  0  0  0
    3.3130   -7.9820    5.0280 O   0  0  0  0  0  0  0  0  0  0  0  0
    2.8630  -10.4210    4.7860 N   0  0  0  0  0  0  0  0  0  0  0  0
    1.7710  -10.7670    4.1560 C   0  0  1  0  0  3  0  0  0  0  0  0
    1.3420  -10.2450    3.0200 N   0  0  0  0  0  0  0  0  0  0  0  0
    3.1750  -10.9190    5.6180 H   0  0  0  0  0  0  0  0  0  0  0  0
    0.4530  -10.5970    2.6480 H   0  0  0  0  0  0  0  0  0  0  0  0
    0.9880  -11.9510    4.6580 C   0  0  0  0  0  3  0  0  0  0  0  0
   -0.1720  -11.9060    5.5510 C   0  0  0  0  0  0  0  0  0  0  0  0
   -1.2830  -13.2900    5.9020 C   0  0  0  0  0  0  0  0  0  0  0  0
   -2.4080  -13.2110    6.6880 C   0  0  0  0  0  3  0  0  0  0  0  0
   -3.1360  -14.4110    6.8170 C   0  0  0  0  0  3  0  0  0  0  0  0
   -2.7580  -15.6470    6.1970 C   0  0  0  0  0  3  0  0  0  0  0  0
   -1.6710  -15.9000    5.4140 N   0  0  0  0  0  0  0  0  0  0  0  0
   -0.9250  -14.8220    5.2310 C   0  0  0  0  0  0  0  0  0  0  0  0
    0.6130  -14.9590    4.4580 N   0  0  0  0  0  2  0  0  0  0  0  0
    1.5400  -13.6060    3.8460 C   0  0  0  0  0  2  0  0  0  0  0  0
    2.4720  -13.6070    3.0510 O   0  0  0  0  0  1  0  0  0  0  0  0
   -0.5420  -10.7090    6.1450 O   0  0  0  0  0  0  0  0  0  0  0  0
   -1.2380  -10.8920    6.8080 H   0  0  0  0  0  0  0  0  0  0  0  0
    0.6180  -13.9130    5.1730 C   0  0  0  0  0  2  0  0  0  0  0  0
    2.1370  -15.0110    6.0220 C   0  0  0  0  0  1  0  0  0  0  0  0
    3.6950  -14.7640    6.3670 C   0  0  0  0  0  3  0  0  0  0  0  0
    4.6570  -14.9530    5.1810 C   0  0  0  0  0  1  0  0  0  0  0  0
    3.8540  -13.2870    6.8080 C   0  0  0  0  0  1  0  0  0  0  0  0
    4.7460   -7.4080   -0.4140 N   0  0  0  0  0  0  0  0  0  0  0  0
    5.3150   -8.0490   -0.9720 H   0  0  0  0  0  0  0  0  0  0  0  0
    5.7870   -6.2170    0.1820 S   0  0  0  0  0  0  0  0  0  0  0  0
    6.4200   -5.6350   -0.9740 O   0  0  0  0  0  0  0  0  0  0  0  0
    6.5330   -6.7760    1.2830 O   0  0  0  0  0  0  0  0  0  0  0  0
    4.6480   -5.0930    0.7410 N   0  0  0  0  0  0  0  0  0  0  0  0
    4.7390   -4.2730    0.1360 H   0  0  0  0  0  0  0  0  0  0  0  0
    5.1450   -3.8590    4.7410 C   0  0  0  0  0  0  0  0  0  0  0  0
    3.9640   -4.5080    4.3670 C   0  0  0  0  0  3  0  0  0  0  0  0
    3.7950   -4.9410    3.0500 C   0  0  0  0  0  3  0  0  0  0  0  0
    4.8150   -4.7340    2.1190 C   0  0  0  0  0  0  0  0  0  0  0  0
    6.0110   -4.1270    2.5050 C   0  0  0  0  0  3  0  0  0  0  0  0
    6.1830   -3.6930    3.8200 C   0  0  0  0  0  3  0  0  0  0  0  0
    3.1490   -2.0520    6.0610 C   0  0  0  0  0  1  0  0  0  0  0  0
    4.3900   -2.5020    6.6490 N   0  0  0  0  0  0  0  0  0  0  0  0
    5.2960   -3.3950    6.1340 C   0  0  0  0  0  0  0  0  0  0  0  0
    6.2220   -3.8200    6.8160 O   0  0  0  0  0  0  0  0  0  0  0  0
    4.6000   -2.2220    7.6010 H   0  0  0  0  0  0  0  0  0  0  0  0
  1  6  1  0  0  0  0
  2  1  2  0  0  0  0
  2  3  1  0  0  0  0
  3  4  2  0  0  0  0
  4  5  1  0  0  0  0
  4 12  1  0  0  0  0
  5  7  1  0  0  0  0
  6  5  2  0  0  0  0
  7  8  2  0  0  0  0
  7 10  1  0  0  0  0
  7  9  2  0  0  0  0
 10 13  1  0  0  0  0
 11 15  1  6  0  0  0
 11 10  1  0  0  0  0
 12 11  1  0  0  0  0
 14 12  1  0  0  0  0
 15 16  2  0  0  0  0
 16 17  1  0  0  0  0
 16 26  1  0  0  0  0
 17 18  2  0  0  0  0
 18 19  1  0  0  0  0
 20 19  2  0  0  0  0
 21 20  1  0  0  0  0
 22 21  2  0  0  0  0
 22 17  1  0  0  0  0
 23 28  1  0  0  0  0
 23 22  1  0  0  0  0
 24 28  1  0  0  0  0
 25 24  1  0  0  0  0
 26 27  1  0  0  0  0
 29 30  1  0  0  0  0
 30 32  1  0  0  0  0
 31 30  1  0  0  0  0
 33 35  1  0  0  0  0
 33  1  1  0  0  0  0
 34 33  1  0  0  0  0
 35 38  1  0  0  0  0
 35 37  2  0  0  0  0
 36 35  2  0  0  0  0
 38 43  1  0  0  0  0
 39 38  1  0  0  0  0
 40 48  1  0  0  0  0
 41 40  1  0  0  0  0
 42 41  2  0  0  0  0
 43 44  2  0  0  0  0
 43 42  1  0  0  0  0
 44 45  1  0  0  0  0
 45 40  2  0  0  0  0
 46 47  1  0  0  0  0
 47 50  1  0  0  0  0
 48 47  1  0  0  0  0
 48 49  2  0  0  0  0
M  END
>  <minimizedAffinity>
-4.82511616

$$$$

 OpenBabel09122222423D

 50 52  0  0  1  0  0  0  0  0999 V2000
    4.5220   -4.6620    3.6410 C   0  0  0  0  0  0  0  0  0  0  0  0
    4.5680   -5.5950    4.6790 C   0  0  0  0  0  3  0  0  0  0  0  0
    4.7020   -6.9620    4.4190 C   0  0  0  0  0  3  0  0  0  0  0  0
    4.7350   -7.4330    3.1090 C   0  0  0  0  0  0  0  0  0  0  0  0
    4.6720   -6.4990    2.0890 C   0  0  0  0  0  0  0  0  0  0  0  0
    4.5450   -5.1240    2.3270 C   0  0  0  0  0  3  0  0  0  0  0  0
    4.7330   -7.1200    0.4570 S   0  0  0  0  0  0  0  0  0  0  0  0
    3.7020   -6.4180   -0.2730 O   0  0  0  0  0  0  0  0  0  0  0  0
    6.1200   -7.0310    0.0640 O   0  0  0  0  0  0  0  0  0  0  0  0
    4.3110   -8.6560    0.6120 N   0  0  0  0  0  0  0  0  0  0  0  0
    4.4150   -9.3070    1.7410 C   0  0  1  0  0  3  0  0  0  0  0  0
    4.7340   -8.7730    2.9080 N   0  0  0  0  0  0  0  0  0  0  0  0
    3.9850   -9.1160   -0.2360 H   0  0  0  0  0  0  0  0  0  0  0  0
    4.8020   -9.4080    3.7110 H   0  0  0  0  0  0  0  0  0  0  0  0
    4.0050  -10.7540    1.7850 C   0  0  0  0  0  3  0  0  0  0  0  0
    4.6360  -11.8090    2.5810 C   0  0  0  0  0  0  0  0  0  0  0  0
    3.9570  -13.4630    2.8620 C   0  0  0  0  0  0  0  0  0  0  0  0
    4.5290  -14.4160    3.6700 C   0  0  0  0  0  3  0  0  0  0  0  0
    3.8240  -15.6340    3.7550 C   0  0  0  0  0  3  0  0  0  0  0  0
    2.6000  -15.8990    3.0570 C   0  0  0  0  0  3  0  0  0  0  0  0
    1.9190  -15.0800    2.2060 N   0  0  0  0  0  0  0  0  0  0  0  0
    2.5080  -13.9030    2.0680 C   0  0  0  0  0  0  0  0  0  0  0  0
    1.9430  -12.7900    0.8740 N   0  0  0  0  0  2  0  0  0  0  0  0
    2.3840  -11.0970    0.8060 C   0  0  0  0  0  2  0  0  0  0  0  0
    1.8380  -10.1830    0.2000 O   0  0  0  0  0  1  0  0  0  0  0  0
    5.8150  -11.5500    3.2620 O   0  0  0  0  0  0  0  0  0  0  0  0
    6.1620  -12.3930    3.6180 H   0  0  0  0  0  0  0  0  0  0  0  0
    3.1520  -12.5150    1.1340 C   0  0  0  0  0  2  0  0  0  0  0  0
    3.3310  -13.5820   -0.6160 C   0  0  0  0  0  1  0  0  0  0  0  0
    3.1450  -15.1220   -1.0610 C   0  0  0  0  0  3  0  0  0  0  0  0
    2.4970  -15.3230   -2.4420 C   0  0  0  0  0  1  0  0  0  0  0  0
    4.5550  -15.7590   -1.1590 C   0  0  0  0  0  1  0  0  0  0  0  0
    4.2950   -3.2680    3.8730 N   0  0  0  0  0  0  0  0  0  0  0  0
    5.0850   -2.7570    4.2740 H   0  0  0  0  0  0  0  0  0  0  0  0
    2.9160   -2.7880    4.7250 S   0  0  0  0  0  0  0  0  0  0  0  0
    1.7940   -3.2050    3.9230 O   0  0  0  0  0  0  0  0  0  0  0  0
    3.1020   -1.4250    5.1600 O   0  0  0  0  0  0  0  0  0  0  0  0
    3.0060   -3.8530    6.0400 N   0  0  0  0  0  0  0  0  0  0  0  0
    3.9720   -4.1900    6.0670 H   0  0  0  0  0  0  0  0  0  0  0  0
    0.3630   -7.1150    5.6490 C   0  0  0  0  0  0  0  0  0  0  0  0
    1.3300   -7.1340    6.6600 C   0  0  0  0  0  3  0  0  0  0  0  0
    2.1980   -6.0510    6.8140 C   0  0  0  0  0  3  0  0  0  0  0  0
    2.0840   -4.9490    5.9640 C   0  0  0  0  0  0  0  0  0  0  0  0
    1.0900   -4.9120    4.9850 C   0  0  0  0  0  3  0  0  0  0  0  0
    0.2210   -5.9920    4.8290 C   0  0  0  0  0  3  0  0  0  0  0  0
    1.1000   -9.5060    3.9960 C   0  0  0  0  0  1  0  0  0  0  0  0
   -0.1700   -9.3000    4.6550 N   0  0  0  0  0  0  0  0  0  0  0  0
   -0.5330   -8.2770    5.4930 C   0  0  0  0  0  0  0  0  0  0  0  0
   -1.5850   -8.3170    6.1210 O   0  0  0  0  0  0  0  0  0  0  0  0
   -0.8670  -10.0350    4.5940 H   0  0  0  0  0  0  0  0  0  0  0  0
  1 33  1  0  0  0  0
  1  2  1  0  0  0  0
  3  2  2  0  0  0  0
  4  3  1  0  0  0  0
  5  6  1  0  0  0  0
  5  4  2  0  0  0  0
  6  1  2  0  0  0  0
  7 10  1  0  0  0  0
  7  5  1  0  0  0  0
  8  7  2  0  0  0  0
  9  7  2  0  0  0  0
 10 11  1  0  0  0  0
 11 15  1  1  0  0  0
 11 12  1  0  0  0  0
 12  4  1  0  0  0  0
 12 14  1  0  0  0  0
 13 10  1  0  0  0  0
 15 16  2  0  0  0  0
 16 17  1  0  0  0  0
 16 26  1  0  0  0  0
 17 18  2  0  0  0  0
 18 19  1  0  0  0  0
 20 19  2  0  0  0  0
 21 20  1  0  0  0  0
 22 21  2  0  0  0  0
 22 17  1  0  0  0  0
 23 28  1  0  0  0  0
 23 22  1  0  0  0  0
 24 28  1  0  0  0  0
 25 24  1  0  0  0  0
 26 27  1  0  0  0  0
 30 29  1  0  0  0  0
 31 30  1  0  0  0  0
 32 30  1  0  0  0  0
 33 34  1  0  0  0  0
 33 35  1  0  0  0  0
 35 37  2  0  0  0  0
 35 38  1  0  0  0  0
 36 35  2  0  0  0  0
 38 39  1  0  0  0  0
 40 41  1  0  0  0  0
 41 42  2  0  0  0  0
 43 38  1  0  0  0  0
 43 42  1  0  0  0  0
 44 43  2  0  0  0  0
 45 44  1  0  0  0  0
 45 40  2  0  0  0  0
 46 47  1  0  0  0  0
 47 48  1  0  0  0  0
 48 40  1  0  0  0  0
 48 49  2  0  0  0  0
 50 47  1  0  0  0  0
M  END
>  <minimizedAffinity>
-4.61857796

$$$$
