REMARK  Name = 
REMARK  6 active torsions:
REMARK  status: ('A' for Active; 'I' for Inactive)
REMARK    1  A    between atoms: C_2  and  C_4
REMARK    2  A    between atoms: C_6  and  C_7
REMARK    3  A    between atoms: C_14  and  N_15
REMARK    4  A    between atoms: N_15  and  S_16
REMARK    5  A    between atoms: S_16  and  C_19
REMARK    6  A    between atoms: C_22  and  C_23
REMARK                            x       y       z     vdW  Elec       q    Type
REMARK                         _______ _______ _______ _____ _____    ______ ____
ROOT
ATOM      1  N   UNL     1       2.754  -0.258  -3.347  0.00  0.00    -0.214 N 
ATOM      2  H   UNL     1       1.725  -0.165  -3.191  0.00  0.00    +0.174 HD
ENDROOT
BRANCH   1   7
ATOM      3  C   UNL     1       2.546  -2.151  -1.780  0.00  0.00    +0.057 A 
ATOM      4  S   UNL     1       3.492  -3.381  -1.068  0.00  0.00    -0.085 S 
ATOM      5  C   UNL     1       4.917  -2.863  -1.869  0.00  0.00    +0.022 A 
ATOM      6  C   UNL     1       4.659  -1.747  -2.644  0.00  0.00    +0.041 A 
ATOM      7  C   UNL     1       3.289  -1.345  -2.622  0.00  0.00    +0.065 A 
BRANCH   5   8
ATOM      8  C   UNL     1       6.196  -3.561  -1.664  0.00  0.00    -0.011 A 
ATOM      9  C   UNL     1       6.270  -4.961  -1.589  0.00  0.00    +0.009 A 
ATOM     10  C   UNL     1       7.498  -5.606  -1.414  0.00  0.00    +0.001 A 
ATOM     11  C   UNL     1       8.670  -4.861  -1.315  0.00  0.00    +0.000 A 
ATOM     12  C   UNL     1       8.616  -3.472  -1.391  0.00  0.00    +0.001 A 
ATOM     13  C   UNL     1       7.388  -2.827  -1.566  0.00  0.00    +0.009 A 
ENDBRANCH   5   8
BRANCH   3  15
ATOM     14  O   UNL     1       0.533  -1.014  -2.171  0.00  0.00    -0.544 OA
ATOM     15  C   UNL     1       1.087  -1.980  -1.547  0.00  0.00    +0.080 C 
ATOM     16  O   UNL     1       0.510  -2.797  -0.768  0.00  0.00    -0.544 OA
ENDBRANCH   3  15
ENDBRANCH   1   7
BRANCH   1  17
ATOM     17  S   UNL     1       3.188   0.090  -4.936  0.00  0.00    +0.090 S 
ATOM     18  O   UNL     1       2.230   1.020  -5.503  0.00  0.00    -0.148 OA
ATOM     19  O   UNL     1       4.606   0.419  -4.968  0.00  0.00    -0.148 OA
BRANCH  17  20
ATOM     20  C   UNL     1       2.995  -1.485  -5.778  0.00  0.00    +0.197 A 
ATOM     21  C   UNL     1       4.089  -2.134  -6.327  0.00  0.00    +0.050 A 
ATOM     22  C   UNL     1       3.872  -3.387  -6.895  0.00  0.00    +0.017 A 
ATOM     23  C   UNL     1       2.587  -3.948  -6.881  0.00  0.00    +0.073 A 
ATOM     24  C   UNL     1       1.559  -3.204  -6.313  0.00  0.00    +0.125 A 
ATOM     25  N   UNL     1       1.730  -1.981  -5.771  0.00  0.00    -0.235 NA
BRANCH  23  26
ATOM     26  C   UNL     1       2.293  -5.284  -7.487  0.00  0.00    +0.419 C 
ATOM     27  F   UNL     1       1.364  -6.003  -6.799  0.00  0.00    -0.166 F 
ATOM     28  F   UNL     1       1.815  -5.180  -8.759  0.00  0.00    -0.166 F 
ATOM     29  F   UNL     1       3.392  -6.087  -7.575  0.00  0.00    -0.166 F 
ENDBRANCH  23  26
ENDBRANCH  17  20
ENDBRANCH   1  17
TORSDOF 6
