
 OpenBabel09122222393D

 29 31  0  0  0  0  0  0  0  0999 V2000
    9.4680   -2.4680    0.0690 N   0  0  0  0  0  0  0  0  0  0  0  0
    8.6510   -2.6320   -0.5610 H   0  0  0  0  0  0  0  0  0  0  0  0
   11.2930   -1.4290   -1.2240 C   0  0  0  0  0  0  0  0  0  0  0  0
   11.9830    0.1030   -1.5300 S   0  0  0  0  0  0  0  0  0  0  0  0
   10.8710    0.9020   -0.4980 C   0  0  0  0  0  0  0  0  0  0  0  0
   10.0100   -0.0090    0.0860 C   0  0  0  0  0  3  0  0  0  0  0  0
   10.2260   -1.3530   -0.3480 C   0  0  0  0  0  0  0  0  0  0  0  0
   10.9330    2.3590   -0.3030 C   0  0  0  0  0  0  0  0  0  0  0  0
   12.1010    3.0910   -0.5700 C   0  0  0  0  0  3  0  0  0  0  0  0
   12.1330    4.4780   -0.3980 C   0  0  0  0  0  3  0  0  0  0  0  0
   10.9970    5.1540    0.0410 C   0  0  0  0  0  3  0  0  0  0  0  0
    9.8300    4.4440    0.3080 C   0  0  0  0  0  3  0  0  0  0  0  0
    9.7970    3.0570    0.1350 C   0  0  0  0  0  3  0  0  0  0  0  0
   12.7600   -2.5910   -2.6350 O   0  0  0  0  0  0  0  0  0  0  0  0
   11.7630   -2.6950   -1.8460 C   0  0  0  0  0  0  0  0  0  0  0  0
   11.1560   -3.7660   -1.5440 O   0  0  0  0  0  1  0  0  0  0  0  0
    9.0950   -2.7760    1.6820 S   0  0  0  0  0  0  0  0  0  0  0  0
   10.2730   -3.2850    2.3590 O   0  0  0  0  0  0  0  0  0  0  0  0
    8.4050   -1.6160    2.2280 O   0  0  0  0  0  0  0  0  0  0  0  0
    7.8930   -4.1070    1.5880 C   0  0  0  0  0  0  0  0  0  0  0  0
    8.0290   -5.1200    0.6530 C   0  0  0  0  0  3  0  0  0  0  0  0
    7.1000   -6.1580    0.6930 C   0  0  0  0  0  3  0  0  0  0  0  0
    6.0890   -6.1540    1.6640 C   0  0  0  0  0  0  0  0  0  0  0  0
    6.0390   -5.0800    2.5470 C   0  0  0  0  0  3  0  0  0  0  0  0
    6.9100   -4.0510    2.5250 N   0  0  0  0  0  0  0  0  0  0  0  0
    5.0570   -7.2340    1.7460 C   0  0  0  0  0  0  0  0  0  0  0  0
    5.5740   -8.4900    1.6610 F   0  0  0  0  0  0  0  0  0  0  0  0
    4.3630   -7.1970    2.9190 F   0  0  0  0  0  0  0  0  0  0  0  0
    4.1160   -7.1530    0.7630 F   0  0  0  0  0  0  0  0  0  0  0  0
  1 17  1  0  0  0  0
  2  1  1  0  0  0  0
  3  7  2  0  0  0  0
  4  3  1  0  0  0  0
  4  5  1  0  0  0  0
  5  8  1  0  0  0  0
  5  6  2  0  0  0  0
  7  1  1  0  0  0  0
  7  6  1  0  0  0  0
  8 13  1  0  0  0  0
  9 10  1  0  0  0  0
  9  8  2  0  0  0  0
 10 11  2  0  0  0  0
 11 12  1  0  0  0  0
 13 12  2  0  0  0  0
 14 15  2  0  0  0  0
 15 16  1  0  0  0  0
 15  3  1  0  0  0  0
 17 19  2  0  0  0  0
 17 18  2  0  0  0  0
 20 17  1  0  0  0  0
 20 25  1  0  0  0  0
 21 22  1  0  0  0  0
 21 20  2  0  0  0  0
 22 23  2  0  0  0  0
 23 26  1  0  0  0  0
 23 24  1  0  0  0  0
 25 24  2  0  0  0  0
 26 28  1  0  0  0  0
 27 26  1  0  0  0  0
 29 26  1  0  0  0  0
M  END
>  <minimizedAffinity>
-6.27130413

$$$$
