
 OpenBabel09122222393D

 29 31  0  0  0  0  0  0  0  0999 V2000
    8.6860   -5.1060    1.4040 N   0  0  0  0  0  0  0  0  0  0  0  0
    9.3290   -5.7130    1.9620 H   0  0  0  0  0  0  0  0  0  0  0  0
    7.0510   -5.7420   -0.3300 C   0  0  0  0  0  0  0  0  0  0  0  0
    5.6930   -6.7520   -0.5530 S   0  0  0  0  0  0  0  0  0  0  0  0
    5.7530   -7.3270    1.0620 C   0  0  0  0  0  0  0  0  0  0  0  0
    6.7870   -6.7230    1.7540 C   0  0  0  0  0  3  0  0  0  0  0  0
    7.5590   -5.8280    0.9520 C   0  0  0  0  0  0  0  0  0  0  0  0
    4.7700   -8.3050    1.5530 C   0  0  0  0  0  0  0  0  0  0  0  0
    5.0280   -9.1140    2.6710 C   0  0  0  0  0  3  0  0  0  0  0  0
    4.0720  -10.0230    3.1350 C   0  0  0  0  0  3  0  0  0  0  0  0
    2.8440  -10.1350    2.4890 C   0  0  0  0  0  3  0  0  0  0  0  0
    2.5690   -9.3380    1.3810 C   0  0  0  0  0  3  0  0  0  0  0  0
    3.5250   -8.4290    0.9170 C   0  0  0  0  0  3  0  0  0  0  0  0
    6.8080   -4.2300   -2.1060 O   0  0  0  0  0  0  0  0  0  0  0  0
    7.6400   -4.8890   -1.3970 C   0  0  0  0  0  0  0  0  0  0  0  0
    8.9020   -4.8710   -1.5140 O   0  0  0  0  0  1  0  0  0  0  0  0
    8.5890   -3.5450    2.0260 S   0  0  0  0  0  0  0  0  0  0  0  0
    7.2140   -3.0880    1.9640 O   0  0  0  0  0  0  0  0  0  0  0  0
    9.2960   -3.5080    3.2980 O   0  0  0  0  0  0  0  0  0  0  0  0
    9.5490   -2.5700    0.8630 C   0  0  0  0  0  0  0  0  0  0  0  0
   10.5290   -3.1610    0.0810 C   0  0  0  0  0  3  0  0  0  0  0  0
   11.1770   -2.3550   -0.8520 C   0  0  0  0  0  3  0  0  0  0  0  0
   10.8170   -1.0060   -0.9810 C   0  0  0  0  0  0  0  0  0  0  0  0
    9.8280   -0.5140   -0.1370 C   0  0  0  0  0  3  0  0  0  0  0  0
    9.1930   -1.2610    0.7890 N   0  0  0  0  0  0  0  0  0  0  0  0
   11.4870   -0.0910   -1.9560 C   0  0  0  0  0  0  0  0  0  0  0  0
   12.6660   -0.5740   -2.4370 F   0  0  0  0  0  0  0  0  0  0  0  0
   10.7130    0.1540   -3.0500 F   0  0  0  0  0  0  0  0  0  0  0  0
   11.7760    1.1350   -1.4320 F   0  0  0  0  0  0  0  0  0  0  0  0
  1  2  1  0  0  0  0
  1 17  1  0  0  0  0
  3  7  2  0  0  0  0
  4  3  1  0  0  0  0
  4  5  1  0  0  0  0
  5  8  1  0  0  0  0
  5  6  2  0  0  0  0
  7  1  1  0  0  0  0
  7  6  1  0  0  0  0
  8  9  1  0  0  0  0
  9 10  2  0  0  0  0
 11 10  1  0  0  0  0
 12 11  2  0  0  0  0
 13 12  1  0  0  0  0
 13  8  2  0  0  0  0
 14 15  2  0  0  0  0
 15  3  1  0  0  0  0
 16 15  1  0  0  0  0
 17 19  2  0  0  0  0
 18 17  2  0  0  0  0
 20 17  1  0  0  0  0
 21 20  2  0  0  0  0
 22 21  1  0  0  0  0
 23 22  2  0  0  0  0
 23 24  1  0  0  0  0
 24 25  2  0  0  0  0
 25 20  1  0  0  0  0
 26 29  1  0  0  0  0
 26 23  1  0  0  0  0
 27 26  1  0  0  0  0
 28 26  1  0  0  0  0
M  END
>  <minimizedAffinity>
-6.03227901

$$$$
