
 OpenBabel09122222393D

 29 31  0  0  0  0  0  0  0  0999 V2000
   10.0740   -2.4700   -1.0790 N   0  0  0  0  0  0  0  0  0  0  0  0
    9.0940   -2.3990   -1.4360 H   0  0  0  0  0  0  0  0  0  0  0  0
   11.9270   -1.0950   -1.9480 C   0  0  0  0  0  0  0  0  0  0  0  0
   12.4970    0.5140   -1.9230 S   0  0  0  0  0  0  0  0  0  0  0  0
   11.2010    1.0450   -0.9340 C   0  0  0  0  0  0  0  0  0  0  0  0
   10.3700   -0.0130   -0.6140 C   0  0  0  0  0  3  0  0  0  0  0  0
   10.7640   -1.2460   -1.2170 C   0  0  0  0  0  0  0  0  0  0  0  0
   11.0990    2.4510   -0.5110 C   0  0  0  0  0  0  0  0  0  0  0  0
    9.8970    2.9910   -0.0270 C   0  0  0  0  0  3  0  0  0  0  0  0
    9.8260    4.3240    0.3890 C   0  0  0  0  0  3  0  0  0  0  0  0
   10.9560    5.1350    0.3300 C   0  0  0  0  0  3  0  0  0  0  0  0
   12.1580    4.6150   -0.1440 C   0  0  0  0  0  3  0  0  0  0  0  0
   12.2280    3.2820   -0.5590 C   0  0  0  0  0  3  0  0  0  0  0  0
   12.8380   -3.2550   -2.0140 O   0  0  0  0  0  1  0  0  0  0  0  0
   12.5860   -2.2020   -2.6910 C   0  0  0  0  0  0  0  0  0  0  0  0
   12.8360   -2.0260   -3.9220 O   0  0  0  0  0  0  0  0  0  0  0  0
   10.1770   -3.4330    0.2990 S   0  0  0  0  0  0  0  0  0  0  0  0
   11.3360   -4.2990    0.1930 O   0  0  0  0  0  0  0  0  0  0  0  0
   10.0260   -2.5830    1.4710 O   0  0  0  0  0  0  0  0  0  0  0  0
    8.7070   -4.4610    0.2030 C   0  0  0  0  0  0  0  0  0  0  0  0
    8.0710   -4.8970    1.3540 C   0  0  0  0  0  3  0  0  0  0  0  0
    6.8940   -5.6250    1.1990 C   0  0  0  0  0  3  0  0  0  0  0  0
    6.3910   -5.8760   -0.0860 C   0  0  0  0  0  0  0  0  0  0  0  0
    7.1170   -5.4010   -1.1730 C   0  0  0  0  0  3  0  0  0  0  0  0
    8.2690   -4.7090   -1.0590 N   0  0  0  0  0  0  0  0  0  0  0  0
    5.1390   -6.6630   -0.3130 C   0  0  0  0  0  0  0  0  0  0  0  0
    5.2560   -7.6070   -1.2870 F   0  0  0  0  0  0  0  0  0  0  0  0
    4.7380   -7.3300    0.8050 F   0  0  0  0  0  0  0  0  0  0  0  0
    4.0760   -5.8880   -0.6760 F   0  0  0  0  0  0  0  0  0  0  0  0
  1 17  1  0  0  0  0
  2  1  1  0  0  0  0
  3  4  1  0  0  0  0
  3  7  2  0  0  0  0
  4  5  1  0  0  0  0
  5  6  2  0  0  0  0
  5  8  1  0  0  0  0
  7  1  1  0  0  0  0
  7  6  1  0  0  0  0
  8  9  1  0  0  0  0
  9 10  2  0  0  0  0
 11 10  1  0  0  0  0
 12 11  2  0  0  0  0
 13  8  2  0  0  0  0
 13 12  1  0  0  0  0
 15 14  1  0  0  0  0
 15  3  1  0  0  0  0
 16 15  2  0  0  0  0
 17 19  2  0  0  0  0
 18 17  2  0  0  0  0
 20 17  1  0  0  0  0
 20 21  1  0  0  0  0
 22 21  2  0  0  0  0
 23 22  1  0  0  0  0
 24 25  1  0  0  0  0
 24 23  2  0  0  0  0
 25 20  2  0  0  0  0
 26 23  1  0  0  0  0
 26 28  1  0  0  0  0
 27 26  1  0  0  0  0
 29 26  1  0  0  0  0
M  END
>  <minimizedAffinity>
-7.60003996

$$$$
