
 OpenBabel09122222393D

 29 31  0  0  0  0  0  0  0  0999 V2000
    9.6560   -1.8400   -0.8570 N   0  0  0  0  0  0  0  0  0  0  0  0
    8.6130   -1.7990   -0.7950 H   0  0  0  0  0  0  0  0  0  0  0  0
   11.1430   -0.0380   -1.6450 C   0  0  0  0  0  0  0  0  0  0  0  0
   11.6300    1.5440   -1.2280 S   0  0  0  0  0  0  0  0  0  0  0  0
   10.6310    1.5730    0.1650 C   0  0  0  0  0  0  0  0  0  0  0  0
    9.9630    0.3710    0.3080 C   0  0  0  0  0  3  0  0  0  0  0  0
   10.2300   -0.5550   -0.7460 C   0  0  0  0  0  0  0  0  0  0  0  0
   10.5890    2.7550    1.0410 C   0  0  0  0  0  0  0  0  0  0  0  0
   10.8730    2.6680    2.4140 C   0  0  0  0  0  3  0  0  0  0  0  0
   10.8470    3.8060    3.2250 C   0  0  0  0  0  3  0  0  0  0  0  0
   10.5410    5.0480    2.6760 C   0  0  0  0  0  3  0  0  0  0  0  0
   10.2600    5.1540    1.3160 C   0  0  0  0  0  3  0  0  0  0  0  0
   10.2860    4.0160    0.5050 C   0  0  0  0  0  3  0  0  0  0  0  0
   12.7840   -1.2890   -2.7600 O   0  0  0  0  0  1  0  0  0  0  0  0
   11.6210   -0.7680   -2.8490 C   0  0  0  0  0  0  0  0  0  0  0  0
   10.8500   -0.8270   -3.8540 O   0  0  0  0  0  0  0  0  0  0  0  0
   10.2830   -3.1980   -0.0830 S   0  0  0  0  0  0  0  0  0  0  0  0
   11.2910   -3.8090   -0.9280 O   0  0  0  0  0  0  0  0  0  0  0  0
   10.6230   -2.8350    1.2850 O   0  0  0  0  0  0  0  0  0  0  0  0
    8.8800   -4.3170    0.0030 C   0  0  0  0  0  0  0  0  0  0  0  0
    8.3970   -4.7540    1.2250 C   0  0  0  0  0  3  0  0  0  0  0  0
    7.2590   -5.5580    1.2140 C   0  0  0  0  0  3  0  0  0  0  0  0
    6.6420   -5.8790   -0.0040 C   0  0  0  0  0  0  0  0  0  0  0  0
    7.2190   -5.3950   -1.1720 C   0  0  0  0  0  3  0  0  0  0  0  0
    8.3300   -4.6300   -1.1990 N   0  0  0  0  0  0  0  0  0  0  0  0
    5.4260   -6.7480   -0.0770 C   0  0  0  0  0  0  0  0  0  0  0  0
    5.5370   -7.7670   -0.9730 F   0  0  0  0  0  0  0  0  0  0  0  0
    5.1380   -7.3340    1.1190 F   0  0  0  0  0  0  0  0  0  0  0  0
    4.3000   -6.0650   -0.4300 F   0  0  0  0  0  0  0  0  0  0  0  0
  1  2  1  0  0  0  0
  1  7  1  0  0  0  0
  1 17  1  0  0  0  0
  3  4  1  0  0  0  0
  3  7  2  0  0  0  0
  4  5  1  0  0  0  0
  5  6  2  0  0  0  0
  5  8  1  0  0  0  0
  7  6  1  0  0  0  0
  8  9  1  0  0  0  0
  9 10  2  0  0  0  0
 11 10  1  0  0  0  0
 12 11  2  0  0  0  0
 13  8  2  0  0  0  0
 13 12  1  0  0  0  0
 15 14  1  0  0  0  0
 15  3  1  0  0  0  0
 16 15  2  0  0  0  0
 17 20  1  0  0  0  0
 17 19  2  0  0  0  0
 18 17  2  0  0  0  0
 20 21  1  0  0  0  0
 22 21  2  0  0  0  0
 23 22  1  0  0  0  0
 24 23  2  0  0  0  0
 25 24  1  0  0  0  0
 25 20  2  0  0  0  0
 26 23  1  0  0  0  0
 26 28  1  0  0  0  0
 27 26  1  0  0  0  0
 29 26  1  0  0  0  0
M  END
>  <minimizedAffinity>
-7.78629303

$$$$
