REMARK  Name = 
REMARK  5 active torsions:
REMARK  status: ('A' for Active; 'I' for Inactive)
REMARK    1  A    between atoms: C_2  and  C_4
REMARK    2  A    between atoms: C_4  and  C_6
REMARK    3  A    between atoms: C_7  and  C_9
REMARK    4  A    between atoms: N_14  and  C_15
REMARK    5  A    between atoms: C_15  and  C_16
REMARK                            x       y       z     vdW  Elec       q    Type
REMARK                         _______ _______ _______ _____ _____    ______ ____
ROOT
ATOM      1  C   UNL     1       6.779  -0.349  -0.171  0.00  0.00    +0.035 A 
ATOM      2  C   UNL     1       7.548  -1.497  -0.049  0.00  0.00    +0.041 A 
ATOM      3  C   UNL     1       8.811  -1.109   0.430  0.00  0.00    +0.031 A 
ATOM      4  I   UNL     1      10.361  -2.353   0.791  0.00  0.00    -0.042 I 
ATOM      5  C   UNL     1       8.815   0.252   0.599  0.00  0.00    +0.101 A 
ATOM      6  N   UNL     1       7.559   0.717   0.249  0.00  0.00    -0.342 N 
ENDROOT
BRANCH   1   8
ATOM      7  C   UNL     1       4.511  -0.235   0.390  0.00  0.00    +0.046 C 
ATOM      8  C   UNL     1       5.426  -0.146  -0.600  0.00  0.00    -0.080 C 
ATOM      9  O   UNL     1       5.394   0.115  -1.831  0.00  0.00    -0.872 OA
BRANCH   7  10
ATOM     10  C   UNL     1       3.024  -0.023   0.354  0.00  0.00    +0.201 C 
ATOM     11  O   UNL     1       2.311  -0.032  -0.647  0.00  0.00    -0.286 OA
BRANCH  10  13
ATOM     12  O   UNL     1       1.029   0.068   1.765  0.00  0.00    -0.541 OA
ATOM     13  C   UNL     1       2.301   0.197   1.717  0.00  0.00    +0.111 C 
ATOM     14  O   UNL     1       3.041   0.485   2.723  0.00  0.00    -0.541 OA
ENDBRANCH  10  13
ENDBRANCH   7  10
ENDBRANCH   1   8
BRANCH   6  15
ATOM     15  C   UNL     1       7.173   2.125   0.239  0.00  0.00    +0.157 C 
BRANCH  15  16
ATOM     16  C   UNL     1       7.271   2.755   1.615  0.00  0.00    -0.028 A 
ATOM     17  C   UNL     1       8.350   3.589   1.950  0.00  0.00    +0.008 A 
ATOM     18  C   UNL     1       8.431   4.158   3.222  0.00  0.00    +0.038 A 
ATOM     19  C   UNL     1       7.437   3.896   4.158  0.00  0.00    +0.123 A 
ATOM     20  F   UNL     1       7.524   4.447   5.378  0.00  0.00    -0.205 F 
ATOM     21  C   UNL     1       6.361   3.075   3.847  0.00  0.00    +0.038 A 
ATOM     22  C   UNL     1       6.278   2.505   2.577  0.00  0.00    +0.008 A 
ENDBRANCH  15  16
ENDBRANCH   6  15
TORSDOF 5
