
 OpenBabel09132204463D

 22 23  0  0  0  0  0  0  0  0999 V2000
    9.2790   -3.2930    1.6580 C   0  0  0  0  0  0  0  0  0  0  0  0
    8.0450   -3.9180    1.5630 C   0  0  0  0  0  3  0  0  0  0  0  0
    8.0590   -4.7050    0.3980 C   0  0  0  0  0  0  0  0  0  0  0  0
    6.5260   -5.8370   -0.2710 I   0  0  0  0  0  0  0  0  0  0  0  0
    9.2810   -4.5650   -0.2080 C   0  0  0  0  0  3  0  0  0  0  0  0
   10.0390   -3.7130    0.5770 N   0  0  0  0  0  0  0  0  0  0  0  0
    9.3450   -1.1320    2.5500 C   0  0  0  0  0  2  0  0  0  0  0  0
    9.8230   -2.3930    2.6330 C   0  0  0  0  0  0  0  0  0  0  0  0
   10.6180   -3.0030    3.3940 O   0  0  0  0  0  0  0  0  0  0  0  0
    9.6150    0.0630    3.4190 C   0  0  0  0  0  0  0  0  0  0  0  0
    9.8070    0.0530    4.6330 O   0  0  0  0  0  0  0  0  0  0  0  0
    9.6770    1.4970    1.4390 O   0  0  0  0  0  0  0  0  0  0  0  0
    9.6940    1.4530    2.7180 C   0  0  0  0  0  0  0  0  0  0  0  0
    9.7580    2.4810    3.4800 O   0  0  0  0  0  1  0  0  0  0  0  0
   11.3890   -3.2660    0.2450 C   0  0  0  0  0  2  0  0  0  0  0  0
   11.3860   -2.1580   -0.7890 C   0  0  0  0  0  0  0  0  0  0  0  0
   10.4230   -1.1360   -0.7480 C   0  0  0  0  0  3  0  0  0  0  0  0
   10.4280   -0.1250   -1.7100 C   0  0  0  0  0  3  0  0  0  0  0  0
   11.3930   -0.1320   -2.7110 C   0  0  0  0  0  0  0  0  0  0  0  0
   11.3890    0.8440   -3.6320 F   0  0  0  0  0  0  0  0  0  0  0  0
   12.3550   -1.1320   -2.7700 C   0  0  0  0  0  3  0  0  0  0  0  0
   12.3520   -2.1440   -1.8100 C   0  0  0  0  0  3  0  0  0  0  0  0
  1  8  1  0  0  0  0
  2  1  2  0  0  0  0
  3  2  1  0  0  0  0
  4  3  1  0  0  0  0
  5  3  2  0  0  0  0
  5  6  1  0  0  0  0
  6  1  1  0  0  0  0
  7  8  1  0  0  0  0
  7 10  1  0  0  0  0
  8  9  2  0  0  0  0
 10 11  2  0  0  0  0
 12 13  2  0  0  0  0
 13 10  1  0  0  0  0
 13 14  1  0  0  0  0
 15  6  1  0  0  0  0
 16 17  1  0  0  0  0
 16 15  1  0  0  0  0
 18 17  2  0  0  0  0
 19 18  1  0  0  0  0
 20 19  1  0  0  0  0
 21 19  2  0  0  0  0
 21 22  1  0  0  0  0
 22 16  2  0  0  0  0
M  END
>  <minimizedAffinity>
-6.08554125

$$$$
