
 OpenBabel09132204463D

 22 23  0  0  0  0  0  0  0  0999 V2000
   11.5070    2.9190    1.3190 C   0  0  0  0  0  0  0  0  0  0  0  0
   12.4990    3.4170    2.1500 C   0  0  0  0  0  3  0  0  0  0  0  0
   12.1060    3.1610    3.4750 C   0  0  0  0  0  0  0  0  0  0  0  0
   13.1480    3.6740    5.1270 I   0  0  0  0  0  0  0  0  0  0  0  0
   10.8950    2.5180    3.4550 C   0  0  0  0  0  3  0  0  0  0  0  0
   10.5360    2.3500    2.1290 N   0  0  0  0  0  0  0  0  0  0  0  0
   12.1770    1.9890   -0.7200 C   0  0  0  0  0  2  0  0  0  0  0  0
   11.3800    2.8930   -0.1090 C   0  0  0  0  0  0  0  0  0  0  0  0
   10.5040    3.7150   -0.4840 O   0  0  0  0  0  0  0  0  0  0  0  0
   12.2840    1.6210   -2.1730 C   0  0  0  0  0  0  0  0  0  0  0  0
   12.6530    2.3570   -3.0850 O   0  0  0  0  0  0  0  0  0  0  0  0
   10.7990   -0.0720   -3.1280 O   0  0  0  0  0  0  0  0  0  0  0  0
   11.9270    0.1560   -2.5670 C   0  0  0  0  0  0  0  0  0  0  0  0
   12.8050   -0.7410   -2.3110 O   0  0  0  0  0  1  0  0  0  0  0  0
    9.2810    1.7530    1.6820 C   0  0  0  0  0  2  0  0  0  0  0  0
    9.3960    0.2530    1.4930 C   0  0  0  0  0  0  0  0  0  0  0  0
    9.1890   -0.6260    2.5690 C   0  0  0  0  0  3  0  0  0  0  0  0
    9.3040   -2.0050    2.3830 C   0  0  0  0  0  3  0  0  0  0  0  0
    9.6240   -2.5060    1.1270 C   0  0  0  0  0  0  0  0  0  0  0  0
    9.7330   -3.8320    0.9590 F   0  0  0  0  0  0  0  0  0  0  0  0
    9.8330   -1.6550    0.0500 C   0  0  0  0  0  3  0  0  0  0  0  0
    9.7190   -0.2770    0.2330 C   0  0  0  0  0  3  0  0  0  0  0  0
  1  6  1  0  0  0  0
  1  2  2  0  0  0  0
  2  3  1  0  0  0  0
  3  4  1  0  0  0  0
  5  3  2  0  0  0  0
  6  5  1  0  0  0  0
  7  8  1  0  0  0  0
  8  1  1  0  0  0  0
  9  8  2  0  0  0  0
 10  7  1  0  0  0  0
 11 10  2  0  0  0  0
 12 13  2  0  0  0  0
 13 14  1  0  0  0  0
 13 10  1  0  0  0  0
 15  6  1  0  0  0  0
 16 15  1  0  0  0  0
 16 17  1  0  0  0  0
 18 17  2  0  0  0  0
 19 18  1  0  0  0  0
 20 19  1  0  0  0  0
 21 22  1  0  0  0  0
 21 19  2  0  0  0  0
 22 16  2  0  0  0  0
M  END
>  <minimizedAffinity>
-5.96442604

$$$$
