
 OpenBabel09132204463D

 22 23  0  0  0  0  0  0  0  0999 V2000
    8.4400   -2.8650    3.4400 C   0  0  0  0  0  0  0  0  0  0  0  0
    8.8940   -2.7750    4.7470 C   0  0  0  0  0  3  0  0  0  0  0  0
    9.7720   -1.6790    4.8140 C   0  0  0  0  0  0  0  0  0  0  0  0
   10.7580   -1.0650    6.4660 I   0  0  0  0  0  0  0  0  0  0  0  0
    9.8530   -1.1080    3.5690 C   0  0  0  0  0  3  0  0  0  0  0  0
    9.0180   -1.8250    2.7290 N   0  0  0  0  0  0  0  0  0  0  0  0
    8.0420   -4.4030    1.7230 C   0  0  0  0  0  2  0  0  0  0  0  0
    7.5310   -3.7740    2.8040 C   0  0  0  0  0  0  0  0  0  0  0  0
    6.4420   -3.8130    3.4350 O   0  0  0  0  0  0  0  0  0  0  0  0
    7.4350   -5.4590    0.8430 C   0  0  0  0  0  0  0  0  0  0  0  0
    6.8100   -6.4490    1.2180 O   0  0  0  0  0  0  0  0  0  0  0  0
    8.6310   -4.7070   -1.1530 O   0  0  0  0  0  1  0  0  0  0  0  0
    7.5770   -5.2720   -0.6970 C   0  0  0  0  0  0  0  0  0  0  0  0
    6.6190   -5.7170   -1.4240 O   0  0  0  0  0  0  0  0  0  0  0  0
    8.8630   -1.5650    1.3010 C   0  0  0  0  0  2  0  0  0  0  0  0
   10.0700   -2.0210    0.5030 C   0  0  0  0  0  0  0  0  0  0  0  0
   10.8870   -3.0650    0.9660 C   0  0  0  0  0  3  0  0  0  0  0  0
   11.9980   -3.4710    0.2240 C   0  0  0  0  0  3  0  0  0  0  0  0
   12.2930   -2.8350   -0.9770 C   0  0  0  0  0  0  0  0  0  0  0  0
   13.3640   -3.2320   -1.6820 F   0  0  0  0  0  0  0  0  0  0  0  0
   11.4980   -1.8010   -1.4530 C   0  0  0  0  0  3  0  0  0  0  0  0
   10.3880   -1.3940   -0.7140 C   0  0  0  0  0  3  0  0  0  0  0  0
  1  2  2  0  0  0  0
  2  3  1  0  0  0  0
  3  4  1  0  0  0  0
  5  3  2  0  0  0  0
  6  1  1  0  0  0  0
  6  5  1  0  0  0  0
  7  8  1  0  0  0  0
  8  9  2  0  0  0  0
  8  1  1  0  0  0  0
 10 11  2  0  0  0  0
 10  7  1  0  0  0  0
 12 13  1  0  0  0  0
 13 10  1  0  0  0  0
 14 13  2  0  0  0  0
 15  6  1  0  0  0  0
 16 17  1  0  0  0  0
 16 15  1  0  0  0  0
 18 17  2  0  0  0  0
 19 18  1  0  0  0  0
 20 19  1  0  0  0  0
 21 19  2  0  0  0  0
 21 22  1  0  0  0  0
 22 16  2  0  0  0  0
M  END
>  <minimizedAffinity>
-6.0069766

$$$$
