REMARK  Name = 
REMARK  8 active torsions:
REMARK  status: ('A' for Active; 'I' for Inactive)
REMARK    1  A    between atoms: C_2  and  C_3
REMARK    2  A    between atoms: C_3  and  C_4
REMARK    3  A    between atoms: C_4  and  C_5
REMARK    4  A    between atoms: C_5  and  C_6
REMARK    5  A    between atoms: C_6  and  N_7
REMARK    6  A    between atoms: C_11  and  C_12
REMARK    7  A    between atoms: C_14  and  C_15
REMARK    8  A    between atoms: C_15  and  C_17
REMARK                            x       y       z     vdW  Elec       q    Type
REMARK                         _______ _______ _______ _____ _____    ______ ____
ROOT
ATOM      1  N   UNL     1       5.880  -1.565   2.480  0.00  0.00    -0.348 N 
ATOM      2  C   UNL     1       6.954  -0.701   2.489  0.00  0.00    +0.086 A 
ATOM      3  C   UNL     1       8.084  -1.407   2.146  0.00  0.00    +0.020 A 
ATOM      4  C   UNL     1       7.699  -2.755   1.990  0.00  0.00    +0.026 A 
ATOM      5  C   UNL     1       6.338  -2.858   2.247  0.00  0.00    +0.034 A 
ENDROOT
BRANCH   5   6
ATOM      6  C   UNL     1       5.469  -4.011   2.277  0.00  0.00    -0.080 C 
ATOM      7  O   UNL     1       4.936  -4.146   3.412  0.00  0.00    -0.872 OA
ATOM      8  C   UNL     1       5.449  -4.737   1.137  0.00  0.00    +0.046 C 
BRANCH   8   9
ATOM      9  C   UNL     1       4.713  -6.015   0.824  0.00  0.00    +0.201 C 
ATOM     10  O   UNL     1       3.861  -6.553   1.527  0.00  0.00    -0.286 OA
BRANCH   9  11
ATOM     11  C   UNL     1       5.023  -6.721  -0.534  0.00  0.00    +0.111 C 
ATOM     12  O   UNL     1       5.762  -6.085  -1.366  0.00  0.00    -0.541 OA
ATOM     13  O   UNL     1       4.528  -7.882  -0.750  0.00  0.00    -0.541 OA
ENDBRANCH   9  11
ENDBRANCH   8   9
ENDBRANCH   5   6
BRANCH   1  14
ATOM     14  C   UNL     1       4.490  -1.210   2.730  0.00  0.00    +0.122 C 
BRANCH  14  15
ATOM     15  C   UNL     1       4.076   0.257   2.527  0.00  0.00    +0.022 C 
BRANCH  15  16
ATOM     16  C   UNL     1       4.307   0.858   1.133  0.00  0.00    +0.016 C 
BRANCH  16  17
ATOM     17  C   UNL     1       3.725   0.074  -0.036  0.00  0.00    +0.118 C 
BRANCH  17  19
ATOM     18  N   UNL     1       0.944   0.074  -0.036  0.00  0.00    -0.197 NA
ATOM     19  C   UNL     1       2.205   0.074  -0.036  0.00  0.00    +0.063 C 
ENDBRANCH  17  19
ENDBRANCH  16  17
ENDBRANCH  15  16
ENDBRANCH  14  15
ENDBRANCH   1  14
TORSDOF 8
