
 OpenBabel09132204463D

 19 19  0  0  0  0  0  0  0  0999 V2000
    5.3370   -5.9800    1.2740 N   0  0  0  0  0  0  0  0  0  0  0  0
    4.1390   -6.4720    0.8010 C   0  0  0  0  0  3  0  0  0  0  0  0
    4.3830   -7.1810   -0.3520 C   0  0  0  0  0  3  0  0  0  0  0  0
    5.7610   -7.0600   -0.6280 C   0  0  0  0  0  3  0  0  0  0  0  0
    6.3420   -6.2720    0.3570 C   0  0  0  0  0  0  0  0  0  0  0  0
    7.6990   -5.8030    0.5110 C   0  0  0  0  0  0  0  0  0  0  0  0
    8.3190   -6.4880    1.3700 O   0  0  0  0  0  0  0  0  0  0  0  0
    8.0100   -4.7120   -0.2230 C   0  0  0  0  0  2  0  0  0  0  0  0
    9.2940   -3.9240   -0.2780 C   0  0  0  0  0  0  0  0  0  0  0  0
   10.2170   -4.0930   -1.0710 O   0  0  0  0  0  0  0  0  0  0  0  0
    9.4750   -2.7540    0.7410 C   0  0  0  0  0  0  0  0  0  0  0  0
    9.2010   -3.0020    1.9680 O   0  0  0  0  0  1  0  0  0  0  0  0
    9.8770   -1.6180    0.3070 O   0  0  0  0  0  0  0  0  0  0  0  0
    5.5290   -5.2240    2.5030 C   0  0  0  0  0  2  0  0  0  0  0  0
    4.3330   -5.0920    3.4600 C   0  0  0  0  0  2  0  0  0  0  0  0
    3.6960   -3.7010    3.5900 C   0  0  0  0  0  2  0  0  0  0  0  0
    3.7420   -3.0730    4.9770 C   0  0  0  0  0  2  0  0  0  0  0  0
    6.1000   -3.6570    6.3300 N   0  0  0  0  0  1  0  0  0  0  0  0
    5.0310   -3.3920    5.7160 C   0  0  0  0  0  2  0  0  0  0  0  0
  1 14  1  0  0  0  0
  2  1  1  0  0  0  0
  3  2  2  0  0  0  0
  4  3  1  0  0  0  0
  4  5  2  0  0  0  0
  5  6  1  0  0  0  0
  5  1  1  0  0  0  0
  6  7  2  0  0  0  0
  8  6  1  0  0  0  0
  9  8  1  0  0  0  0
  9 11  1  0  0  0  0
 10  9  2  0  0  0  0
 11 12  1  0  0  0  0
 13 11  2  0  0  0  0
 14 15  1  0  0  0  0
 15 16  1  0  0  0  0
 16 17  1  0  0  0  0
 17 19  1  0  0  0  0
 19 18  1  0  0  0  0
M  END
>  <minimizedAffinity>
-5.25074673

$$$$
