
 OpenBabel09132204463D

 19 19  0  0  0  0  0  0  0  0999 V2000
    9.0790   -3.7630    0.6770 N   0  0  0  0  0  0  0  0  0  0  0  0
    9.5210   -3.9910   -0.6090 C   0  0  0  0  0  3  0  0  0  0  0  0
   10.5880   -3.1590   -0.8570 C   0  0  0  0  0  3  0  0  0  0  0  0
   10.7580   -2.3510    0.2870 C   0  0  0  0  0  3  0  0  0  0  0  0
    9.7880   -2.6950    1.2190 C   0  0  0  0  0  0  0  0  0  0  0  0
    9.4930   -2.1420    2.5200 C   0  0  0  0  0  0  0  0  0  0  0  0
    8.7510   -1.1270    2.4220 O   0  0  0  0  0  0  0  0  0  0  0  0
   10.1040   -2.7630    3.5530 C   0  0  0  0  0  2  0  0  0  0  0  0
   10.0760   -2.4350    5.0240 C   0  0  0  0  0  0  0  0  0  0  0  0
   11.0530   -2.2880    5.7550 O   0  0  0  0  0  0  0  0  0  0  0  0
    8.6820   -2.2240    5.6970 C   0  0  0  0  0  0  0  0  0  0  0  0
    8.4640   -1.0840    6.2400 O   0  0  0  0  0  1  0  0  0  0  0  0
    7.8390   -3.1880    5.6790 O   0  0  0  0  0  0  0  0  0  0  0  0
    8.0060   -4.4750    1.3560 C   0  0  0  0  0  2  0  0  0  0  0  0
    7.6470   -5.8830    0.8520 C   0  0  0  0  0  2  0  0  0  0  0  0
    6.2620   -6.0610    0.2130 C   0  0  0  0  0  2  0  0  0  0  0  0
    5.5440   -7.3660    0.5310 C   0  0  0  0  0  2  0  0  0  0  0  0
    6.0280   -8.2400    3.1270 N   0  0  0  0  0  1  0  0  0  0  0  0
    5.8090   -7.8440    1.9500 C   0  0  0  0  0  2  0  0  0  0  0  0
  1  5  1  0  0  0  0
  1 14  1  0  0  0  0
  2  1  1  0  0  0  0
  3  2  2  0  0  0  0
  3  4  1  0  0  0  0
  4  5  2  0  0  0  0
  5  6  1  0  0  0  0
  6  8  1  0  0  0  0
  7  6  2  0  0  0  0
  8  9  1  0  0  0  0
  9 11  1  0  0  0  0
  9 10  2  0  0  0  0
 11 12  1  0  0  0  0
 13 11  2  0  0  0  0
 15 14  1  0  0  0  0
 16 17  1  0  0  0  0
 16 15  1  0  0  0  0
 17 19  1  0  0  0  0
 19 18  1  0  0  0  0
M  END
>  <minimizedAffinity>
-5.35386086

$$$$
