
 OpenBabel09132204463D

 19 19  0  0  0  0  0  0  0  0999 V2000
    5.0900   -6.2040    2.5810 N   0  0  0  0  0  0  0  0  0  0  0  0
    4.6620   -7.2320    3.3940 C   0  0  0  0  0  3  0  0  0  0  0  0
    5.2990   -8.3880    3.0060 C   0  0  0  0  0  3  0  0  0  0  0  0
    6.0870   -8.0690    1.8810 C   0  0  0  0  0  3  0  0  0  0  0  0
    5.9160   -6.7220    1.5890 C   0  0  0  0  0  0  0  0  0  0  0  0
    6.4490   -5.9150    0.5160 C   0  0  0  0  0  0  0  0  0  0  0  0
    5.6350   -5.8460   -0.4450 O   0  0  0  0  0  0  0  0  0  0  0  0
    7.7050   -5.4590    0.7180 C   0  0  0  0  0  2  0  0  0  0  0  0
    8.5900   -4.6450   -0.1910 C   0  0  0  0  0  0  0  0  0  0  0  0
    8.6530   -4.7350   -1.4140 O   0  0  0  0  0  0  0  0  0  0  0  0
    9.4960   -3.5530    0.4610 C   0  0  0  0  0  0  0  0  0  0  0  0
   10.7320   -3.5410    0.1190 O   0  0  0  0  0  0  0  0  0  0  0  0
    8.9710   -2.7370    1.2970 O   0  0  0  0  0  1  0  0  0  0  0  0
    4.7040   -4.8040    2.6920 C   0  0  0  0  0  2  0  0  0  0  0  0
    3.5080   -4.4580    3.5950 C   0  0  0  0  0  2  0  0  0  0  0  0
    3.4580   -3.0340    4.1660 C   0  0  0  0  0  2  0  0  0  0  0  0
    2.0930   -2.5550    4.6430 C   0  0  0  0  0  2  0  0  0  0  0  0
    2.2440   -1.1030    7.0100 N   0  0  0  0  0  1  0  0  0  0  0  0
    2.1760   -1.7610    5.9370 C   0  0  0  0  0  2  0  0  0  0  0  0
  1 14  1  0  0  0  0
  1  2  1  0  0  0  0
  3  2  2  0  0  0  0
  4  3  1  0  0  0  0
  5  4  2  0  0  0  0
  5  1  1  0  0  0  0
  6  8  1  0  0  0  0
  6  5  1  0  0  0  0
  7  6  2  0  0  0  0
  9 11  1  0  0  0  0
  9  8  1  0  0  0  0
 10  9  2  0  0  0  0
 11 13  1  0  0  0  0
 12 11  2  0  0  0  0
 14 15  1  0  0  0  0
 15 16  1  0  0  0  0
 16 17  1  0  0  0  0
 17 19  1  0  0  0  0
 19 18  1  0  0  0  0
M  END
>  <minimizedAffinity>
-5.63695478

$$$$
