
 OpenBabel09122223333D

 19 19  0  0  0  0  0  0  0  0999 V2000
    3.5770   -8.2110    1.0790 N   0  0  0  0  0  0  0  0  0  0  0  0
    2.7380   -9.2890    0.8960 C   0  0  0  0  0  3  0  0  0  0  0  0
    2.5310   -9.8920    2.1150 C   0  0  0  0  0  3  0  0  0  0  0  0
    3.3220   -9.2020    3.0580 C   0  0  0  0  0  3  0  0  0  0  0  0
    4.0080   -8.1890    2.4020 C   0  0  0  0  0  0  0  0  0  0  0  0
    4.9790   -7.2380    2.8910 C   0  0  0  0  0  0  0  0  0  0  0  0
    6.1220   -7.7640    2.9800 O   0  0  0  0  0  0  0  0  0  0  0  0
    4.4750   -6.0250    3.2110 C   0  0  0  0  0  2  0  0  0  0  0  0
    5.1670   -4.8200    3.7930 C   0  0  0  0  0  0  0  0  0  0  0  0
    6.0910   -4.1940    3.2790 O   0  0  0  0  0  0  0  0  0  0  0  0
    4.6540   -4.2760    5.1640 C   0  0  0  0  0  0  0  0  0  0  0  0
    4.9160   -4.9780    6.2040 O   0  0  0  0  0  1  0  0  0  0  0  0
    4.0030   -3.1740    5.1830 O   0  0  0  0  0  0  0  0  0  0  0  0
    4.0010   -7.2680    0.0530 C   0  0  0  0  0  2  0  0  0  0  0  0
    5.4470   -7.3690   -0.4610 C   0  0  0  0  0  2  0  0  0  0  0  0
    6.1820   -6.0490   -0.7310 C   0  0  0  0  0  2  0  0  0  0  0  0
    7.2390   -5.6520    0.2930 C   0  0  0  0  0  2  0  0  0  0  0  0
    9.3250   -4.2040   -0.8400 N   0  0  0  0  0  1  0  0  0  0  0  0
    8.3790   -4.8610   -0.3260 C   0  0  0  0  0  2  0  0  0  0  0  0
  1  5  1  0  0  0  0
  2  1  1  0  0  0  0
  2  3  2  0  0  0  0
  3  4  1  0  0  0  0
  5  6  1  0  0  0  0
  5  4  2  0  0  0  0
  6  7  2  0  0  0  0
  6  8  1  0  0  0  0
  8  9  1  0  0  0  0
  9 11  1  0  0  0  0
 10  9  2  0  0  0  0
 11 13  2  0  0  0  0
 11 12  1  0  0  0  0
 14  1  1  0  0  0  0
 15 14  1  0  0  0  0
 16 15  1  0  0  0  0
 16 17  1  0  0  0  0
 18 19  1  0  0  0  0
 19 17  1  0  0  0  0
M  END
>  <minimizedAffinity>
-5.87512922

$$$$

 OpenBabel09122223333D

 19 19  0  0  0  0  0  0  0  0999 V2000
    5.0900   -6.2040    2.5810 N   0  0  0  0  0  0  0  0  0  0  0  0
    4.6620   -7.2320    3.3940 C   0  0  0  0  0  3  0  0  0  0  0  0
    5.2990   -8.3880    3.0060 C   0  0  0  0  0  3  0  0  0  0  0  0
    6.0870   -8.0690    1.8810 C   0  0  0  0  0  3  0  0  0  0  0  0
    5.9160   -6.7220    1.5890 C   0  0  0  0  0  0  0  0  0  0  0  0
    6.4490   -5.9150    0.5160 C   0  0  0  0  0  0  0  0  0  0  0  0
    5.6350   -5.8460   -0.4450 O   0  0  0  0  0  0  0  0  0  0  0  0
    7.7050   -5.4590    0.7180 C   0  0  0  0  0  2  0  0  0  0  0  0
    8.5900   -4.6450   -0.1910 C   0  0  0  0  0  0  0  0  0  0  0  0
    8.6530   -4.7350   -1.4140 O   0  0  0  0  0  0  0  0  0  0  0  0
    9.4960   -3.5530    0.4610 C   0  0  0  0  0  0  0  0  0  0  0  0
   10.7320   -3.5410    0.1190 O   0  0  0  0  0  0  0  0  0  0  0  0
    8.9710   -2.7370    1.2970 O   0  0  0  0  0  1  0  0  0  0  0  0
    4.7040   -4.8040    2.6920 C   0  0  0  0  0  2  0  0  0  0  0  0
    3.5080   -4.4580    3.5950 C   0  0  0  0  0  2  0  0  0  0  0  0
    3.4580   -3.0340    4.1660 C   0  0  0  0  0  2  0  0  0  0  0  0
    2.0930   -2.5550    4.6430 C   0  0  0  0  0  2  0  0  0  0  0  0
    2.2440   -1.1030    7.0100 N   0  0  0  0  0  1  0  0  0  0  0  0
    2.1760   -1.7610    5.9370 C   0  0  0  0  0  2  0  0  0  0  0  0
  1 14  1  0  0  0  0
  1  2  1  0  0  0  0
  3  2  2  0  0  0  0
  4  3  1  0  0  0  0
  5  4  2  0  0  0  0
  5  1  1  0  0  0  0
  6  8  1  0  0  0  0
  6  5  1  0  0  0  0
  7  6  2  0  0  0  0
  9 11  1  0  0  0  0
  9  8  1  0  0  0  0
 10  9  2  0  0  0  0
 11 13  1  0  0  0  0
 12 11  2  0  0  0  0
 14 15  1  0  0  0  0
 15 16  1  0  0  0  0
 16 17  1  0  0  0  0
 17 19  1  0  0  0  0
 19 18  1  0  0  0  0
M  END
>  <minimizedAffinity>
-5.63695478

$$$$

 OpenBabel09122223333D

 19 19  0  0  0  0  0  0  0  0999 V2000
    6.3140   -6.0180    0.6240 N   0  0  0  0  0  0  0  0  0  0  0  0
    6.1430   -6.5990   -0.6140 C   0  0  0  0  0  3  0  0  0  0  0  0
    4.8590   -7.0870   -0.6930 C   0  0  0  0  0  3  0  0  0  0  0  0
    4.2510   -6.8580    0.5590 C   0  0  0  0  0  3  0  0  0  0  0  0
    5.1750   -6.2380    1.3910 C   0  0  0  0  0  0  0  0  0  0  0  0
    5.0770   -5.8410    2.7760 C   0  0  0  0  0  0  0  0  0  0  0  0
    5.3000   -6.8170    3.5430 O   0  0  0  0  0  0  0  0  0  0  0  0
    4.7120   -4.5550    2.9740 C   0  0  0  0  0  2  0  0  0  0  0  0
    4.4600   -3.8140    4.2620 C   0  0  0  0  0  0  0  0  0  0  0  0
    3.5320   -3.0400    4.4860 O   0  0  0  0  0  0  0  0  0  0  0  0
    5.4410   -4.0650    5.4510 C   0  0  0  0  0  0  0  0  0  0  0  0
    5.0180   -4.8030    6.4100 O   0  0  0  0  0  1  0  0  0  0  0  0
    6.6030   -3.5270    5.4140 O   0  0  0  0  0  0  0  0  0  0  0  0
    7.5100   -5.3320    1.0930 C   0  0  0  0  0  2  0  0  0  0  0  0
    8.5250   -4.8570    0.0400 C   0  0  0  0  0  2  0  0  0  0  0  0
    9.3030   -3.5710    0.3540 C   0  0  0  0  0  2  0  0  0  0  0  0
   10.7320   -3.5110   -0.1680 C   0  0  0  0  0  2  0  0  0  0  0  0
   11.0810   -1.5270   -2.0860 N   0  0  0  0  0  1  0  0  0  0  0  0
   10.9230   -2.4270   -1.2160 C   0  0  0  0  0  2  0  0  0  0  0  0
  1 14  1  0  0  0  0
  1  5  1  0  0  0  0
  2  1  1  0  0  0  0
  3  2  2  0  0  0  0
  3  4  1  0  0  0  0
  4  5  2  0  0  0  0
  5  6  1  0  0  0  0
  6  8  1  0  0  0  0
  6  7  2  0  0  0  0
  8  9  1  0  0  0  0
  9 10  2  0  0  0  0
  9 11  1  0  0  0  0
 11 12  1  0  0  0  0
 13 11  2  0  0  0  0
 15 16  1  0  0  0  0
 15 14  1  0  0  0  0
 17 16  1  0  0  0  0
 18 19  1  0  0  0  0
 19 17  1  0  0  0  0
M  END
>  <minimizedAffinity>
-5.63116503

$$$$

 OpenBabel09122223333D

 19 19  0  0  0  0  0  0  0  0999 V2000
    3.4460   -5.2780    4.6410 N   0  0  0  0  0  0  0  0  0  0  0  0
    2.5470   -4.5400    5.3810 C   0  0  0  0  0  3  0  0  0  0  0  0
    2.4520   -3.2850    4.8260 C   0  0  0  0  0  3  0  0  0  0  0  0
    3.3710   -3.2340    3.7570 C   0  0  0  0  0  3  0  0  0  0  0  0
    4.0230   -4.4580    3.6770 C   0  0  0  0  0  0  0  0  0  0  0  0
    5.0820   -4.9070    2.8030 C   0  0  0  0  0  0  0  0  0  0  0  0
    6.2120   -4.5790    3.2570 O   0  0  0  0  0  0  0  0  0  0  0  0
    4.6640   -5.5140    1.6700 C   0  0  0  0  0  2  0  0  0  0  0  0
    5.4700   -6.0560    0.5170 C   0  0  0  0  0  0  0  0  0  0  0  0
    6.6270   -5.7550    0.2350 O   0  0  0  0  0  0  0  0  0  0  0  0
    4.8000   -7.1270   -0.4010 C   0  0  0  0  0  0  0  0  0  0  0  0
    5.5580   -7.7320   -1.2390 O   0  0  0  0  0  0  0  0  0  0  0  0
    3.5440   -7.3440   -0.2770 O   0  0  0  0  0  1  0  0  0  0  0  0
    3.7920   -6.6760    4.8570 C   0  0  0  0  0  2  0  0  0  0  0  0
    2.9180   -7.7450    4.1800 C   0  0  0  0  0  2  0  0  0  0  0  0
    3.5940   -8.6260    3.1200 C   0  0  0  0  0  2  0  0  0  0  0  0
    4.8220   -9.4010    3.5800 C   0  0  0  0  0  2  0  0  0  0  0  0
    7.1730   -8.4360    2.4530 N   0  0  0  0  0  1  0  0  0  0  0  0
    6.1070   -8.8740    2.9640 C   0  0  0  0  0  2  0  0  0  0  0  0
  1 14  1  0  0  0  0
  1  2  1  0  0  0  0
  3  2  2  0  0  0  0
  4  3  1  0  0  0  0
  5  4  2  0  0  0  0
  5  1  1  0  0  0  0
  6  7  2  0  0  0  0
  6  5  1  0  0  0  0
  8  6  1  0  0  0  0
  9  8  1  0  0  0  0
 10  9  2  0  0  0  0
 11 13  1  0  0  0  0
 11  9  1  0  0  0  0
 12 11  2  0  0  0  0
 15 14  1  0  0  0  0
 16 17  1  0  0  0  0
 16 15  1  0  0  0  0
 18 19  1  0  0  0  0
 19 17  1  0  0  0  0
M  END
>  <minimizedAffinity>
-5.44270372

$$$$

 OpenBabel09122223333D

 19 19  0  0  0  0  0  0  0  0999 V2000
    3.9430   -8.2720    2.7390 N   0  0  0  0  0  0  0  0  0  0  0  0
    2.7940   -8.9060    2.3180 C   0  0  0  0  0  3  0  0  0  0  0  0
    3.0120   -9.4140    1.0580 C   0  0  0  0  0  3  0  0  0  0  0  0
    4.3100   -9.0180    0.6710 C   0  0  0  0  0  3  0  0  0  0  0  0
    4.8670   -8.2660    1.6980 C   0  0  0  0  0  0  0  0  0  0  0  0
    6.1380   -7.5870    1.7860 C   0  0  0  0  0  0  0  0  0  0  0  0
    6.9630   -8.2580    2.4640 O   0  0  0  0  0  0  0  0  0  0  0  0
    6.1740   -6.3700    1.1990 C   0  0  0  0  0  2  0  0  0  0  0  0
    7.2960   -5.3650    1.1380 C   0  0  0  0  0  0  0  0  0  0  0  0
    7.7470   -4.7230    2.0830 O   0  0  0  0  0  0  0  0  0  0  0  0
    7.9870   -5.1270   -0.2420 C   0  0  0  0  0  0  0  0  0  0  0  0
    9.2500   -4.9050   -0.2300 O   0  0  0  0  0  1  0  0  0  0  0  0
    7.2700   -5.1590   -1.3020 O   0  0  0  0  0  0  0  0  0  0  0  0
    4.1550   -7.6500    4.0380 C   0  0  0  0  0  2  0  0  0  0  0  0
    3.6310   -6.2190    4.2430 C   0  0  0  0  0  2  0  0  0  0  0  0
    4.6700   -5.0880    4.2210 C   0  0  0  0  0  2  0  0  0  0  0  0
    4.2780   -3.8370    3.4460 C   0  0  0  0  0  2  0  0  0  0  0  0
    2.1010   -2.5250    4.5760 N   0  0  0  0  0  1  0  0  0  0  0  0
    3.0880   -3.1200    4.0640 C   0  0  0  0  0  2  0  0  0  0  0  0
  1 14  1  0  0  0  0
  2  1  1  0  0  0  0
  3  2  2  0  0  0  0
  4  3  1  0  0  0  0
  4  5  2  0  0  0  0
  5  6  1  0  0  0  0
  5  1  1  0  0  0  0
  6  7  2  0  0  0  0
  8  6  1  0  0  0  0
  9  8  1  0  0  0  0
  9 10  2  0  0  0  0
 11 12  1  0  0  0  0
 11  9  1  0  0  0  0
 13 11  2  0  0  0  0
 14 15  1  0  0  0  0
 16 15  1  0  0  0  0
 17 19  1  0  0  0  0
 17 16  1  0  0  0  0
 19 18  1  0  0  0  0
M  END
>  <minimizedAffinity>
-5.44041872

$$$$

 OpenBabel09122223333D

 19 19  0  0  0  0  0  0  0  0999 V2000
    6.2470   -6.0890    0.6330 N   0  0  0  0  0  0  0  0  0  0  0  0
    6.0320   -6.4440   -0.6820 C   0  0  0  0  0  3  0  0  0  0  0  0
    4.8160   -7.0830   -0.7670 C   0  0  0  0  0  3  0  0  0  0  0  0
    4.3070   -7.1820    0.5440 C   0  0  0  0  0  3  0  0  0  0  0  0
    5.2210   -6.6070    1.4170 C   0  0  0  0  0  0  0  0  0  0  0  0
    5.2080   -6.4960    2.8570 C   0  0  0  0  0  0  0  0  0  0  0  0
    5.6600   -7.5430    3.3960 O   0  0  0  0  0  0  0  0  0  0  0  0
    4.6690   -5.3520    3.3340 C   0  0  0  0  0  2  0  0  0  0  0  0
    4.4410   -4.9180    4.7590 C   0  0  0  0  0  0  0  0  0  0  0  0
    5.2860   -4.8770    5.6500 O   0  0  0  0  0  0  0  0  0  0  0  0
    3.0080   -4.4380    5.1550 C   0  0  0  0  0  0  0  0  0  0  0  0
    2.6350   -4.6500    6.3620 O   0  0  0  0  0  1  0  0  0  0  0  0
    2.2840   -3.8680    4.2660 O   0  0  0  0  0  0  0  0  0  0  0  0
    7.3880   -5.3430    1.1450 C   0  0  0  0  0  2  0  0  0  0  0  0
    8.4890   -4.9420    0.1500 C   0  0  0  0  0  3  0  0  0  0  0  0
    9.1830   -3.5930    0.3880 C   0  0  0  0  0  3  0  0  0  0  0  0
    8.9620   -2.9620    1.7560 C   0  0  0  0  0  2  0  0  0  0  0  0
    8.9630   -0.1830    1.6570 N   0  0  0  0  0  1  0  0  0  0  0  0
    8.9630   -1.4430    1.7020 C   0  0  0  0  0  2  0  0  0  0  0  0
  1 14  1  0  0  0  0
  1  5  1  0  0  0  0
  2  1  1  0  0  0  0
  3  2  2  0  0  0  0
  3  4  1  0  0  0  0
  4  5  2  0  0  0  0
  5  6  1  0  0  0  0
  6  8  1  0  0  0  0
  6  7  2  0  0  0  0
  8  9  1  0  0  0  0
  9 11  1  0  0  0  0
  9 10  2  0  0  0  0
 11 12  1  0  0  0  0
 13 11  2  0  0  0  0
 15 16  2  0  0  0  0
 15 14  1  0  0  0  0
 16 17  1  0  0  0  0
 18 19  1  0  0  0  0
 19 17  1  0  0  0  0
M  END
>  <minimizedAffinity>
-5.42594481

$$$$

 OpenBabel09122223333D

 19 19  0  0  0  0  0  0  0  0999 V2000
    4.3470   -6.8860    2.0810 N   0  0  0  0  0  0  0  0  0  0  0  0
    4.3070   -8.1880    1.6300 C   0  0  0  0  0  3  0  0  0  0  0  0
    3.9250   -8.9990    2.6730 C   0  0  0  0  0  3  0  0  0  0  0  0
    3.7950   -8.1770    3.8120 C   0  0  0  0  0  3  0  0  0  0  0  0
    4.1060   -6.8720    3.4510 C   0  0  0  0  0  0  0  0  0  0  0  0
    4.1790   -5.6670    4.2440 C   0  0  0  0  0  0  0  0  0  0  0  0
    5.3740   -5.2890    4.3830 O   0  0  0  0  0  0  0  0  0  0  0  0
    2.9940   -5.2310    4.7250 C   0  0  0  0  0  2  0  0  0  0  0  0
    2.6930   -4.0560    5.6210 C   0  0  0  0  0  0  0  0  0  0  0  0
    2.6320   -4.0760    6.8480 O   0  0  0  0  0  0  0  0  0  0  0  0
    2.4690   -2.6650    4.9490 C   0  0  0  0  0  0  0  0  0  0  0  0
    3.0950   -2.4400    3.8530 O   0  0  0  0  0  0  0  0  0  0  0  0
    1.6870   -1.8260    5.5180 O   0  0  0  0  0  1  0  0  0  0  0  0
    4.6490   -5.7080    1.2800 C   0  0  0  0  0  2  0  0  0  0  0  0
    4.8690   -5.9040   -0.2290 C   0  0  0  0  0  3  0  0  0  0  0  0
    6.3240   -5.9710   -0.7170 C   0  0  0  0  0  3  0  0  0  0  0  0
    7.3870   -5.5750    0.2990 C   0  0  0  0  0  2  0  0  0  0  0  0
    9.4590   -4.1150   -0.8450 N   0  0  0  0  0  1  0  0  0  0  0  0
    8.5190   -4.7770   -0.3260 C   0  0  0  0  0  2  0  0  0  0  0  0
  1  5  1  0  0  0  0
  2  1  1  0  0  0  0
  2  3  2  0  0  0  0
  3  4  1  0  0  0  0
  5  4  2  0  0  0  0
  5  6  1  0  0  0  0
  6  7  2  0  0  0  0
  6  8  1  0  0  0  0
  8  9  1  0  0  0  0
  9 10  2  0  0  0  0
 11 13  1  0  0  0  0
 11  9  1  0  0  0  0
 12 11  2  0  0  0  0
 14  1  1  0  0  0  0
 15 14  1  0  0  0  0
 16 15  2  0  0  0  0
 16 17  1  0  0  0  0
 18 19  1  0  0  0  0
 19 17  1  0  0  0  0
M  END
>  <minimizedAffinity>
-5.41807699

$$$$

 OpenBabel09122223333D

 19 19  0  0  0  0  0  0  0  0999 V2000
    4.8810   -6.3070    2.0860 N   0  0  0  0  0  0  0  0  0  0  0  0
    4.5140   -4.9830    2.1950 C   0  0  0  0  0  3  0  0  0  0  0  0
    4.0920   -4.7530    3.4850 C   0  0  0  0  0  3  0  0  0  0  0  0
    4.1380   -5.9900    4.1620 C   0  0  0  0  0  3  0  0  0  0  0  0
    4.5810   -6.9630    3.2760 C   0  0  0  0  0  0  0  0  0  0  0  0
    4.7530   -8.3860    3.4480 C   0  0  0  0  0  0  0  0  0  0  0  0
    5.9590   -8.6710    3.6820 O   0  0  0  0  0  0  0  0  0  0  0  0
    3.6330   -9.1200    3.2640 C   0  0  0  0  0  2  0  0  0  0  0  0
    3.4450  -10.6150    3.3070 C   0  0  0  0  0  0  0  0  0  0  0  0
    2.6490  -11.2270    4.0150 O   0  0  0  0  0  0  0  0  0  0  0  0
    4.3120  -11.4870    2.3440 C   0  0  0  0  0  0  0  0  0  0  0  0
    3.8120  -11.7600    1.1960 O   0  0  0  0  0  0  0  0  0  0  0  0
    5.4620  -11.8850    2.7430 O   0  0  0  0  0  1  0  0  0  0  0  0
    5.4390   -6.9490    0.9030 C   0  0  0  0  0  2  0  0  0  0  0  0
    5.4250   -6.1590   -0.4160 C   0  0  0  0  0  2  0  0  0  0  0  0
    6.7730   -5.6280   -0.9230 C   0  0  0  0  0  2  0  0  0  0  0  0
    7.7880   -5.2540    0.1500 C   0  0  0  0  0  2  0  0  0  0  0  0
    9.9170   -3.7830   -0.8690 N   0  0  0  0  0  1  0  0  0  0  0  0
    8.9520   -4.4500   -0.4070 C   0  0  0  0  0  2  0  0  0  0  0  0
  1  2  1  0  0  0  0
  1  5  1  0  0  0  0
  2  3  2  0  0  0  0
  3  4  1  0  0  0  0
  5  6  1  0  0  0  0
  5  4  2  0  0  0  0
  6  7  2  0  0  0  0
  8  9  1  0  0  0  0
  8  6  1  0  0  0  0
  9 10  2  0  0  0  0
 11 13  1  0  0  0  0
 11  9  1  0  0  0  0
 12 11  2  0  0  0  0
 14  1  1  0  0  0  0
 15 14  1  0  0  0  0
 16 15  1  0  0  0  0
 16 17  1  0  0  0  0
 18 19  1  0  0  0  0
 19 17  1  0  0  0  0
M  END
>  <minimizedAffinity>
-5.40945959

$$$$

 OpenBabel09122223333D

 19 19  0  0  0  0  0  0  0  0999 V2000
    9.0790   -3.7630    0.6770 N   0  0  0  0  0  0  0  0  0  0  0  0
    9.5210   -3.9910   -0.6090 C   0  0  0  0  0  3  0  0  0  0  0  0
   10.5880   -3.1590   -0.8570 C   0  0  0  0  0  3  0  0  0  0  0  0
   10.7580   -2.3510    0.2870 C   0  0  0  0  0  3  0  0  0  0  0  0
    9.7880   -2.6950    1.2190 C   0  0  0  0  0  0  0  0  0  0  0  0
    9.4930   -2.1420    2.5200 C   0  0  0  0  0  0  0  0  0  0  0  0
    8.7510   -1.1270    2.4220 O   0  0  0  0  0  0  0  0  0  0  0  0
   10.1040   -2.7630    3.5530 C   0  0  0  0  0  2  0  0  0  0  0  0
   10.0760   -2.4350    5.0240 C   0  0  0  0  0  0  0  0  0  0  0  0
   11.0530   -2.2880    5.7550 O   0  0  0  0  0  0  0  0  0  0  0  0
    8.6820   -2.2240    5.6970 C   0  0  0  0  0  0  0  0  0  0  0  0
    8.4640   -1.0840    6.2400 O   0  0  0  0  0  1  0  0  0  0  0  0
    7.8390   -3.1880    5.6790 O   0  0  0  0  0  0  0  0  0  0  0  0
    8.0060   -4.4750    1.3560 C   0  0  0  0  0  2  0  0  0  0  0  0
    7.6470   -5.8830    0.8520 C   0  0  0  0  0  2  0  0  0  0  0  0
    6.2620   -6.0610    0.2130 C   0  0  0  0  0  2  0  0  0  0  0  0
    5.5440   -7.3660    0.5310 C   0  0  0  0  0  2  0  0  0  0  0  0
    6.0280   -8.2400    3.1270 N   0  0  0  0  0  1  0  0  0  0  0  0
    5.8090   -7.8440    1.9500 C   0  0  0  0  0  2  0  0  0  0  0  0
  1  5  1  0  0  0  0
  1 14  1  0  0  0  0
  2  1  1  0  0  0  0
  3  2  2  0  0  0  0
  3  4  1  0  0  0  0
  4  5  2  0  0  0  0
  5  6  1  0  0  0  0
  6  8  1  0  0  0  0
  7  6  2  0  0  0  0
  8  9  1  0  0  0  0
  9 11  1  0  0  0  0
  9 10  2  0  0  0  0
 11 12  1  0  0  0  0
 13 11  2  0  0  0  0
 15 14  1  0  0  0  0
 16 17  1  0  0  0  0
 16 15  1  0  0  0  0
 17 19  1  0  0  0  0
 19 18  1  0  0  0  0
M  END
>  <minimizedAffinity>
-5.35386086

$$$$

 OpenBabel09122223333D

 19 19  0  0  0  0  0  0  0  0999 V2000
    5.3370   -5.9800    1.2740 N   0  0  0  0  0  0  0  0  0  0  0  0
    4.1390   -6.4720    0.8010 C   0  0  0  0  0  3  0  0  0  0  0  0
    4.3830   -7.1810   -0.3520 C   0  0  0  0  0  3  0  0  0  0  0  0
    5.7610   -7.0600   -0.6280 C   0  0  0  0  0  3  0  0  0  0  0  0
    6.3420   -6.2720    0.3570 C   0  0  0  0  0  0  0  0  0  0  0  0
    7.6990   -5.8030    0.5110 C   0  0  0  0  0  0  0  0  0  0  0  0
    8.3190   -6.4880    1.3700 O   0  0  0  0  0  0  0  0  0  0  0  0
    8.0100   -4.7120   -0.2230 C   0  0  0  0  0  2  0  0  0  0  0  0
    9.2940   -3.9240   -0.2780 C   0  0  0  0  0  0  0  0  0  0  0  0
   10.2170   -4.0930   -1.0710 O   0  0  0  0  0  0  0  0  0  0  0  0
    9.4750   -2.7540    0.7410 C   0  0  0  0  0  0  0  0  0  0  0  0
    9.2010   -3.0020    1.9680 O   0  0  0  0  0  1  0  0  0  0  0  0
    9.8770   -1.6180    0.3070 O   0  0  0  0  0  0  0  0  0  0  0  0
    5.5290   -5.2240    2.5030 C   0  0  0  0  0  2  0  0  0  0  0  0
    4.3330   -5.0920    3.4600 C   0  0  0  0  0  2  0  0  0  0  0  0
    3.6960   -3.7010    3.5900 C   0  0  0  0  0  2  0  0  0  0  0  0
    3.7420   -3.0730    4.9770 C   0  0  0  0  0  2  0  0  0  0  0  0
    6.1000   -3.6570    6.3300 N   0  0  0  0  0  1  0  0  0  0  0  0
    5.0310   -3.3920    5.7160 C   0  0  0  0  0  2  0  0  0  0  0  0
  1 14  1  0  0  0  0
  2  1  1  0  0  0  0
  3  2  2  0  0  0  0
  4  3  1  0  0  0  0
  4  5  2  0  0  0  0
  5  6  1  0  0  0  0
  5  1  1  0  0  0  0
  6  7  2  0  0  0  0
  8  6  1  0  0  0  0
  9  8  1  0  0  0  0
  9 11  1  0  0  0  0
 10  9  2  0  0  0  0
 11 12  1  0  0  0  0
 13 11  2  0  0  0  0
 14 15  1  0  0  0  0
 15 16  1  0  0  0  0
 16 17  1  0  0  0  0
 17 19  1  0  0  0  0
 19 18  1  0  0  0  0
M  END
>  <minimizedAffinity>
-5.25074673

$$$$
