
 OpenBabel09132204463D

 19 19  0  0  0  0  0  0  0  0999 V2000
    4.3470   -6.8860    2.0810 N   0  0  0  0  0  0  0  0  0  0  0  0
    4.3070   -8.1880    1.6300 C   0  0  0  0  0  3  0  0  0  0  0  0
    3.9250   -8.9990    2.6730 C   0  0  0  0  0  3  0  0  0  0  0  0
    3.7950   -8.1770    3.8120 C   0  0  0  0  0  3  0  0  0  0  0  0
    4.1060   -6.8720    3.4510 C   0  0  0  0  0  0  0  0  0  0  0  0
    4.1790   -5.6670    4.2440 C   0  0  0  0  0  0  0  0  0  0  0  0
    5.3740   -5.2890    4.3830 O   0  0  0  0  0  0  0  0  0  0  0  0
    2.9940   -5.2310    4.7250 C   0  0  0  0  0  2  0  0  0  0  0  0
    2.6930   -4.0560    5.6210 C   0  0  0  0  0  0  0  0  0  0  0  0
    2.6320   -4.0760    6.8480 O   0  0  0  0  0  0  0  0  0  0  0  0
    2.4690   -2.6650    4.9490 C   0  0  0  0  0  0  0  0  0  0  0  0
    3.0950   -2.4400    3.8530 O   0  0  0  0  0  0  0  0  0  0  0  0
    1.6870   -1.8260    5.5180 O   0  0  0  0  0  1  0  0  0  0  0  0
    4.6490   -5.7080    1.2800 C   0  0  0  0  0  2  0  0  0  0  0  0
    4.8690   -5.9040   -0.2290 C   0  0  0  0  0  3  0  0  0  0  0  0
    6.3240   -5.9710   -0.7170 C   0  0  0  0  0  3  0  0  0  0  0  0
    7.3870   -5.5750    0.2990 C   0  0  0  0  0  2  0  0  0  0  0  0
    9.4590   -4.1150   -0.8450 N   0  0  0  0  0  1  0  0  0  0  0  0
    8.5190   -4.7770   -0.3260 C   0  0  0  0  0  2  0  0  0  0  0  0
  1  5  1  0  0  0  0
  2  1  1  0  0  0  0
  2  3  2  0  0  0  0
  3  4  1  0  0  0  0
  5  4  2  0  0  0  0
  5  6  1  0  0  0  0
  6  7  2  0  0  0  0
  6  8  1  0  0  0  0
  8  9  1  0  0  0  0
  9 10  2  0  0  0  0
 11 13  1  0  0  0  0
 11  9  1  0  0  0  0
 12 11  2  0  0  0  0
 14  1  1  0  0  0  0
 15 14  1  0  0  0  0
 16 15  2  0  0  0  0
 16 17  1  0  0  0  0
 18 19  1  0  0  0  0
 19 17  1  0  0  0  0
M  END
>  <minimizedAffinity>
-5.41807699

$$$$
