
 OpenBabel09132204463D

 19 19  0  0  0  0  0  0  0  0999 V2000
    6.2470   -6.0890    0.6330 N   0  0  0  0  0  0  0  0  0  0  0  0
    6.0320   -6.4440   -0.6820 C   0  0  0  0  0  3  0  0  0  0  0  0
    4.8160   -7.0830   -0.7670 C   0  0  0  0  0  3  0  0  0  0  0  0
    4.3070   -7.1820    0.5440 C   0  0  0  0  0  3  0  0  0  0  0  0
    5.2210   -6.6070    1.4170 C   0  0  0  0  0  0  0  0  0  0  0  0
    5.2080   -6.4960    2.8570 C   0  0  0  0  0  0  0  0  0  0  0  0
    5.6600   -7.5430    3.3960 O   0  0  0  0  0  0  0  0  0  0  0  0
    4.6690   -5.3520    3.3340 C   0  0  0  0  0  2  0  0  0  0  0  0
    4.4410   -4.9180    4.7590 C   0  0  0  0  0  0  0  0  0  0  0  0
    5.2860   -4.8770    5.6500 O   0  0  0  0  0  0  0  0  0  0  0  0
    3.0080   -4.4380    5.1550 C   0  0  0  0  0  0  0  0  0  0  0  0
    2.6350   -4.6500    6.3620 O   0  0  0  0  0  1  0  0  0  0  0  0
    2.2840   -3.8680    4.2660 O   0  0  0  0  0  0  0  0  0  0  0  0
    7.3880   -5.3430    1.1450 C   0  0  0  0  0  2  0  0  0  0  0  0
    8.4890   -4.9420    0.1500 C   0  0  0  0  0  3  0  0  0  0  0  0
    9.1830   -3.5930    0.3880 C   0  0  0  0  0  3  0  0  0  0  0  0
    8.9620   -2.9620    1.7560 C   0  0  0  0  0  2  0  0  0  0  0  0
    8.9630   -0.1830    1.6570 N   0  0  0  0  0  1  0  0  0  0  0  0
    8.9630   -1.4430    1.7020 C   0  0  0  0  0  2  0  0  0  0  0  0
  1 14  1  0  0  0  0
  1  5  1  0  0  0  0
  2  1  1  0  0  0  0
  3  2  2  0  0  0  0
  3  4  1  0  0  0  0
  4  5  2  0  0  0  0
  5  6  1  0  0  0  0
  6  8  1  0  0  0  0
  6  7  2  0  0  0  0
  8  9  1  0  0  0  0
  9 11  1  0  0  0  0
  9 10  2  0  0  0  0
 11 12  1  0  0  0  0
 13 11  2  0  0  0  0
 15 16  2  0  0  0  0
 15 14  1  0  0  0  0
 16 17  1  0  0  0  0
 18 19  1  0  0  0  0
 19 17  1  0  0  0  0
M  END
>  <minimizedAffinity>
-5.42594481

$$$$
