
 OpenBabel09122222393D

 33 37  0  0  0  0  0  0  0  0999 V2000
    7.4430   -5.5290    0.9100 C   0  0  0  0  0  0  0  0  0  0  0  0
    7.4600   -6.8990    0.6370 C   0  0  0  0  0  3  0  0  0  0  0  0
    6.6200   -7.7880    1.3160 C   0  0  0  0  0  3  0  0  0  0  0  0
    5.7380   -7.3150    2.3110 C   0  0  0  0  0  0  0  0  0  0  0  0
    4.7660   -7.9460    3.1600 C   0  0  0  0  0  0  0  0  0  0  0  0
    4.2000   -6.9440    3.9420 C   0  0  0  0  0  0  0  0  0  0  0  0
    4.8330   -5.7480    3.6250 N   0  0  0  0  0  0  0  0  0  0  0  0
    5.7280   -5.9460    2.5900 C   0  0  0  0  0  0  0  0  0  0  0  0
    6.5530   -5.0450    1.8870 C   0  0  0  0  0  3  0  0  0  0  0  0
    4.3920   -9.4120    3.1950 C   0  0  0  0  0  3  0  0  0  0  0  0
    3.8750   -9.9230    1.8410 C   0  0  0  0  0  2  0  0  0  0  0  0
    3.4770  -11.3960    1.9120 C   0  0  0  0  0  2  0  0  0  0  0  0
    4.6170  -12.2620    2.4400 C   0  0  0  0  0  2  0  0  0  0  0  0
    5.1220  -11.7640    3.7910 C   0  0  0  0  0  2  0  0  0  0  0  0
    5.5310  -10.2930    3.7340 C   0  0  0  0  0  2  0  0  0  0  0  0
    3.1390   -7.0560    4.9450 C   0  0  0  0  0  0  0  0  0  0  0  0
    3.3840   -7.7010    6.1630 C   0  0  0  0  0  3  0  0  0  0  0  0
    2.3740   -7.8020    7.1210 C   0  0  0  0  0  3  0  0  0  0  0  0
    1.1130   -7.2640    6.8630 C   0  0  0  0  0  3  0  0  0  0  0  0
    0.8600   -6.6280    5.6480 C   0  0  0  0  0  3  0  0  0  0  0  0
    1.8700   -6.5260    4.6900 C   0  0  0  0  0  3  0  0  0  0  0  0
    8.9210   -3.6580    0.8600 O   0  0  0  0  0  1  0  0  0  0  0  0
    8.3800   -4.5850    0.1770 C   0  0  0  0  0  0  0  0  0  0  0  0
    8.5480   -4.7830   -1.0680 O   0  0  0  0  0  0  0  0  0  0  0  0
    4.5480   -4.4740    4.2880 C   0  0  0  0  0  2  0  0  0  0  0  0
    5.2740   -4.1850    5.5860 C   0  0  0  0  0  0  0  0  0  0  0  0
    4.8740   -4.7330    6.6220 O   0  0  0  0  0  0  0  0  0  0  0  0
    6.4290   -3.4230    5.5860 N   0  0  0  0  0  0  0  0  0  0  0  0
    7.1120   -2.8840    4.4100 C   0  0  0  0  0  2  0  0  0  0  0  0
    8.6350   -2.9760    4.5740 C   0  0  0  0  0  2  0  0  0  0  0  0
    9.0830   -2.3720    5.7930 O   0  0  0  0  0  0  0  0  0  0  0  0
    8.4570   -2.9950    6.9290 C   0  0  0  0  0  2  0  0  0  0  0  0
    6.9330   -2.8970    6.8580 C   0  0  0  0  0  2  0  0  0  0  0  0
  1  9  1  0  0  0  0
  2  1  2  0  0  0  0
  2  3  1  0  0  0  0
  3  4  2  0  0  0  0
  4  8  1  0  0  0  0
  4  5  1  0  0  0  0
  5 10  1  0  0  0  0
  5  6  2  0  0  0  0
  6 16  1  0  0  0  0
  7  6  1  0  0  0  0
  7 25  1  0  0  0  0
  8  7  1  0  0  0  0
  9  8  2  0  0  0  0
 10 15  1  0  0  0  0
 11 12  1  0  0  0  0
 11 10  1  0  0  0  0
 12 13  1  0  0  0  0
 13 14  1  0  0  0  0
 15 14  1  0  0  0  0
 16 17  1  0  0  0  0
 17 18  2  0  0  0  0
 19 18  1  0  0  0  0
 20 19  2  0  0  0  0
 21 16  2  0  0  0  0
 21 20  1  0  0  0  0
 23 22  1  0  0  0  0
 23  1  1  0  0  0  0
 24 23  2  0  0  0  0
 25 26  1  0  0  0  0
 26 28  1  0  0  0  0
 26 27  2  0  0  0  0
 28 33  1  0  0  0  0
 29 30  1  0  0  0  0
 29 28  1  0  0  0  0
 30 31  1  0  0  0  0
 31 32  1  0  0  0  0
 33 32  1  0  0  0  0
M  END
>  <minimizedAffinity>
-6.59271812

$$$$
