
 OpenBabel09122222393D

 33 37  0  0  0  0  0  0  0  0999 V2000
    6.2200   -6.1270   -0.1220 C   0  0  0  0  0  0  0  0  0  0  0  0
    7.1350   -5.7210   -1.0970 C   0  0  0  0  0  3  0  0  0  0  0  0
    8.1520   -4.8060   -0.8070 C   0  0  0  0  0  3  0  0  0  0  0  0
    8.2680   -4.2580    0.4880 C   0  0  0  0  0  0  0  0  0  0  0  0
    9.1790   -3.3300    1.0970 C   0  0  0  0  0  0  0  0  0  0  0  0
    8.7810   -3.1800    2.4220 C   0  0  0  0  0  0  0  0  0  0  0  0
    7.6380   -3.9470    2.6110 N   0  0  0  0  0  0  0  0  0  0  0  0
    7.3470   -4.6570    1.4610 C   0  0  0  0  0  0  0  0  0  0  0  0
    6.3400   -5.6010    1.1780 C   0  0  0  0  0  3  0  0  0  0  0  0
   10.3690   -2.6540    0.4510 C   0  0  0  0  0  3  0  0  0  0  0  0
   11.4170   -3.6580   -0.0550 C   0  0  0  0  0  2  0  0  0  0  0  0
   12.6200   -2.9500   -0.6760 C   0  0  0  0  0  2  0  0  0  0  0  0
   12.1960   -1.9810   -1.7760 C   0  0  0  0  0  2  0  0  0  0  0  0
   11.1650   -0.9740   -1.2720 C   0  0  0  0  0  2  0  0  0  0  0  0
    9.9530   -1.6690   -0.6540 C   0  0  0  0  0  2  0  0  0  0  0  0
    9.3960   -2.3710    3.4760 C   0  0  0  0  0  0  0  0  0  0  0  0
    9.3740   -0.9740    3.3970 C   0  0  0  0  0  3  0  0  0  0  0  0
    9.9560   -0.2030    4.4050 C   0  0  0  0  0  3  0  0  0  0  0  0
   10.5650   -0.8260    5.4940 C   0  0  0  0  0  3  0  0  0  0  0  0
   10.5980   -2.2180    5.5740 C   0  0  0  0  0  3  0  0  0  0  0  0
   10.0160   -2.9890    4.5670 C   0  0  0  0  0  3  0  0  0  0  0  0
    3.9390   -6.8210   -0.0540 O   0  0  0  0  0  1  0  0  0  0  0  0
    5.1100   -7.1050   -0.4650 C   0  0  0  0  0  0  0  0  0  0  0  0
    5.4310   -8.1410   -1.1280 O   0  0  0  0  0  0  0  0  0  0  0  0
    6.8890   -3.9960    3.8680 C   0  0  0  0  0  2  0  0  0  0  0  0
    5.4380   -3.5610    3.8350 C   0  0  0  0  0  0  0  0  0  0  0  0
    4.9190   -3.3170    2.7380 O   0  0  0  0  0  0  0  0  0  0  0  0
    4.6830   -3.5570    4.9940 N   0  0  0  0  0  0  0  0  0  0  0  0
    5.1200   -4.0100    6.3150 C   0  0  0  0  0  2  0  0  0  0  0  0
    3.9900   -4.7550    7.0380 C   0  0  0  0  0  2  0  0  0  0  0  0
    2.7840   -3.9830    7.0940 O   0  0  0  0  0  0  0  0  0  0  0  0
    2.3390   -3.6400    5.7700 C   0  0  0  0  0  2  0  0  0  0  0  0
    3.4000   -2.8480    5.0050 C   0  0  0  0  0  2  0  0  0  0  0  0
  1  9  1  0  0  0  0
  2  3  1  0  0  0  0
  2  1  2  0  0  0  0
  3  4  2  0  0  0  0
  4  5  1  0  0  0  0
  4  8  1  0  0  0  0
  5  6  2  0  0  0  0
  6  7  1  0  0  0  0
  6 16  1  0  0  0  0
  7 25  1  0  0  0  0
  8  7  1  0  0  0  0
  9  8  2  0  0  0  0
 10  5  1  0  0  0  0
 11 10  1  0  0  0  0
 12 11  1  0  0  0  0
 13 14  1  0  0  0  0
 13 12  1  0  0  0  0
 14 15  1  0  0  0  0
 15 10  1  0  0  0  0
 16 21  1  0  0  0  0
 17 16  2  0  0  0  0
 17 18  1  0  0  0  0
 18 19  2  0  0  0  0
 19 20  1  0  0  0  0
 21 20  2  0  0  0  0
 23  1  1  0  0  0  0
 23 22  1  0  0  0  0
 24 23  2  0  0  0  0
 26 25  1  0  0  0  0
 26 28  1  0  0  0  0
 27 26  2  0  0  0  0
 28 33  1  0  0  0  0
 28 29  1  0  0  0  0
 29 30  1  0  0  0  0
 30 31  1  0  0  0  0
 32 31  1  0  0  0  0
 33 32  1  0  0  0  0
M  END
>  <minimizedAffinity>
-7.1026988

$$$$
