
 OpenBabel09122222393D

 33 37  0  0  0  0  0  0  0  0999 V2000
    8.4730   -4.3840    0.6650 C   0  0  0  0  0  0  0  0  0  0  0  0
    8.0810   -5.6190    0.1410 C   0  0  0  0  0  3  0  0  0  0  0  0
    7.0140   -6.3380    0.6890 C   0  0  0  0  0  3  0  0  0  0  0  0
    6.3120   -5.8310    1.8040 C   0  0  0  0  0  0  0  0  0  0  0  0
    5.1950   -6.3030    2.5730 C   0  0  0  0  0  0  0  0  0  0  0  0
    4.9520   -5.3520    3.5600 C   0  0  0  0  0  0  0  0  0  0  0  0
    5.9110   -4.3550    3.4350 N   0  0  0  0  0  0  0  0  0  0  0  0
    6.7090   -4.6000    2.3330 C   0  0  0  0  0  0  0  0  0  0  0  0
    7.7660   -3.8610    1.7640 C   0  0  0  0  0  3  0  0  0  0  0  0
    4.4010   -7.5730    2.3560 C   0  0  0  0  0  3  0  0  0  0  0  0
    3.8580   -7.6930    0.9230 C   0  0  0  0  0  2  0  0  0  0  0  0
    3.0380   -8.9690    0.7400 C   0  0  0  0  0  2  0  0  0  0  0  0
    3.8270  -10.2100    1.1450 C   0  0  0  0  0  2  0  0  0  0  0  0
    4.3560  -10.0980    2.5730 C   0  0  0  0  0  2  0  0  0  0  0  0
    5.1850   -8.8300    2.7700 C   0  0  0  0  0  2  0  0  0  0  0  0
    3.9040   -5.3430    4.5820 C   0  0  0  0  0  0  0  0  0  0  0  0
    2.7570   -4.5590    4.4120 C   0  0  0  0  0  3  0  0  0  0  0  0
    1.7560   -4.5560    5.3850 C   0  0  0  0  0  3  0  0  0  0  0  0
    1.9000   -5.3320    6.5340 C   0  0  0  0  0  3  0  0  0  0  0  0
    3.0440   -6.1090    6.7150 C   0  0  0  0  0  3  0  0  0  0  0  0
    4.0450   -6.1130    5.7420 C   0  0  0  0  0  3  0  0  0  0  0  0
   10.1090   -2.6500    0.7370 O   0  0  0  0  0  1  0  0  0  0  0  0
    9.6490   -3.6310    0.0690 C   0  0  0  0  0  0  0  0  0  0  0  0
   10.0810   -4.0270   -1.0600 O   0  0  0  0  0  0  0  0  0  0  0  0
    6.0180   -3.2080    4.3390 C   0  0  0  0  0  2  0  0  0  0  0  0
    6.9650   -3.3310    5.5160 C   0  0  0  0  0  0  0  0  0  0  0  0
    6.6660   -4.1020    6.4360 O   0  0  0  0  0  0  0  0  0  0  0  0
    8.1900   -2.6870    5.4960 N   0  0  0  0  0  0  0  0  0  0  0  0
    8.7430   -1.9100    4.3880 C   0  0  0  0  0  2  0  0  0  0  0  0
   10.2500   -2.1590    4.2450 C   0  0  0  0  0  2  0  0  0  0  0  0
   10.9520   -1.9370    5.4760 O   0  0  0  0  0  0  0  0  0  0  0  0
   10.4380   -2.7890    6.5140 C   0  0  0  0  0  2  0  0  0  0  0  0
    8.9440   -2.5590    6.7470 C   0  0  0  0  0  2  0  0  0  0  0  0
  1  9  1  0  0  0  0
  2  1  2  0  0  0  0
  2  3  1  0  0  0  0
  3  4  2  0  0  0  0
  4  8  1  0  0  0  0
  4  5  1  0  0  0  0
  5  6  2  0  0  0  0
  6 16  1  0  0  0  0
  7  6  1  0  0  0  0
  7 25  1  0  0  0  0
  8  7  1  0  0  0  0
  9  8  2  0  0  0  0
 10  5  1  0  0  0  0
 10 15  1  0  0  0  0
 11 10  1  0  0  0  0
 12 11  1  0  0  0  0
 12 13  1  0  0  0  0
 13 14  1  0  0  0  0
 14 15  1  0  0  0  0
 16 21  1  0  0  0  0
 17 16  2  0  0  0  0
 17 18  1  0  0  0  0
 18 19  2  0  0  0  0
 19 20  1  0  0  0  0
 21 20  2  0  0  0  0
 23  1  1  0  0  0  0
 23 22  1  0  0  0  0
 24 23  2  0  0  0  0
 25 26  1  0  0  0  0
 26 27  2  0  0  0  0
 28 26  1  0  0  0  0
 28 33  1  0  0  0  0
 29 28  1  0  0  0  0
 30 29  1  0  0  0  0
 30 31  1  0  0  0  0
 31 32  1  0  0  0  0
 32 33  1  0  0  0  0
M  END
>  <minimizedAffinity>
-6.53898287

$$$$
