
 OpenBabel09122222253D

 33 37  0  0  0  0  0  0  0  0999 V2000
    2.7760   -3.2760    4.9370 C   0  0  0  0  0  0  0  0  0  0  0  0
    3.6230   -2.8900    3.8950 C   0  0  0  0  0  3  0  0  0  0  0  0
    4.2880   -3.8360    3.1070 C   0  0  0  0  0  3  0  0  0  0  0  0
    4.1250   -5.2140    3.3620 C   0  0  0  0  0  0  0  0  0  0  0  0
    4.6410   -6.4060    2.7490 C   0  0  0  0  0  0  0  0  0  0  0  0
    4.1100   -7.4850    3.4490 C   0  0  0  0  0  0  0  0  0  0  0  0
    3.3360   -6.9790    4.4860 N   0  0  0  0  0  0  0  0  0  0  0  0
    3.2840   -5.6000    4.4090 C   0  0  0  0  0  0  0  0  0  0  0  0
    2.5910   -4.6490    5.1850 C   0  0  0  0  0  3  0  0  0  0  0  0
    5.5640   -6.4970    1.5520 C   0  0  0  0  0  3  0  0  0  0  0  0
    4.8140   -6.3710    0.2160 C   0  0  0  0  0  2  0  0  0  0  0  0
    5.7630   -6.4950   -0.9740 C   0  0  0  0  0  2  0  0  0  0  0  0
    6.9160   -5.4990   -0.8810 C   0  0  0  0  0  2  0  0  0  0  0  0
    7.6700   -5.6330    0.4390 C   0  0  0  0  0  2  0  0  0  0  0  0
    6.7330   -5.5030    1.6390 C   0  0  0  0  0  2  0  0  0  0  0  0
    4.3000   -8.9160    3.2050 C   0  0  0  0  0  0  0  0  0  0  0  0
    5.1920   -9.6540    3.9900 C   0  0  0  0  0  3  0  0  0  0  0  0
    5.3680  -11.0200    3.7600 C   0  0  0  0  0  3  0  0  0  0  0  0
    4.6560  -11.6520    2.7420 C   0  0  0  0  0  3  0  0  0  0  0  0
    3.7710  -10.9200    1.9490 C   0  0  0  0  0  3  0  0  0  0  0  0
    3.5950   -9.5550    2.1790 C   0  0  0  0  0  3  0  0  0  0  0  0
    1.2480   -1.4660    5.2130 O   0  0  0  0  0  0  0  0  0  0  0  0
    2.0820   -2.2310    5.7940 C   0  0  0  0  0  0  0  0  0  0  0  0
    2.3920   -2.1900    7.0260 O   0  0  0  0  0  1  0  0  0  0  0  0
    2.6610   -7.8140    5.4810 C   0  0  0  0  0  2  0  0  0  0  0  0
    1.1750   -8.0510    5.3040 C   0  0  0  0  0  0  0  0  0  0  0  0
    0.4290   -7.0680    5.2010 O   0  0  0  0  0  0  0  0  0  0  0  0
    0.6870   -9.3350    5.1380 N   0  0  0  0  0  0  0  0  0  0  0  0
    1.4820  -10.5590    5.0420 C   0  0  0  0  0  2  0  0  0  0  0  0
    0.8910  -11.5140    3.9970 C   0  0  0  0  0  2  0  0  0  0  0  0
   -0.4980  -11.7780    4.2330 O   0  0  0  0  0  0  0  0  0  0  0  0
   -1.2560  -10.5560    4.2250 C   0  0  0  0  0  2  0  0  0  0  0  0
   -0.7520   -9.5720    5.2820 C   0  0  0  0  0  2  0  0  0  0  0  0
  1  9  1  0  0  0  0
  1 23  1  0  0  0  0
  2  1  2  0  0  0  0
  3  4  2  0  0  0  0
  3  2  1  0  0  0  0
  4  8  1  0  0  0  0
  5  4  1  0  0  0  0
  5  6  2  0  0  0  0
  6  7  1  0  0  0  0
  7 25  1  0  0  0  0
  8  7  1  0  0  0  0
  8  9  2  0  0  0  0
 10 15  1  0  0  0  0
 10  5  1  0  0  0  0
 11 10  1  0  0  0  0
 12 13  1  0  0  0  0
 12 11  1  0  0  0  0
 13 14  1  0  0  0  0
 14 15  1  0  0  0  0
 16  6  1  0  0  0  0
 16 17  1  0  0  0  0
 18 17  2  0  0  0  0
 19 18  1  0  0  0  0
 20 21  1  0  0  0  0
 20 19  2  0  0  0  0
 21 16  2  0  0  0  0
 22 23  2  0  0  0  0
 23 24  1  0  0  0  0
 26 25  1  0  0  0  0
 27 26  2  0  0  0  0
 28 33  1  0  0  0  0
 28 26  1  0  0  0  0
 29 28  1  0  0  0  0
 30 31  1  0  0  0  0
 30 29  1  0  0  0  0
 32 31  1  0  0  0  0
 32 33  1  0  0  0  0
M  END
>  <minimizedAffinity>
-8.41838837

$$$$

 OpenBabel09122222253D

 33 37  0  0  0  0  0  0  0  0999 V2000
    3.6930   -4.3990    5.5490 C   0  0  0  0  0  0  0  0  0  0  0  0
    2.4880   -4.8440    6.1010 C   0  0  0  0  0  3  0  0  0  0  0  0
    1.9780   -6.1130    5.8090 C   0  0  0  0  0  3  0  0  0  0  0  0
    2.6700   -6.9740    4.9300 C   0  0  0  0  0  0  0  0  0  0  0  0
    2.4280   -8.3050    4.4470 C   0  0  0  0  0  0  0  0  0  0  0  0
    3.4820   -8.6250    3.5960 C   0  0  0  0  0  0  0  0  0  0  0  0
    4.3160   -7.5170    3.5180 N   0  0  0  0  0  0  0  0  0  0  0  0
    3.8700   -6.5260    4.3720 C   0  0  0  0  0  0  0  0  0  0  0  0
    4.4000   -5.2580    4.6880 C   0  0  0  0  0  3  0  0  0  0  0  0
    1.2720   -9.2150    4.8020 C   0  0  0  0  0  3  0  0  0  0  0  0
    1.2910   -9.6480    6.2760 C   0  0  0  0  0  2  0  0  0  0  0  0
    0.1320  -10.5880    6.6000 C   0  0  0  0  0  2  0  0  0  0  0  0
   -1.2120   -9.9780    6.2130 C   0  0  0  0  0  2  0  0  0  0  0  0
   -1.2380   -9.5590    4.7460 C   0  0  0  0  0  2  0  0  0  0  0  0
   -0.0870   -8.6130    4.4080 C   0  0  0  0  0  2  0  0  0  0  0  0
    3.7260   -9.8730    2.8720 C   0  0  0  0  0  0  0  0  0  0  0  0
    4.5600  -10.8550    3.4180 C   0  0  0  0  0  3  0  0  0  0  0  0
    4.7860  -12.0490    2.7290 C   0  0  0  0  0  3  0  0  0  0  0  0
    4.1840  -12.2620    1.4900 C   0  0  0  0  0  3  0  0  0  0  0  0
    3.3590  -11.2840    0.9350 C   0  0  0  0  0  3  0  0  0  0  0  0
    3.1310  -10.0910    1.6240 C   0  0  0  0  0  3  0  0  0  0  0  0
    3.3710   -2.0590    5.8750 O   0  0  0  0  0  0  0  0  0  0  0  0
    4.2170   -3.0090    5.8620 C   0  0  0  0  0  0  0  0  0  0  0  0
    5.4650   -2.8930    6.0770 O   0  0  0  0  0  1  0  0  0  0  0  0
    5.5060   -7.4510    2.6670 C   0  0  0  0  0  2  0  0  0  0  0  0
    5.3320   -6.9090    1.2630 C   0  0  0  0  0  0  0  0  0  0  0  0
    4.1840   -6.7730    0.8200 O   0  0  0  0  0  0  0  0  0  0  0  0
    6.4280   -6.4640    0.5450 N   0  0  0  0  0  0  0  0  0  0  0  0
    7.8070   -6.3860    1.0270 C   0  0  0  0  0  2  0  0  0  0  0  0
    8.4950   -5.1150    0.5140 C   0  0  0  0  0  2  0  0  0  0  0  0
    8.4040   -4.9910   -0.9110 O   0  0  0  0  0  0  0  0  0  0  0  0
    7.0290   -4.9760   -1.3330 C   0  0  0  0  0  2  0  0  0  0  0  0
    6.2910   -6.2430   -0.8970 C   0  0  0  0  0  2  0  0  0  0  0  0
  1 23  1  0  0  0  0
  1  2  1  0  0  0  0
  3  2  2  0  0  0  0
  4  3  1  0  0  0  0
  5 10  1  0  0  0  0
  5  4  1  0  0  0  0
  6  5  2  0  0  0  0
  7  6  1  0  0  0  0
  7  8  1  0  0  0  0
  8  9  1  0  0  0  0
  8  4  2  0  0  0  0
  9  1  2  0  0  0  0
 10 11  1  0  0  0  0
 11 12  1  0  0  0  0
 13 12  1  0  0  0  0
 14 13  1  0  0  0  0
 15 14  1  0  0  0  0
 15 10  1  0  0  0  0
 16 17  1  0  0  0  0
 16  6  1  0  0  0  0
 18 17  2  0  0  0  0
 19 18  1  0  0  0  0
 20 19  2  0  0  0  0
 20 21  1  0  0  0  0
 21 16  2  0  0  0  0
 23 22  2  0  0  0  0
 23 24  1  0  0  0  0
 25  7  1  0  0  0  0
 26 25  1  0  0  0  0
 27 26  2  0  0  0  0
 28 29  1  0  0  0  0
 28 26  1  0  0  0  0
 30 29  1  0  0  0  0
 31 30  1  0  0  0  0
 32 31  1  0  0  0  0
 32 33  1  0  0  0  0
 33 28  1  0  0  0  0
M  END
>  <minimizedAffinity>
-7.2498312

$$$$

 OpenBabel09122222253D

 33 37  0  0  0  0  0  0  0  0999 V2000
    7.8920   -4.6200    0.8640 C   0  0  0  0  0  0  0  0  0  0  0  0
    8.0990   -3.6200    1.8180 C   0  0  0  0  0  3  0  0  0  0  0  0
    7.2910   -3.5200    2.9550 C   0  0  0  0  0  3  0  0  0  0  0  0
    6.2310   -4.4290    3.1570 C   0  0  0  0  0  0  0  0  0  0  0  0
    5.2530   -4.6010    4.1950 C   0  0  0  0  0  0  0  0  0  0  0  0
    4.4630   -5.6890    3.8320 C   0  0  0  0  0  0  0  0  0  0  0  0
    4.9050   -6.1400    2.5950 N   0  0  0  0  0  0  0  0  0  0  0  0
    6.0190   -5.4240    2.1980 C   0  0  0  0  0  0  0  0  0  0  0  0
    6.8500   -5.5430    1.0660 C   0  0  0  0  0  3  0  0  0  0  0  0
    5.1060   -3.7870    5.4620 C   0  0  0  0  0  3  0  0  0  0  0  0
    6.3970   -3.0430    5.8400 C   0  0  0  0  0  2  0  0  0  0  0  0
    6.2300   -2.2530    7.1370 C   0  0  0  0  0  2  0  0  0  0  0  0
    5.0360   -1.3050    7.0700 C   0  0  0  0  0  2  0  0  0  0  0  0
    3.7510   -2.0450    6.7080 C   0  0  0  0  0  2  0  0  0  0  0  0
    3.9000   -2.8340    5.4080 C   0  0  0  0  0  2  0  0  0  0  0  0
    3.3480   -6.2930    4.5630 C   0  0  0  0  0  0  0  0  0  0  0  0
    3.5300   -7.4880    5.2670 C   0  0  0  0  0  3  0  0  0  0  0  0
    2.4670   -8.0600    5.9690 C   0  0  0  0  0  3  0  0  0  0  0  0
    1.2170   -7.4420    5.9650 C   0  0  0  0  0  3  0  0  0  0  0  0
    1.0260   -6.2550    5.2570 C   0  0  0  0  0  3  0  0  0  0  0  0
    2.0890   -5.6820    4.5560 C   0  0  0  0  0  3  0  0  0  0  0  0
    8.1820   -4.8890   -1.4890 O   0  0  0  0  0  0  0  0  0  0  0  0
    8.7670   -4.6960   -0.3760 C   0  0  0  0  0  0  0  0  0  0  0  0
   10.0220   -4.5720   -0.2100 O   0  0  0  0  0  1  0  0  0  0  0  0
    4.2780   -7.2370    1.8560 C   0  0  0  0  0  2  0  0  0  0  0  0
    4.7460   -8.6450    2.1640 C   0  0  0  0  0  0  0  0  0  0  0  0
    5.9450   -8.8280    2.4120 O   0  0  0  0  0  0  0  0  0  0  0  0
    3.8310   -9.6760    2.2850 N   0  0  0  0  0  0  0  0  0  0  0  0
    2.3740   -9.5550    2.2110 C   0  0  0  0  0  2  0  0  0  0  0  0
    1.6980  -10.4720    3.2380 C   0  0  0  0  0  2  0  0  0  0  0  0
    2.1420  -11.8300    3.1230 O   0  0  0  0  0  0  0  0  0  0  0  0
    3.5680  -11.9140    3.2960 C   0  0  0  0  0  2  0  0  0  0  0  0
    4.3130  -11.0600    2.2680 C   0  0  0  0  0  2  0  0  0  0  0  0
  1  9  2  0  0  0  0
  1  2  1  0  0  0  0
  2  3  2  0  0  0  0
  3  4  1  0  0  0  0
  4  5  1  0  0  0  0
  5 10  1  0  0  0  0
  6  5  2  0  0  0  0
  6 16  1  0  0  0  0
  7  6  1  0  0  0  0
  8  7  1  0  0  0  0
  8  4  2  0  0  0  0
  9  8  1  0  0  0  0
 10 11  1  0  0  0  0
 11 12  1  0  0  0  0
 13 12  1  0  0  0  0
 14 13  1  0  0  0  0
 15 10  1  0  0  0  0
 15 14  1  0  0  0  0
 16 17  1  0  0  0  0
 17 18  2  0  0  0  0
 19 18  1  0  0  0  0
 20 19  2  0  0  0  0
 21 16  2  0  0  0  0
 21 20  1  0  0  0  0
 22 23  2  0  0  0  0
 23 24  1  0  0  0  0
 23  1  1  0  0  0  0
 25 26  1  0  0  0  0
 25  7  1  0  0  0  0
 26 28  1  0  0  0  0
 26 27  2  0  0  0  0
 29 28  1  0  0  0  0
 29 30  1  0  0  0  0
 31 30  1  0  0  0  0
 31 32  1  0  0  0  0
 33 28  1  0  0  0  0
 33 32  1  0  0  0  0
M  END
>  <minimizedAffinity>
-7.12325478

$$$$

 OpenBabel09122222253D

 33 37  0  0  0  0  0  0  0  0999 V2000
    7.8550   -4.5950    0.8700 C   0  0  0  0  0  0  0  0  0  0  0  0
    8.0390   -3.5870    1.8200 C   0  0  0  0  0  3  0  0  0  0  0  0
    7.2270   -3.5000    2.9560 C   0  0  0  0  0  3  0  0  0  0  0  0
    6.1850   -4.4300    3.1600 C   0  0  0  0  0  0  0  0  0  0  0  0
    5.2090   -4.6170    4.1960 C   0  0  0  0  0  0  0  0  0  0  0  0
    4.4430   -5.7220    3.8360 C   0  0  0  0  0  0  0  0  0  0  0  0
    4.8960   -6.1690    2.6010 N   0  0  0  0  0  0  0  0  0  0  0  0
    5.9960   -5.4320    2.2040 C   0  0  0  0  0  0  0  0  0  0  0  0
    6.8320   -5.5390    1.0740 C   0  0  0  0  0  3  0  0  0  0  0  0
    5.0440   -3.8020    5.4600 C   0  0  0  0  0  3  0  0  0  0  0  0
    6.3200   -3.0350    5.8410 C   0  0  0  0  0  2  0  0  0  0  0  0
    6.1350   -2.2450    7.1350 C   0  0  0  0  0  2  0  0  0  0  0  0
    4.9260   -1.3160    7.0590 C   0  0  0  0  0  2  0  0  0  0  0  0
    3.6550   -2.0780    6.6940 C   0  0  0  0  0  2  0  0  0  0  0  0
    3.8230   -2.8690    5.3970 C   0  0  0  0  0  2  0  0  0  0  0  0
    3.3390   -6.3460    4.5670 C   0  0  0  0  0  0  0  0  0  0  0  0
    2.0870   -5.7240    4.6220 C   0  0  0  0  0  3  0  0  0  0  0  0
    1.0330   -6.3230    5.3140 C   0  0  0  0  0  3  0  0  0  0  0  0
    1.2280   -7.5440    5.9580 C   0  0  0  0  0  3  0  0  0  0  0  0
    2.4760   -8.1660    5.9150 C   0  0  0  0  0  3  0  0  0  0  0  0
    3.5300   -7.5680    5.2230 C   0  0  0  0  0  3  0  0  0  0  0  0
    9.9890   -4.5470   -0.1940 O   0  0  0  0  0  1  0  0  0  0  0  0
    8.7340   -4.6570   -0.3680 C   0  0  0  0  0  0  0  0  0  0  0  0
    8.1500   -4.8040   -1.4880 O   0  0  0  0  0  0  0  0  0  0  0  0
    4.2930   -7.2820    1.8660 C   0  0  0  0  0  2  0  0  0  0  0  0
    4.7380   -8.6840    2.2300 C   0  0  0  0  0  0  0  0  0  0  0  0
    5.9170   -8.8610    2.5640 O   0  0  0  0  0  0  0  0  0  0  0  0
    3.8160   -9.7130    2.3040 N   0  0  0  0  0  0  0  0  0  0  0  0
    2.3680   -9.5940    2.1280 C   0  0  0  0  0  2  0  0  0  0  0  0
    1.6210  -10.4940    3.1210 C   0  0  0  0  0  2  0  0  0  0  0  0
    2.0720  -11.8530    3.0610 O   0  0  0  0  0  0  0  0  0  0  0  0
    3.4820  -11.9330    3.3340 C   0  0  0  0  0  2  0  0  0  0  0  0
    4.2970  -11.0970    2.3460 C   0  0  0  0  0  2  0  0  0  0  0  0
  1  9  2  0  0  0  0
  1  2  1  0  0  0  0
  2  3  2  0  0  0  0
  3  4  1  0  0  0  0
  4  5  1  0  0  0  0
  5 10  1  0  0  0  0
  6  5  2  0  0  0  0
  6 16  1  0  0  0  0
  7  6  1  0  0  0  0
  8  7  1  0  0  0  0
  8  4  2  0  0  0  0
  9  8  1  0  0  0  0
 10 11  1  0  0  0  0
 11 12  1  0  0  0  0
 13 12  1  0  0  0  0
 14 13  1  0  0  0  0
 15 10  1  0  0  0  0
 15 14  1  0  0  0  0
 16 17  2  0  0  0  0
 16 21  1  0  0  0  0
 17 18  1  0  0  0  0
 18 19  2  0  0  0  0
 20 19  1  0  0  0  0
 21 20  2  0  0  0  0
 23 22  1  0  0  0  0
 23  1  1  0  0  0  0
 24 23  2  0  0  0  0
 25 26  1  0  0  0  0
 25  7  1  0  0  0  0
 26 28  1  0  0  0  0
 26 27  2  0  0  0  0
 28 33  1  0  0  0  0
 29 28  1  0  0  0  0
 29 30  1  0  0  0  0
 31 30  1  0  0  0  0
 31 32  1  0  0  0  0
 33 32  1  0  0  0  0
M  END
>  <minimizedAffinity>
-7.11122227

$$$$

 OpenBabel09122222253D

 33 37  0  0  0  0  0  0  0  0999 V2000
    6.2200   -6.1270   -0.1220 C   0  0  0  0  0  0  0  0  0  0  0  0
    7.1350   -5.7210   -1.0970 C   0  0  0  0  0  3  0  0  0  0  0  0
    8.1520   -4.8060   -0.8070 C   0  0  0  0  0  3  0  0  0  0  0  0
    8.2680   -4.2580    0.4880 C   0  0  0  0  0  0  0  0  0  0  0  0
    9.1790   -3.3300    1.0970 C   0  0  0  0  0  0  0  0  0  0  0  0
    8.7810   -3.1800    2.4220 C   0  0  0  0  0  0  0  0  0  0  0  0
    7.6380   -3.9470    2.6110 N   0  0  0  0  0  0  0  0  0  0  0  0
    7.3470   -4.6570    1.4610 C   0  0  0  0  0  0  0  0  0  0  0  0
    6.3400   -5.6010    1.1780 C   0  0  0  0  0  3  0  0  0  0  0  0
   10.3690   -2.6540    0.4510 C   0  0  0  0  0  3  0  0  0  0  0  0
   11.4170   -3.6580   -0.0550 C   0  0  0  0  0  2  0  0  0  0  0  0
   12.6200   -2.9500   -0.6760 C   0  0  0  0  0  2  0  0  0  0  0  0
   12.1960   -1.9810   -1.7760 C   0  0  0  0  0  2  0  0  0  0  0  0
   11.1650   -0.9740   -1.2720 C   0  0  0  0  0  2  0  0  0  0  0  0
    9.9530   -1.6690   -0.6540 C   0  0  0  0  0  2  0  0  0  0  0  0
    9.3960   -2.3710    3.4760 C   0  0  0  0  0  0  0  0  0  0  0  0
    9.3740   -0.9740    3.3970 C   0  0  0  0  0  3  0  0  0  0  0  0
    9.9560   -0.2030    4.4050 C   0  0  0  0  0  3  0  0  0  0  0  0
   10.5650   -0.8260    5.4940 C   0  0  0  0  0  3  0  0  0  0  0  0
   10.5980   -2.2180    5.5740 C   0  0  0  0  0  3  0  0  0  0  0  0
   10.0160   -2.9890    4.5670 C   0  0  0  0  0  3  0  0  0  0  0  0
    3.9390   -6.8210   -0.0540 O   0  0  0  0  0  1  0  0  0  0  0  0
    5.1100   -7.1050   -0.4650 C   0  0  0  0  0  0  0  0  0  0  0  0
    5.4310   -8.1410   -1.1280 O   0  0  0  0  0  0  0  0  0  0  0  0
    6.8890   -3.9960    3.8680 C   0  0  0  0  0  2  0  0  0  0  0  0
    5.4380   -3.5610    3.8350 C   0  0  0  0  0  0  0  0  0  0  0  0
    4.9190   -3.3170    2.7380 O   0  0  0  0  0  0  0  0  0  0  0  0
    4.6830   -3.5570    4.9940 N   0  0  0  0  0  0  0  0  0  0  0  0
    5.1200   -4.0100    6.3150 C   0  0  0  0  0  2  0  0  0  0  0  0
    3.9900   -4.7550    7.0380 C   0  0  0  0  0  2  0  0  0  0  0  0
    2.7840   -3.9830    7.0940 O   0  0  0  0  0  0  0  0  0  0  0  0
    2.3390   -3.6400    5.7700 C   0  0  0  0  0  2  0  0  0  0  0  0
    3.4000   -2.8480    5.0050 C   0  0  0  0  0  2  0  0  0  0  0  0
  1  9  1  0  0  0  0
  2  3  1  0  0  0  0
  2  1  2  0  0  0  0
  3  4  2  0  0  0  0
  4  5  1  0  0  0  0
  4  8  1  0  0  0  0
  5  6  2  0  0  0  0
  6  7  1  0  0  0  0
  6 16  1  0  0  0  0
  7 25  1  0  0  0  0
  8  7  1  0  0  0  0
  9  8  2  0  0  0  0
 10  5  1  0  0  0  0
 11 10  1  0  0  0  0
 12 11  1  0  0  0  0
 13 14  1  0  0  0  0
 13 12  1  0  0  0  0
 14 15  1  0  0  0  0
 15 10  1  0  0  0  0
 16 21  1  0  0  0  0
 17 16  2  0  0  0  0
 17 18  1  0  0  0  0
 18 19  2  0  0  0  0
 19 20  1  0  0  0  0
 21 20  2  0  0  0  0
 23  1  1  0  0  0  0
 23 22  1  0  0  0  0
 24 23  2  0  0  0  0
 26 25  1  0  0  0  0
 26 28  1  0  0  0  0
 27 26  2  0  0  0  0
 28 33  1  0  0  0  0
 28 29  1  0  0  0  0
 29 30  1  0  0  0  0
 30 31  1  0  0  0  0
 32 31  1  0  0  0  0
 33 32  1  0  0  0  0
M  END
>  <minimizedAffinity>
-7.1026988

$$$$

 OpenBabel09122222253D

 33 37  0  0  0  0  0  0  0  0999 V2000
    7.4430   -5.5290    0.9100 C   0  0  0  0  0  0  0  0  0  0  0  0
    7.4600   -6.8990    0.6370 C   0  0  0  0  0  3  0  0  0  0  0  0
    6.6200   -7.7880    1.3160 C   0  0  0  0  0  3  0  0  0  0  0  0
    5.7380   -7.3150    2.3110 C   0  0  0  0  0  0  0  0  0  0  0  0
    4.7660   -7.9460    3.1600 C   0  0  0  0  0  0  0  0  0  0  0  0
    4.2000   -6.9440    3.9420 C   0  0  0  0  0  0  0  0  0  0  0  0
    4.8330   -5.7480    3.6250 N   0  0  0  0  0  0  0  0  0  0  0  0
    5.7280   -5.9460    2.5900 C   0  0  0  0  0  0  0  0  0  0  0  0
    6.5530   -5.0450    1.8870 C   0  0  0  0  0  3  0  0  0  0  0  0
    4.3920   -9.4120    3.1950 C   0  0  0  0  0  3  0  0  0  0  0  0
    3.8750   -9.9230    1.8410 C   0  0  0  0  0  2  0  0  0  0  0  0
    3.4770  -11.3960    1.9120 C   0  0  0  0  0  2  0  0  0  0  0  0
    4.6170  -12.2620    2.4400 C   0  0  0  0  0  2  0  0  0  0  0  0
    5.1220  -11.7640    3.7910 C   0  0  0  0  0  2  0  0  0  0  0  0
    5.5310  -10.2930    3.7340 C   0  0  0  0  0  2  0  0  0  0  0  0
    3.1390   -7.0560    4.9450 C   0  0  0  0  0  0  0  0  0  0  0  0
    3.3840   -7.7010    6.1630 C   0  0  0  0  0  3  0  0  0  0  0  0
    2.3740   -7.8020    7.1210 C   0  0  0  0  0  3  0  0  0  0  0  0
    1.1130   -7.2640    6.8630 C   0  0  0  0  0  3  0  0  0  0  0  0
    0.8600   -6.6280    5.6480 C   0  0  0  0  0  3  0  0  0  0  0  0
    1.8700   -6.5260    4.6900 C   0  0  0  0  0  3  0  0  0  0  0  0
    8.9210   -3.6580    0.8600 O   0  0  0  0  0  1  0  0  0  0  0  0
    8.3800   -4.5850    0.1770 C   0  0  0  0  0  0  0  0  0  0  0  0
    8.5480   -4.7830   -1.0680 O   0  0  0  0  0  0  0  0  0  0  0  0
    4.5480   -4.4740    4.2880 C   0  0  0  0  0  2  0  0  0  0  0  0
    5.2740   -4.1850    5.5860 C   0  0  0  0  0  0  0  0  0  0  0  0
    4.8740   -4.7330    6.6220 O   0  0  0  0  0  0  0  0  0  0  0  0
    6.4290   -3.4230    5.5860 N   0  0  0  0  0  0  0  0  0  0  0  0
    7.1120   -2.8840    4.4100 C   0  0  0  0  0  2  0  0  0  0  0  0
    8.6350   -2.9760    4.5740 C   0  0  0  0  0  2  0  0  0  0  0  0
    9.0830   -2.3720    5.7930 O   0  0  0  0  0  0  0  0  0  0  0  0
    8.4570   -2.9950    6.9290 C   0  0  0  0  0  2  0  0  0  0  0  0
    6.9330   -2.8970    6.8580 C   0  0  0  0  0  2  0  0  0  0  0  0
  1  9  1  0  0  0  0
  2  1  2  0  0  0  0
  2  3  1  0  0  0  0
  3  4  2  0  0  0  0
  4  8  1  0  0  0  0
  4  5  1  0  0  0  0
  5 10  1  0  0  0  0
  5  6  2  0  0  0  0
  6 16  1  0  0  0  0
  7  6  1  0  0  0  0
  7 25  1  0  0  0  0
  8  7  1  0  0  0  0
  9  8  2  0  0  0  0
 10 15  1  0  0  0  0
 11 12  1  0  0  0  0
 11 10  1  0  0  0  0
 12 13  1  0  0  0  0
 13 14  1  0  0  0  0
 15 14  1  0  0  0  0
 16 17  1  0  0  0  0
 17 18  2  0  0  0  0
 19 18  1  0  0  0  0
 20 19  2  0  0  0  0
 21 16  2  0  0  0  0
 21 20  1  0  0  0  0
 23 22  1  0  0  0  0
 23  1  1  0  0  0  0
 24 23  2  0  0  0  0
 25 26  1  0  0  0  0
 26 28  1  0  0  0  0
 26 27  2  0  0  0  0
 28 33  1  0  0  0  0
 29 30  1  0  0  0  0
 29 28  1  0  0  0  0
 30 31  1  0  0  0  0
 31 32  1  0  0  0  0
 33 32  1  0  0  0  0
M  END
>  <minimizedAffinity>
-6.59271812

$$$$

 OpenBabel09122222253D

 33 37  0  0  0  0  0  0  0  0999 V2000
    8.4730   -4.3840    0.6650 C   0  0  0  0  0  0  0  0  0  0  0  0
    8.0810   -5.6190    0.1410 C   0  0  0  0  0  3  0  0  0  0  0  0
    7.0140   -6.3380    0.6890 C   0  0  0  0  0  3  0  0  0  0  0  0
    6.3120   -5.8310    1.8040 C   0  0  0  0  0  0  0  0  0  0  0  0
    5.1950   -6.3030    2.5730 C   0  0  0  0  0  0  0  0  0  0  0  0
    4.9520   -5.3520    3.5600 C   0  0  0  0  0  0  0  0  0  0  0  0
    5.9110   -4.3550    3.4350 N   0  0  0  0  0  0  0  0  0  0  0  0
    6.7090   -4.6000    2.3330 C   0  0  0  0  0  0  0  0  0  0  0  0
    7.7660   -3.8610    1.7640 C   0  0  0  0  0  3  0  0  0  0  0  0
    4.4010   -7.5730    2.3560 C   0  0  0  0  0  3  0  0  0  0  0  0
    3.8580   -7.6930    0.9230 C   0  0  0  0  0  2  0  0  0  0  0  0
    3.0380   -8.9690    0.7400 C   0  0  0  0  0  2  0  0  0  0  0  0
    3.8270  -10.2100    1.1450 C   0  0  0  0  0  2  0  0  0  0  0  0
    4.3560  -10.0980    2.5730 C   0  0  0  0  0  2  0  0  0  0  0  0
    5.1850   -8.8300    2.7700 C   0  0  0  0  0  2  0  0  0  0  0  0
    3.9040   -5.3430    4.5820 C   0  0  0  0  0  0  0  0  0  0  0  0
    2.7570   -4.5590    4.4120 C   0  0  0  0  0  3  0  0  0  0  0  0
    1.7560   -4.5560    5.3850 C   0  0  0  0  0  3  0  0  0  0  0  0
    1.9000   -5.3320    6.5340 C   0  0  0  0  0  3  0  0  0  0  0  0
    3.0440   -6.1090    6.7150 C   0  0  0  0  0  3  0  0  0  0  0  0
    4.0450   -6.1130    5.7420 C   0  0  0  0  0  3  0  0  0  0  0  0
   10.1090   -2.6500    0.7370 O   0  0  0  0  0  1  0  0  0  0  0  0
    9.6490   -3.6310    0.0690 C   0  0  0  0  0  0  0  0  0  0  0  0
   10.0810   -4.0270   -1.0600 O   0  0  0  0  0  0  0  0  0  0  0  0
    6.0180   -3.2080    4.3390 C   0  0  0  0  0  2  0  0  0  0  0  0
    6.9650   -3.3310    5.5160 C   0  0  0  0  0  0  0  0  0  0  0  0
    6.6660   -4.1020    6.4360 O   0  0  0  0  0  0  0  0  0  0  0  0
    8.1900   -2.6870    5.4960 N   0  0  0  0  0  0  0  0  0  0  0  0
    8.7430   -1.9100    4.3880 C   0  0  0  0  0  2  0  0  0  0  0  0
   10.2500   -2.1590    4.2450 C   0  0  0  0  0  2  0  0  0  0  0  0
   10.9520   -1.9370    5.4760 O   0  0  0  0  0  0  0  0  0  0  0  0
   10.4380   -2.7890    6.5140 C   0  0  0  0  0  2  0  0  0  0  0  0
    8.9440   -2.5590    6.7470 C   0  0  0  0  0  2  0  0  0  0  0  0
  1  9  1  0  0  0  0
  2  1  2  0  0  0  0
  2  3  1  0  0  0  0
  3  4  2  0  0  0  0
  4  8  1  0  0  0  0
  4  5  1  0  0  0  0
  5  6  2  0  0  0  0
  6 16  1  0  0  0  0
  7  6  1  0  0  0  0
  7 25  1  0  0  0  0
  8  7  1  0  0  0  0
  9  8  2  0  0  0  0
 10  5  1  0  0  0  0
 10 15  1  0  0  0  0
 11 10  1  0  0  0  0
 12 11  1  0  0  0  0
 12 13  1  0  0  0  0
 13 14  1  0  0  0  0
 14 15  1  0  0  0  0
 16 21  1  0  0  0  0
 17 16  2  0  0  0  0
 17 18  1  0  0  0  0
 18 19  2  0  0  0  0
 19 20  1  0  0  0  0
 21 20  2  0  0  0  0
 23  1  1  0  0  0  0
 23 22  1  0  0  0  0
 24 23  2  0  0  0  0
 25 26  1  0  0  0  0
 26 27  2  0  0  0  0
 28 26  1  0  0  0  0
 28 33  1  0  0  0  0
 29 28  1  0  0  0  0
 30 29  1  0  0  0  0
 30 31  1  0  0  0  0
 31 32  1  0  0  0  0
 32 33  1  0  0  0  0
M  END
>  <minimizedAffinity>
-6.53898287

$$$$

 OpenBabel09122222253D

 33 37  0  0  0  0  0  0  0  0999 V2000
    6.3590   -6.0870    1.6170 C   0  0  0  0  0  0  0  0  0  0  0  0
    6.2960   -7.2310    0.8160 C   0  0  0  0  0  3  0  0  0  0  0  0
    5.4280   -8.2850    1.1180 C   0  0  0  0  0  3  0  0  0  0  0  0
    4.6000   -8.2210    2.2580 C   0  0  0  0  0  0  0  0  0  0  0  0
    3.6190   -9.1030    2.8250 C   0  0  0  0  0  0  0  0  0  0  0  0
    3.1270   -8.4810    3.9690 C   0  0  0  0  0  0  0  0  0  0  0  0
    3.8130   -7.2840    4.1300 N   0  0  0  0  0  0  0  0  0  0  0  0
    4.6690   -7.0810    3.0640 C   0  0  0  0  0  0  0  0  0  0  0  0
    5.5220   -6.0050    2.7450 C   0  0  0  0  0  3  0  0  0  0  0  0
    3.1680  -10.4440    2.2860 C   0  0  0  0  0  3  0  0  0  0  0  0
    1.6380  -10.5630    2.2020 C   0  0  0  0  0  2  0  0  0  0  0  0
    1.2100  -11.9350    1.6820 C   0  0  0  0  0  2  0  0  0  0  0  0
    1.8720  -12.2620    0.3470 C   0  0  0  0  0  2  0  0  0  0  0  0
    3.3920  -12.1570    0.4310 C   0  0  0  0  0  2  0  0  0  0  0  0
    3.8350  -10.7870    0.9430 C   0  0  0  0  0  2  0  0  0  0  0  0
    2.0880   -8.9490    4.8890 C   0  0  0  0  0  0  0  0  0  0  0  0
    0.7610   -8.5400    4.7220 C   0  0  0  0  0  3  0  0  0  0  0  0
   -0.2300   -8.9910    5.5960 C   0  0  0  0  0  3  0  0  0  0  0  0
    0.1040   -9.8490    6.6440 C   0  0  0  0  0  3  0  0  0  0  0  0
    1.4270  -10.2530    6.8220 C   0  0  0  0  0  3  0  0  0  0  0  0
    2.4180   -9.8030    5.9470 C   0  0  0  0  0  3  0  0  0  0  0  0
    7.6070   -4.1450    2.2150 O   0  0  0  0  0  1  0  0  0  0  0  0
    7.3250   -4.9640    1.2830 C   0  0  0  0  0  0  0  0  0  0  0  0
    7.7730   -4.9160    0.0930 O   0  0  0  0  0  0  0  0  0  0  0  0
    3.6130   -6.3760    5.2610 C   0  0  0  0  0  2  0  0  0  0  0  0
    2.7290   -5.1660    5.0390 C   0  0  0  0  0  0  0  0  0  0  0  0
    1.5770   -5.3450    4.6240 O   0  0  0  0  0  0  0  0  0  0  0  0
    3.1630   -3.9060    5.4110 N   0  0  0  0  0  0  0  0  0  0  0  0
    4.4180   -3.5870    6.0920 C   0  0  0  0  0  2  0  0  0  0  0  0
    4.2080   -2.4830    7.1360 C   0  0  0  0  0  2  0  0  0  0  0  0
    3.5780   -1.3240    6.5750 O   0  0  0  0  0  0  0  0  0  0  0  0
    2.3050   -1.6660    6.0010 C   0  0  0  0  0  2  0  0  0  0  0  0
    2.4440   -2.7310    4.9110 C   0  0  0  0  0  2  0  0  0  0  0  0
  1  9  1  0  0  0  0
  2  3  1  0  0  0  0
  2  1  2  0  0  0  0
  3  4  2  0  0  0  0
  4  5  1  0  0  0  0
  4  8  1  0  0  0  0
  5  6  2  0  0  0  0
  6  7  1  0  0  0  0
  6 16  1  0  0  0  0
  7 25  1  0  0  0  0
  8  7  1  0  0  0  0
  9  8  2  0  0  0  0
 10  5  1  0  0  0  0
 11 10  1  0  0  0  0
 12 11  1  0  0  0  0
 13 14  1  0  0  0  0
 13 12  1  0  0  0  0
 14 15  1  0  0  0  0
 15 10  1  0  0  0  0
 16 21  1  0  0  0  0
 17 16  2  0  0  0  0
 17 18  1  0  0  0  0
 18 19  2  0  0  0  0
 19 20  1  0  0  0  0
 21 20  2  0  0  0  0
 23  1  1  0  0  0  0
 23 22  1  0  0  0  0
 24 23  2  0  0  0  0
 26 25  1  0  0  0  0
 26 28  1  0  0  0  0
 27 26  2  0  0  0  0
 28 29  1  0  0  0  0
 29 30  1  0  0  0  0
 31 30  1  0  0  0  0
 32 31  1  0  0  0  0
 33 28  1  0  0  0  0
 33 32  1  0  0  0  0
M  END
>  <minimizedAffinity>
-6.0846529

$$$$

 OpenBabel09122222253D

 33 37  0  0  0  0  0  0  0  0999 V2000
    9.8640   -3.7000   -0.0060 C   0  0  0  0  0  0  0  0  0  0  0  0
    9.1840   -4.7710   -0.5910 C   0  0  0  0  0  3  0  0  0  0  0  0
    8.0050   -5.2770   -0.0340 C   0  0  0  0  0  3  0  0  0  0  0  0
    7.4800   -4.7170    1.1510 C   0  0  0  0  0  0  0  0  0  0  0  0
    6.3180   -4.9890    1.9490 C   0  0  0  0  0  0  0  0  0  0  0  0
    6.3340   -4.0880    3.0100 C   0  0  0  0  0  0  0  0  0  0  0  0
    7.4880   -3.3230    2.9000 N   0  0  0  0  0  0  0  0  0  0  0  0
    8.1660   -3.6510    1.7400 C   0  0  0  0  0  0  0  0  0  0  0  0
    9.3380   -3.1210    1.1640 C   0  0  0  0  0  3  0  0  0  0  0  0
    5.2500   -6.0300    1.6910 C   0  0  0  0  0  3  0  0  0  0  0  0
    5.0280   -6.2910    0.1920 C   0  0  0  0  0  2  0  0  0  0  0  0
    3.9270   -7.3230   -0.0410 C   0  0  0  0  0  2  0  0  0  0  0  0
    4.1990   -8.6180    0.7190 C   0  0  0  0  0  2  0  0  0  0  0  0
    4.4060   -8.3620    2.2100 C   0  0  0  0  0  2  0  0  0  0  0  0
    5.5100   -7.3370    2.4580 C   0  0  0  0  0  2  0  0  0  0  0  0
    5.3570   -3.9280    4.0890 C   0  0  0  0  0  0  0  0  0  0  0  0
    5.7550   -4.0460    5.4250 C   0  0  0  0  0  3  0  0  0  0  0  0
    4.8240   -3.8870    6.4530 C   0  0  0  0  0  3  0  0  0  0  0  0
    3.4910   -3.6150    6.1490 C   0  0  0  0  0  3  0  0  0  0  0  0
    3.0850   -3.5060    4.8190 C   0  0  0  0  0  3  0  0  0  0  0  0
    4.0160   -3.6640    3.7900 C   0  0  0  0  0  3  0  0  0  0  0  0
   11.0620   -2.5200   -1.6990 O   0  0  0  0  0  0  0  0  0  0  0  0
   11.1560   -3.1810   -0.6160 C   0  0  0  0  0  0  0  0  0  0  0  0
   12.2380   -3.4550   -0.0060 O   0  0  0  0  0  1  0  0  0  0  0  0
    7.8870   -2.3040    3.8730 C   0  0  0  0  0  2  0  0  0  0  0  0
    9.0660   -2.6180    4.7710 C   0  0  0  0  0  0  0  0  0  0  0  0
    9.6560   -3.6950    4.6170 O   0  0  0  0  0  0  0  0  0  0  0  0
    9.5430   -1.6660    5.6550 N   0  0  0  0  0  0  0  0  0  0  0  0
    9.0620   -0.2910    5.7920 C   0  0  0  0  0  2  0  0  0  0  0  0
   10.2290    0.6740    6.0320 C   0  0  0  0  0  2  0  0  0  0  0  0
   11.0480    0.2670    7.1360 O   0  0  0  0  0  0  0  0  0  0  0  0
   11.5760   -1.0530    6.9160 C   0  0  0  0  0  2  0  0  0  0  0  0
   10.4620   -2.0820    6.7180 C   0  0  0  0  0  2  0  0  0  0  0  0
  1  9  1  0  0  0  0
  2  3  1  0  0  0  0
  2  1  2  0  0  0  0
  3  4  2  0  0  0  0
  4  8  1  0  0  0  0
  4  5  1  0  0  0  0
  5  6  2  0  0  0  0
  6 16  1  0  0  0  0
  7  6  1  0  0  0  0
  7 25  1  0  0  0  0
  8  7  1  0  0  0  0
  9  8  2  0  0  0  0
 10  5  1  0  0  0  0
 10 15  1  0  0  0  0
 11 10  1  0  0  0  0
 12 11  1  0  0  0  0
 12 13  1  0  0  0  0
 13 14  1  0  0  0  0
 14 15  1  0  0  0  0
 16 17  1  0  0  0  0
 17 18  2  0  0  0  0
 19 18  1  0  0  0  0
 20 19  2  0  0  0  0
 21 16  2  0  0  0  0
 21 20  1  0  0  0  0
 22 23  2  0  0  0  0
 23 24  1  0  0  0  0
 23  1  1  0  0  0  0
 25 26  1  0  0  0  0
 26 28  1  0  0  0  0
 27 26  2  0  0  0  0
 28 29  1  0  0  0  0
 28 33  1  0  0  0  0
 29 30  1  0  0  0  0
 30 31  1  0  0  0  0
 32 31  1  0  0  0  0
 33 32  1  0  0  0  0
M  END
>  <minimizedAffinity>
-5.98351002

$$$$

 OpenBabel09122222253D

 33 37  0  0  0  0  0  0  0  0999 V2000
    9.1020   -1.7830    5.5850 C   0  0  0  0  0  0  0  0  0  0  0  0
    7.9440   -1.9220    6.3550 C   0  0  0  0  0  3  0  0  0  0  0  0
    6.8560   -2.6760    5.9040 C   0  0  0  0  0  3  0  0  0  0  0  0
    6.9010   -3.3080    4.6430 C   0  0  0  0  0  0  0  0  0  0  0  0
    5.9840   -4.1390    3.9140 C   0  0  0  0  0  0  0  0  0  0  0  0
    6.6010   -4.4650    2.7100 C   0  0  0  0  0  0  0  0  0  0  0  0
    7.8310   -3.8200    2.6750 N   0  0  0  0  0  0  0  0  0  0  0  0
    8.0560   -3.1620    3.8700 C   0  0  0  0  0  0  0  0  0  0  0  0
    9.1650   -2.4260    4.3350 C   0  0  0  0  0  3  0  0  0  0  0  0
    4.6160   -4.6070    4.3600 C   0  0  0  0  0  3  0  0  0  0  0  0
    4.6020   -5.0880    5.8200 C   0  0  0  0  0  2  0  0  0  0  0  0
    3.2170   -5.5820    6.2350 C   0  0  0  0  0  2  0  0  0  0  0  0
    2.1440   -4.5260    5.9830 C   0  0  0  0  0  2  0  0  0  0  0  0
    2.1480   -4.0570    4.5300 C   0  0  0  0  0  2  0  0  0  0  0  0
    3.5250   -3.5530    4.1030 C   0  0  0  0  0  2  0  0  0  0  0  0
    6.1020   -5.3140    1.6270 C   0  0  0  0  0  0  0  0  0  0  0  0
    4.9970   -4.9130    0.8680 C   0  0  0  0  0  3  0  0  0  0  0  0
    4.5250   -5.7210   -0.1690 C   0  0  0  0  0  3  0  0  0  0  0  0
    5.1530   -6.9340   -0.4470 C   0  0  0  0  0  3  0  0  0  0  0  0
    6.2500   -7.3440    0.3110 C   0  0  0  0  0  3  0  0  0  0  0  0
    6.7230   -6.5360    1.3480 C   0  0  0  0  0  3  0  0  0  0  0  0
   10.0510    0.3040    6.2430 O   0  0  0  0  0  0  0  0  0  0  0  0
   10.2630   -0.9400    6.0840 C   0  0  0  0  0  0  0  0  0  0  0  0
   11.3660   -1.5370    6.2960 O   0  0  0  0  0  1  0  0  0  0  0  0
    8.7480   -3.8730    1.5340 C   0  0  0  0  0  2  0  0  0  0  0  0
    9.1290   -2.5600    0.8810 C   0  0  0  0  0  0  0  0  0  0  0  0
    8.6890   -1.5100    1.3660 O   0  0  0  0  0  0  0  0  0  0  0  0
   10.0450   -2.5360   -0.1550 N   0  0  0  0  0  0  0  0  0  0  0  0
   10.7830   -3.6810   -0.6870 C   0  0  0  0  0  2  0  0  0  0  0  0
   12.2260   -3.2890   -1.0320 C   0  0  0  0  0  2  0  0  0  0  0  0
   12.2820   -2.1490   -1.9000 O   0  0  0  0  0  0  0  0  0  0  0  0
   11.6260   -1.0200   -1.2970 C   0  0  0  0  0  2  0  0  0  0  0  0
   10.1630   -1.3230   -0.9710 C   0  0  0  0  0  2  0  0  0  0  0  0
  1 23  1  0  0  0  0
  1  2  1  0  0  0  0
  3  2  2  0  0  0  0
  4  3  1  0  0  0  0
  5 10  1  0  0  0  0
  5  4  1  0  0  0  0
  6  5  2  0  0  0  0
  7  6  1  0  0  0  0
  7  8  1  0  0  0  0
  8  9  1  0  0  0  0
  8  4  2  0  0  0  0
  9  1  2  0  0  0  0
 10 11  1  0  0  0  0
 11 12  1  0  0  0  0
 13 12  1  0  0  0  0
 14 13  1  0  0  0  0
 15 10  1  0  0  0  0
 15 14  1  0  0  0  0
 16  6  1  0  0  0  0
 17 16  2  0  0  0  0
 18 17  1  0  0  0  0
 19 18  2  0  0  0  0
 19 20  1  0  0  0  0
 20 21  2  0  0  0  0
 21 16  1  0  0  0  0
 23 22  2  0  0  0  0
 23 24  1  0  0  0  0
 25  7  1  0  0  0  0
 26 27  2  0  0  0  0
 26 25  1  0  0  0  0
 28 26  1  0  0  0  0
 29 28  1  0  0  0  0
 30 29  1  0  0  0  0
 31 32  1  0  0  0  0
 31 30  1  0  0  0  0
 32 33  1  0  0  0  0
 33 28  1  0  0  0  0
M  END
>  <minimizedAffinity>
-5.86367178

$$$$
