
 OpenBabel09122222393D

 33 37  0  0  0  0  0  0  0  0999 V2000
    9.1020   -1.7830    5.5850 C   0  0  0  0  0  0  0  0  0  0  0  0
    7.9440   -1.9220    6.3550 C   0  0  0  0  0  3  0  0  0  0  0  0
    6.8560   -2.6760    5.9040 C   0  0  0  0  0  3  0  0  0  0  0  0
    6.9010   -3.3080    4.6430 C   0  0  0  0  0  0  0  0  0  0  0  0
    5.9840   -4.1390    3.9140 C   0  0  0  0  0  0  0  0  0  0  0  0
    6.6010   -4.4650    2.7100 C   0  0  0  0  0  0  0  0  0  0  0  0
    7.8310   -3.8200    2.6750 N   0  0  0  0  0  0  0  0  0  0  0  0
    8.0560   -3.1620    3.8700 C   0  0  0  0  0  0  0  0  0  0  0  0
    9.1650   -2.4260    4.3350 C   0  0  0  0  0  3  0  0  0  0  0  0
    4.6160   -4.6070    4.3600 C   0  0  0  0  0  3  0  0  0  0  0  0
    4.6020   -5.0880    5.8200 C   0  0  0  0  0  2  0  0  0  0  0  0
    3.2170   -5.5820    6.2350 C   0  0  0  0  0  2  0  0  0  0  0  0
    2.1440   -4.5260    5.9830 C   0  0  0  0  0  2  0  0  0  0  0  0
    2.1480   -4.0570    4.5300 C   0  0  0  0  0  2  0  0  0  0  0  0
    3.5250   -3.5530    4.1030 C   0  0  0  0  0  2  0  0  0  0  0  0
    6.1020   -5.3140    1.6270 C   0  0  0  0  0  0  0  0  0  0  0  0
    4.9970   -4.9130    0.8680 C   0  0  0  0  0  3  0  0  0  0  0  0
    4.5250   -5.7210   -0.1690 C   0  0  0  0  0  3  0  0  0  0  0  0
    5.1530   -6.9340   -0.4470 C   0  0  0  0  0  3  0  0  0  0  0  0
    6.2500   -7.3440    0.3110 C   0  0  0  0  0  3  0  0  0  0  0  0
    6.7230   -6.5360    1.3480 C   0  0  0  0  0  3  0  0  0  0  0  0
   10.0510    0.3040    6.2430 O   0  0  0  0  0  0  0  0  0  0  0  0
   10.2630   -0.9400    6.0840 C   0  0  0  0  0  0  0  0  0  0  0  0
   11.3660   -1.5370    6.2960 O   0  0  0  0  0  1  0  0  0  0  0  0
    8.7480   -3.8730    1.5340 C   0  0  0  0  0  2  0  0  0  0  0  0
    9.1290   -2.5600    0.8810 C   0  0  0  0  0  0  0  0  0  0  0  0
    8.6890   -1.5100    1.3660 O   0  0  0  0  0  0  0  0  0  0  0  0
   10.0450   -2.5360   -0.1550 N   0  0  0  0  0  0  0  0  0  0  0  0
   10.7830   -3.6810   -0.6870 C   0  0  0  0  0  2  0  0  0  0  0  0
   12.2260   -3.2890   -1.0320 C   0  0  0  0  0  2  0  0  0  0  0  0
   12.2820   -2.1490   -1.9000 O   0  0  0  0  0  0  0  0  0  0  0  0
   11.6260   -1.0200   -1.2970 C   0  0  0  0  0  2  0  0  0  0  0  0
   10.1630   -1.3230   -0.9710 C   0  0  0  0  0  2  0  0  0  0  0  0
  1 23  1  0  0  0  0
  1  2  1  0  0  0  0
  3  2  2  0  0  0  0
  4  3  1  0  0  0  0
  5 10  1  0  0  0  0
  5  4  1  0  0  0  0
  6  5  2  0  0  0  0
  7  6  1  0  0  0  0
  7  8  1  0  0  0  0
  8  9  1  0  0  0  0
  8  4  2  0  0  0  0
  9  1  2  0  0  0  0
 10 11  1  0  0  0  0
 11 12  1  0  0  0  0
 13 12  1  0  0  0  0
 14 13  1  0  0  0  0
 15 10  1  0  0  0  0
 15 14  1  0  0  0  0
 16  6  1  0  0  0  0
 17 16  2  0  0  0  0
 18 17  1  0  0  0  0
 19 18  2  0  0  0  0
 19 20  1  0  0  0  0
 20 21  2  0  0  0  0
 21 16  1  0  0  0  0
 23 22  2  0  0  0  0
 23 24  1  0  0  0  0
 25  7  1  0  0  0  0
 26 27  2  0  0  0  0
 26 25  1  0  0  0  0
 28 26  1  0  0  0  0
 29 28  1  0  0  0  0
 30 29  1  0  0  0  0
 31 32  1  0  0  0  0
 31 30  1  0  0  0  0
 32 33  1  0  0  0  0
 33 28  1  0  0  0  0
M  END
>  <minimizedAffinity>
-5.86367178

$$$$
