
 OpenBabel09122222393D

 33 37  0  0  0  0  0  0  0  0999 V2000
    9.8640   -3.7000   -0.0060 C   0  0  0  0  0  0  0  0  0  0  0  0
    9.1840   -4.7710   -0.5910 C   0  0  0  0  0  3  0  0  0  0  0  0
    8.0050   -5.2770   -0.0340 C   0  0  0  0  0  3  0  0  0  0  0  0
    7.4800   -4.7170    1.1510 C   0  0  0  0  0  0  0  0  0  0  0  0
    6.3180   -4.9890    1.9490 C   0  0  0  0  0  0  0  0  0  0  0  0
    6.3340   -4.0880    3.0100 C   0  0  0  0  0  0  0  0  0  0  0  0
    7.4880   -3.3230    2.9000 N   0  0  0  0  0  0  0  0  0  0  0  0
    8.1660   -3.6510    1.7400 C   0  0  0  0  0  0  0  0  0  0  0  0
    9.3380   -3.1210    1.1640 C   0  0  0  0  0  3  0  0  0  0  0  0
    5.2500   -6.0300    1.6910 C   0  0  0  0  0  3  0  0  0  0  0  0
    5.0280   -6.2910    0.1920 C   0  0  0  0  0  2  0  0  0  0  0  0
    3.9270   -7.3230   -0.0410 C   0  0  0  0  0  2  0  0  0  0  0  0
    4.1990   -8.6180    0.7190 C   0  0  0  0  0  2  0  0  0  0  0  0
    4.4060   -8.3620    2.2100 C   0  0  0  0  0  2  0  0  0  0  0  0
    5.5100   -7.3370    2.4580 C   0  0  0  0  0  2  0  0  0  0  0  0
    5.3570   -3.9280    4.0890 C   0  0  0  0  0  0  0  0  0  0  0  0
    5.7550   -4.0460    5.4250 C   0  0  0  0  0  3  0  0  0  0  0  0
    4.8240   -3.8870    6.4530 C   0  0  0  0  0  3  0  0  0  0  0  0
    3.4910   -3.6150    6.1490 C   0  0  0  0  0  3  0  0  0  0  0  0
    3.0850   -3.5060    4.8190 C   0  0  0  0  0  3  0  0  0  0  0  0
    4.0160   -3.6640    3.7900 C   0  0  0  0  0  3  0  0  0  0  0  0
   11.0620   -2.5200   -1.6990 O   0  0  0  0  0  0  0  0  0  0  0  0
   11.1560   -3.1810   -0.6160 C   0  0  0  0  0  0  0  0  0  0  0  0
   12.2380   -3.4550   -0.0060 O   0  0  0  0  0  1  0  0  0  0  0  0
    7.8870   -2.3040    3.8730 C   0  0  0  0  0  2  0  0  0  0  0  0
    9.0660   -2.6180    4.7710 C   0  0  0  0  0  0  0  0  0  0  0  0
    9.6560   -3.6950    4.6170 O   0  0  0  0  0  0  0  0  0  0  0  0
    9.5430   -1.6660    5.6550 N   0  0  0  0  0  0  0  0  0  0  0  0
    9.0620   -0.2910    5.7920 C   0  0  0  0  0  2  0  0  0  0  0  0
   10.2290    0.6740    6.0320 C   0  0  0  0  0  2  0  0  0  0  0  0
   11.0480    0.2670    7.1360 O   0  0  0  0  0  0  0  0  0  0  0  0
   11.5760   -1.0530    6.9160 C   0  0  0  0  0  2  0  0  0  0  0  0
   10.4620   -2.0820    6.7180 C   0  0  0  0  0  2  0  0  0  0  0  0
  1  9  1  0  0  0  0
  2  3  1  0  0  0  0
  2  1  2  0  0  0  0
  3  4  2  0  0  0  0
  4  8  1  0  0  0  0
  4  5  1  0  0  0  0
  5  6  2  0  0  0  0
  6 16  1  0  0  0  0
  7  6  1  0  0  0  0
  7 25  1  0  0  0  0
  8  7  1  0  0  0  0
  9  8  2  0  0  0  0
 10  5  1  0  0  0  0
 10 15  1  0  0  0  0
 11 10  1  0  0  0  0
 12 11  1  0  0  0  0
 12 13  1  0  0  0  0
 13 14  1  0  0  0  0
 14 15  1  0  0  0  0
 16 17  1  0  0  0  0
 17 18  2  0  0  0  0
 19 18  1  0  0  0  0
 20 19  2  0  0  0  0
 21 16  2  0  0  0  0
 21 20  1  0  0  0  0
 22 23  2  0  0  0  0
 23 24  1  0  0  0  0
 23  1  1  0  0  0  0
 25 26  1  0  0  0  0
 26 28  1  0  0  0  0
 27 26  2  0  0  0  0
 28 29  1  0  0  0  0
 28 33  1  0  0  0  0
 29 30  1  0  0  0  0
 30 31  1  0  0  0  0
 32 31  1  0  0  0  0
 33 32  1  0  0  0  0
M  END
>  <minimizedAffinity>
-5.98351002

$$$$
