REMARK  Name = 
REMARK  4 active torsions:
REMARK  status: ('A' for Active; 'I' for Inactive)
REMARK    1  A    between atoms: C_2  and  C_12
REMARK    2  A    between atoms: C_7  and  C_8
REMARK    3  A    between atoms: C_15  and  O_16
REMARK    4  A    between atoms: O_16  and  C_17
REMARK                            x       y       z     vdW  Elec       q    Type
REMARK                         _______ _______ _______ _____ _____    ______ ____
ROOT
ATOM      1  C   UNL     1       2.879  -1.372   0.170  0.00  0.00    +0.037 A 
ATOM      2  C   UNL     1       3.815  -2.038   0.971  0.00  0.00    +0.016 A 
ATOM      3  C   UNL     1       4.133  -3.371   0.702  0.00  0.00    +0.047 A 
ATOM      4  C   UNL     1       3.513  -4.034  -0.357  0.00  0.00    +0.128 A 
ATOM      5  C   UNL     1       2.539  -3.388  -1.125  0.00  0.00    +0.047 A 
ATOM      6  C   UNL     1       2.221  -2.055  -0.860  0.00  0.00    +0.016 A 
ENDROOT
BRANCH   1   8
ATOM      7  O   UNL     1       1.267   0.234   0.651  0.00  0.00    -0.270 OA
ATOM      8  C   UNL     1       2.467   0.017   0.470  0.00  0.00    +0.250 C 
ATOM      9  N   UNL     1       3.368   1.042   0.579  0.00  0.00    -0.261 N 
ATOM     10  C   UNL     1       4.678   1.036   0.197  0.00  0.00    +0.165 A 
ATOM     11  N   UNL     1       5.374   0.085  -0.368  0.00  0.00    -0.232 NA
ATOM     12  C   UNL     1       6.666   0.549  -0.573  0.00  0.00    +0.130 A 
ATOM     13  C   UNL     1       6.906   1.843  -0.163  0.00  0.00    +0.056 A 
ATOM     14  S   UNL     1       5.478   2.513   0.493  0.00  0.00    -0.051 S 
ATOM     15  H   UNL     1       3.004   1.927   0.896  0.00  0.00    +0.157 HD
BRANCH  13  16
ATOM     16  C   UNL     1       8.209   2.522  -0.285  0.00  0.00    +0.080 C 
ATOM     17  O   UNL     1       8.282   3.716   0.137  0.00  0.00    -0.544 OA
ATOM     18  O   UNL     1       9.149   1.845  -0.804  0.00  0.00    -0.544 OA
ENDBRANCH  13  16
ENDBRANCH   1   8
BRANCH   4  19
ATOM     19  O   UNL     1       3.845  -5.356  -0.550  0.00  0.00    -0.456 OA
BRANCH  19  20
ATOM     20  C   UNL     1       4.145  -5.748  -1.836  0.00  0.00    +0.128 A 
ATOM     21  C   UNL     1       3.615  -6.966  -2.263  0.00  0.00    +0.046 A 
ATOM     22  C   UNL     1       3.904  -7.440  -3.543  0.00  0.00    +0.004 A 
ATOM     23  C   UNL     1       4.735  -6.703  -4.388  0.00  0.00    +0.000 A 
ATOM     24  C   UNL     1       5.284  -5.496  -3.951  0.00  0.00    +0.004 A 
ATOM     25  C   UNL     1       4.997  -5.020  -2.671  0.00  0.00    +0.046 A 
ENDBRANCH  19  20
ENDBRANCH   4  19
TORSDOF 4
