
 OpenBabel09122222393D

 25 27  0  0  0  0  0  0  0  0999 V2000
    9.0140   -4.1900   -0.3400 C   0  0  0  0  0  0  0  0  0  0  0  0
    7.9900   -4.6920   -1.1530 C   0  0  0  0  0  3  0  0  0  0  0  0
    6.9160   -5.3720   -0.5750 C   0  0  0  0  0  3  0  0  0  0  0  0
    6.8710   -5.5540    0.8070 C   0  0  0  0  0  0  0  0  0  0  0  0
    7.9170   -5.1010    1.6160 C   0  0  0  0  0  3  0  0  0  0  0  0
    8.9910   -4.4190    1.0410 C   0  0  0  0  0  3  0  0  0  0  0  0
   10.9510   -4.2090   -1.6270 O   0  0  0  0  0  0  0  0  0  0  0  0
   10.2000   -3.5280   -0.9250 C   0  0  0  0  0  0  0  0  0  0  0  0
   10.4650   -2.1980   -0.7360 N   0  0  0  0  0  0  0  0  0  0  0  0
    9.8870   -1.3600    0.1720 C   0  0  0  0  0  0  0  0  0  0  0  0
    8.9750   -1.6140    1.0740 N   0  0  0  0  0  0  0  0  0  0  0  0
    8.7070   -0.4430    1.7690 C   0  0  0  0  0  3  0  0  0  0  0  0
    9.4310    0.6620    1.3760 C   0  0  0  0  0  0  0  0  0  0  0  0
   10.4890    0.2340    0.1050 S   0  0  0  0  0  0  0  0  0  0  0  0
   11.2320   -1.8140   -1.2660 H   0  0  0  0  0  0  0  0  0  0  0  0
    9.2930    2.0000    1.9800 C   0  0  0  0  0  0  0  0  0  0  0  0
    9.1580    2.9820    1.1880 O   0  0  0  0  0  0  0  0  0  0  0  0
    9.3210    2.0500    3.2480 O   0  0  0  0  0  1  0  0  0  0  0  0
    5.8030   -6.2610    1.3120 O   0  0  0  0  0  0  0  0  0  0  0  0
    5.0990   -5.6840    2.3460 C   0  0  0  0  0  0  0  0  0  0  0  0
    4.6850   -6.5300    3.3750 C   0  0  0  0  0  3  0  0  0  0  0  0
    3.9410   -6.0190    4.4390 C   0  0  0  0  0  3  0  0  0  0  0  0
    3.6000   -4.6660    4.4650 C   0  0  0  0  0  3  0  0  0  0  0  0
    3.9950   -3.8250    3.4230 C   0  0  0  0  0  3  0  0  0  0  0  0
    4.7380   -4.3340    2.3570 C   0  0  0  0  0  3  0  0  0  0  0  0
  1  6  1  0  0  0  0
  2  3  1  0  0  0  0
  2  1  2  0  0  0  0
  3  4  2  0  0  0  0
  4 19  1  0  0  0  0
  4  5  1  0  0  0  0
  6  5  2  0  0  0  0
  7  8  2  0  0  0  0
  8  9  1  0  0  0  0
  8  1  1  0  0  0  0
  9 10  1  0  0  0  0
 10 11  2  0  0  0  0
 11 12  1  0  0  0  0
 13 12  2  0  0  0  0
 13 16  1  0  0  0  0
 14 10  1  0  0  0  0
 14 13  1  0  0  0  0
 15  9  1  0  0  0  0
 16 18  1  0  0  0  0
 17 16  2  0  0  0  0
 19 20  1  0  0  0  0
 20 25  2  0  0  0  0
 20 21  1  0  0  0  0
 21 22  2  0  0  0  0
 22 23  1  0  0  0  0
 24 23  2  0  0  0  0
 25 24  1  0  0  0  0
M  END
>  <minimizedAffinity>
-6.11794519

$$$$
