
 OpenBabel09122222163D

 25 27  0  0  0  0  0  0  0  0999 V2000
    6.0830   -5.6040    0.1120 C   0  0  0  0  0  0  0  0  0  0  0  0
    6.8870   -5.5840   -1.0350 C   0  0  0  0  0  3  0  0  0  0  0  0
    8.2300   -5.2170   -0.9330 C   0  0  0  0  0  3  0  0  0  0  0  0
    8.7630   -4.8660    0.3070 C   0  0  0  0  0  0  0  0  0  0  0  0
    7.9500   -4.8330    1.4440 C   0  0  0  0  0  3  0  0  0  0  0  0
    6.6080   -5.2020    1.3460 C   0  0  0  0  0  3  0  0  0  0  0  0
    3.9110   -5.1220   -0.5640 O   0  0  0  0  0  0  0  0  0  0  0  0
    4.6400   -5.9200    0.0290 C   0  0  0  0  0  0  0  0  0  0  0  0
    4.1090   -7.0660    0.5560 N   0  0  0  0  0  0  0  0  0  0  0  0
    4.7080   -7.9340    1.4220 C   0  0  0  0  0  0  0  0  0  0  0  0
    5.8960   -7.8790    1.9630 N   0  0  0  0  0  0  0  0  0  0  0  0
    6.0560   -8.9870    2.7840 C   0  0  0  0  0  3  0  0  0  0  0  0
    4.9780   -9.8430    2.8460 C   0  0  0  0  0  0  0  0  0  0  0  0
    3.7160   -9.2520    1.8570 S   0  0  0  0  0  0  0  0  0  0  0  0
    3.1380   -7.2460    0.3510 H   0  0  0  0  0  0  0  0  0  0  0  0
    4.9450  -11.0770    3.6530 C   0  0  0  0  0  0  0  0  0  0  0  0
    3.8070  -11.4980    4.0210 O   0  0  0  0  0  1  0  0  0  0  0  0
    6.0680  -11.6120    3.9070 O   0  0  0  0  0  0  0  0  0  0  0  0
   10.0850   -4.4820    0.3360 O   0  0  0  0  0  0  0  0  0  0  0  0
   10.4060   -3.2850   -0.2670 C   0  0  0  0  0  0  0  0  0  0  0  0
   11.3850   -3.3240   -1.2610 C   0  0  0  0  0  3  0  0  0  0  0  0
   11.7820   -2.1440   -1.8920 C   0  0  0  0  0  3  0  0  0  0  0  0
   11.2110   -0.9270   -1.5180 C   0  0  0  0  0  3  0  0  0  0  0  0
   10.2490   -0.8870   -0.5070 C   0  0  0  0  0  3  0  0  0  0  0  0
    9.8500   -2.0650    0.1260 C   0  0  0  0  0  3  0  0  0  0  0  0
  1  6  1  0  0  0  0
  2  3  1  0  0  0  0
  2  1  2  0  0  0  0
  3  4  2  0  0  0  0
  4 19  1  0  0  0  0
  4  5  1  0  0  0  0
  6  5  2  0  0  0  0
  7  8  2  0  0  0  0
  8  1  1  0  0  0  0
  8  9  1  0  0  0  0
  9 10  1  0  0  0  0
 10 14  1  0  0  0  0
 10 11  2  0  0  0  0
 11 12  1  0  0  0  0
 12 13  2  0  0  0  0
 13 16  1  0  0  0  0
 14 13  1  0  0  0  0
 15  9  1  0  0  0  0
 16 18  2  0  0  0  0
 16 17  1  0  0  0  0
 20 25  1  0  0  0  0
 20 19  1  0  0  0  0
 21 20  2  0  0  0  0
 22 23  2  0  0  0  0
 22 21  1  0  0  0  0
 23 24  1  0  0  0  0
 24 25  2  0  0  0  0
M  END
>  <minimizedAffinity>
-6.93809843

$$$$

 OpenBabel09122222163D

 25 27  0  0  0  0  0  0  0  0999 V2000
    7.0810   -5.7480    0.3130 C   0  0  0  0  0  0  0  0  0  0  0  0
    7.5940   -6.8130    1.0640 C   0  0  0  0  0  3  0  0  0  0  0  0
    6.7440   -7.5500    1.8900 C   0  0  0  0  0  3  0  0  0  0  0  0
    5.3910   -7.2180    1.9700 C   0  0  0  0  0  0  0  0  0  0  0  0
    4.8870   -6.1220    1.2630 C   0  0  0  0  0  3  0  0  0  0  0  0
    5.7340   -5.3850    0.4330 C   0  0  0  0  0  3  0  0  0  0  0  0
    8.0980   -5.2030   -1.7070 O   0  0  0  0  0  0  0  0  0  0  0  0
    7.9670   -4.9020   -0.5180 C   0  0  0  0  0  0  0  0  0  0  0  0
    8.6080   -3.8000   -0.0200 N   0  0  0  0  0  0  0  0  0  0  0  0
    8.7590   -3.4530    1.2910 C   0  0  0  0  0  0  0  0  0  0  0  0
    8.3570   -4.0770    2.3670 N   0  0  0  0  0  0  0  0  0  0  0  0
    8.7500   -3.3390    3.4750 C   0  0  0  0  0  3  0  0  0  0  0  0
    9.4460   -2.1810    3.2020 C   0  0  0  0  0  0  0  0  0  0  0  0
    9.6280   -2.0020    1.5130 S   0  0  0  0  0  0  0  0  0  0  0  0
    9.0970   -3.2260   -0.6890 H   0  0  0  0  0  0  0  0  0  0  0  0
    9.9470   -1.2540    4.2340 C   0  0  0  0  0  0  0  0  0  0  0  0
   10.8170   -1.7000    5.0410 O   0  0  0  0  0  1  0  0  0  0  0  0
    9.4590   -0.0820    4.2210 O   0  0  0  0  0  0  0  0  0  0  0  0
    4.6120   -7.9620    2.8270 O   0  0  0  0  0  0  0  0  0  0  0  0
    4.1840   -9.1930    2.3810 C   0  0  0  0  0  0  0  0  0  0  0  0
    3.2110   -9.1960    1.3810 C   0  0  0  0  0  3  0  0  0  0  0  0
    2.7090  -10.4070    0.9040 C   0  0  0  0  0  3  0  0  0  0  0  0
    3.1680  -11.6120    1.4380 C   0  0  0  0  0  3  0  0  0  0  0  0
    4.1250  -11.6060    2.4550 C   0  0  0  0  0  3  0  0  0  0  0  0
    4.6290  -10.3960    2.9350 C   0  0  0  0  0  3  0  0  0  0  0  0
  1  6  2  0  0  0  0
  1  2  1  0  0  0  0
  2  3  2  0  0  0  0
  3  4  1  0  0  0  0
  4 19  1  0  0  0  0
  5  4  2  0  0  0  0
  6  5  1  0  0  0  0
  7  8  2  0  0  0  0
  8  9  1  0  0  0  0
  8  1  1  0  0  0  0
  9 10  1  0  0  0  0
 10 14  1  0  0  0  0
 10 11  2  0  0  0  0
 11 12  1  0  0  0  0
 13 12  2  0  0  0  0
 13 16  1  0  0  0  0
 14 13  1  0  0  0  0
 15  9  1  0  0  0  0
 16 17  1  0  0  0  0
 18 16  2  0  0  0  0
 20 19  1  0  0  0  0
 20 25  1  0  0  0  0
 21 20  2  0  0  0  0
 22 21  1  0  0  0  0
 22 23  2  0  0  0  0
 23 24  1  0  0  0  0
 24 25  2  0  0  0  0
M  END
>  <minimizedAffinity>
-6.72126007

$$$$

 OpenBabel09122222163D

 25 27  0  0  0  0  0  0  0  0999 V2000
    9.4280   -2.1080    2.7920 C   0  0  0  0  0  0  0  0  0  0  0  0
    8.8850   -1.1970    1.8780 C   0  0  0  0  0  3  0  0  0  0  0  0
    9.2810   -1.2400    0.5400 C   0  0  0  0  0  3  0  0  0  0  0  0
   10.2200   -2.1830    0.1210 C   0  0  0  0  0  0  0  0  0  0  0  0
   10.8040   -3.0580    1.0420 C   0  0  0  0  0  3  0  0  0  0  0  0
   10.4080   -3.0200    2.3800 C   0  0  0  0  0  3  0  0  0  0  0  0
    9.8870   -1.4990    4.9900 O   0  0  0  0  0  0  0  0  0  0  0  0
    9.0840   -2.0460    4.2300 C   0  0  0  0  0  0  0  0  0  0  0  0
    7.9090   -2.5430    4.7250 N   0  0  0  0  0  0  0  0  0  0  0  0
    7.0240   -3.3640    4.0880 C   0  0  0  0  0  0  0  0  0  0  0  0
    7.0860   -3.8800    2.8890 N   0  0  0  0  0  0  0  0  0  0  0  0
    5.9540   -4.6580    2.6870 C   0  0  0  0  0  3  0  0  0  0  0  0
    5.0720   -4.7120    3.7450 C   0  0  0  0  0  0  0  0  0  0  0  0
    5.6700   -3.7730    5.0410 S   0  0  0  0  0  0  0  0  0  0  0  0
    7.7150   -2.3530    5.6960 H   0  0  0  0  0  0  0  0  0  0  0  0
    3.8100   -5.4740    3.7340 C   0  0  0  0  0  0  0  0  0  0  0  0
    3.7810   -6.5360    3.0400 O   0  0  0  0  0  0  0  0  0  0  0  0
    2.8590   -4.9970    4.4260 O   0  0  0  0  0  1  0  0  0  0  0  0
   10.5930   -2.1520   -1.2030 O   0  0  0  0  0  0  0  0  0  0  0  0
   11.3070   -1.0530   -1.6300 C   0  0  0  0  0  0  0  0  0  0  0  0
   10.6320    0.1680   -1.6470 C   0  0  0  0  0  3  0  0  0  0  0  0
   11.2840    1.3160   -2.0980 C   0  0  0  0  0  3  0  0  0  0  0  0
   12.6040    1.2380   -2.5460 C   0  0  0  0  0  3  0  0  0  0  0  0
   13.2700    0.0110   -2.5510 C   0  0  0  0  0  3  0  0  0  0  0  0
   12.6200   -1.1390   -2.1010 C   0  0  0  0  0  3  0  0  0  0  0  0
  1  8  1  0  0  0  0
  2  1  2  0  0  0  0
  3  2  1  0  0  0  0
  4  3  2  0  0  0  0
  4  5  1  0  0  0  0
  5  6  2  0  0  0  0
  6  1  1  0  0  0  0
  8  9  1  0  0  0  0
  8  7  2  0  0  0  0
  9 15  1  0  0  0  0
 10  9  1  0  0  0  0
 10 14  1  0  0  0  0
 11 10  2  0  0  0  0
 12 11  1  0  0  0  0
 12 13  2  0  0  0  0
 13 14  1  0  0  0  0
 16 13  1  0  0  0  0
 16 18  1  0  0  0  0
 17 16  2  0  0  0  0
 19  4  1  0  0  0  0
 20 19  1  0  0  0  0
 21 20  1  0  0  0  0
 22 21  2  0  0  0  0
 23 22  1  0  0  0  0
 24 23  2  0  0  0  0
 24 25  1  0  0  0  0
 25 20  2  0  0  0  0
M  END
>  <minimizedAffinity>
-6.68537045

$$$$

 OpenBabel09122222163D

 25 27  0  0  0  0  0  0  0  0999 V2000
    7.7060   -5.4150    1.1230 C   0  0  0  0  0  0  0  0  0  0  0  0
    8.1000   -4.5280    2.1320 C   0  0  0  0  0  3  0  0  0  0  0  0
    8.8090   -3.3720    1.7990 C   0  0  0  0  0  3  0  0  0  0  0  0
    9.1280   -3.1100    0.4670 C   0  0  0  0  0  0  0  0  0  0  0  0
    8.7820   -4.0210   -0.5370 C   0  0  0  0  0  3  0  0  0  0  0  0
    8.0710   -5.1760   -0.2070 C   0  0  0  0  0  3  0  0  0  0  0  0
    7.4780   -7.7250    0.9780 O   0  0  0  0  0  0  0  0  0  0  0  0
    7.0150   -6.6830    1.4470 C   0  0  0  0  0  0  0  0  0  0  0  0
    5.9160   -6.7320    2.2620 N   0  0  0  0  0  0  0  0  0  0  0  0
    5.1470   -5.6850    2.6770 C   0  0  0  0  0  0  0  0  0  0  0  0
    5.2540   -4.4130    2.3960 N   0  0  0  0  0  0  0  0  0  0  0  0
    4.2360   -3.7320    3.0490 C   0  0  0  0  0  3  0  0  0  0  0  0
    3.3840   -4.5120    3.8000 C   0  0  0  0  0  0  0  0  0  0  0  0
    3.8540   -6.1510    3.6880 S   0  0  0  0  0  0  0  0  0  0  0  0
    5.5850   -7.6510    2.5130 H   0  0  0  0  0  0  0  0  0  0  0  0
    2.2450   -3.9860    4.5740 C   0  0  0  0  0  0  0  0  0  0  0  0
    1.4010   -4.8270    5.0090 O   0  0  0  0  0  1  0  0  0  0  0  0
    2.2110   -2.7280    4.7390 O   0  0  0  0  0  0  0  0  0  0  0  0
    9.8560   -1.9710    0.2080 O   0  0  0  0  0  0  0  0  0  0  0  0
   10.9290   -2.0920   -0.6480 C   0  0  0  0  0  0  0  0  0  0  0  0
   10.9930   -1.1880   -1.7090 C   0  0  0  0  0  3  0  0  0  0  0  0
   12.0360   -1.2720   -2.6330 C   0  0  0  0  0  3  0  0  0  0  0  0
   13.0030   -2.2700   -2.5030 C   0  0  0  0  0  3  0  0  0  0  0  0
   12.9240   -3.1890   -1.4540 C   0  0  0  0  0  3  0  0  0  0  0  0
   11.8830   -3.1070   -0.5300 C   0  0  0  0  0  3  0  0  0  0  0  0
  1  8  1  0  0  0  0
  1  2  1  0  0  0  0
  3  2  2  0  0  0  0
  4  3  1  0  0  0  0
  5  6  1  0  0  0  0
  5  4  2  0  0  0  0
  6  1  2  0  0  0  0
  7  8  2  0  0  0  0
  8  9  1  0  0  0  0
  9 15  1  0  0  0  0
  9 10  1  0  0  0  0
 10 14  1  0  0  0  0
 11 10  2  0  0  0  0
 11 12  1  0  0  0  0
 12 13  2  0  0  0  0
 13 16  1  0  0  0  0
 14 13  1  0  0  0  0
 16 18  2  0  0  0  0
 16 17  1  0  0  0  0
 19  4  1  0  0  0  0
 20 25  1  0  0  0  0
 20 19  1  0  0  0  0
 21 20  2  0  0  0  0
 22 23  2  0  0  0  0
 22 21  1  0  0  0  0
 23 24  1  0  0  0  0
 24 25  2  0  0  0  0
M  END
>  <minimizedAffinity>
-6.65491772

$$$$

 OpenBabel09122222163D

 25 27  0  0  0  0  0  0  0  0999 V2000
    9.5440   -2.7780    1.4900 C   0  0  0  0  0  0  0  0  0  0  0  0
   10.0280   -2.9840    2.7880 C   0  0  0  0  0  3  0  0  0  0  0  0
   10.0120   -1.9340    3.7080 C   0  0  0  0  0  3  0  0  0  0  0  0
    9.5210   -0.6840    3.3290 C   0  0  0  0  0  0  0  0  0  0  0  0
    9.0880   -0.4610    2.0180 C   0  0  0  0  0  3  0  0  0  0  0  0
    9.1000   -1.5090    1.0970 C   0  0  0  0  0  3  0  0  0  0  0  0
   10.4470   -3.7320   -0.4290 O   0  0  0  0  0  0  0  0  0  0  0  0
    9.6120   -3.8480    0.4700 C   0  0  0  0  0  0  0  0  0  0  0  0
    8.8080   -4.9550    0.5150 N   0  0  0  0  0  0  0  0  0  0  0  0
    7.6970   -5.1410    1.2860 C   0  0  0  0  0  0  0  0  0  0  0  0
    7.1310   -4.3260    2.1360 N   0  0  0  0  0  0  0  0  0  0  0  0
    6.0190   -4.9580    2.6760 C   0  0  0  0  0  3  0  0  0  0  0  0
    5.7730   -6.2310    2.2100 C   0  0  0  0  0  0  0  0  0  0  0  0
    6.9570   -6.6600    1.0550 S   0  0  0  0  0  0  0  0  0  0  0  0
    9.0050   -5.6790   -0.1580 H   0  0  0  0  0  0  0  0  0  0  0  0
    4.6500   -7.0740    2.6570 C   0  0  0  0  0  0  0  0  0  0  0  0
    3.8920   -7.5540    1.7600 O   0  0  0  0  0  0  0  0  0  0  0  0
    4.5410   -7.2470    3.9100 O   0  0  0  0  0  1  0  0  0  0  0  0
    9.5630    0.3180    4.2710 O   0  0  0  0  0  0  0  0  0  0  0  0
   10.4420    1.3560    4.0480 C   0  0  0  0  0  0  0  0  0  0  0  0
   11.3910    1.6010    5.0410 C   0  0  0  0  0  3  0  0  0  0  0  0
   12.2920    2.6560    4.8960 C   0  0  0  0  0  3  0  0  0  0  0  0
   12.2330    3.4730    3.7660 C   0  0  0  0  0  3  0  0  0  0  0  0
   11.2670    3.2410    2.7850 C   0  0  0  0  0  3  0  0  0  0  0  0
   10.3640    2.1870    2.9280 C   0  0  0  0  0  3  0  0  0  0  0  0
  1  2  1  0  0  0  0
  2  3  2  0  0  0  0
  4  3  1  0  0  0  0
  4 19  1  0  0  0  0
  5  4  2  0  0  0  0
  6  1  2  0  0  0  0
  6  5  1  0  0  0  0
  7  8  2  0  0  0  0
  8  9  1  0  0  0  0
  8  1  1  0  0  0  0
  9 10  1  0  0  0  0
 10 11  2  0  0  0  0
 11 12  1  0  0  0  0
 13 16  1  0  0  0  0
 13 12  2  0  0  0  0
 14 10  1  0  0  0  0
 14 13  1  0  0  0  0
 15  9  1  0  0  0  0
 16 18  1  0  0  0  0
 17 16  2  0  0  0  0
 20 19  1  0  0  0  0
 20 21  1  0  0  0  0
 22 21  2  0  0  0  0
 23 22  1  0  0  0  0
 24 25  1  0  0  0  0
 24 23  2  0  0  0  0
 25 20  2  0  0  0  0
M  END
>  <minimizedAffinity>
-6.54948902

$$$$

 OpenBabel09122222163D

 25 27  0  0  0  0  0  0  0  0999 V2000
    9.4560   -2.0440    2.7800 C   0  0  0  0  0  0  0  0  0  0  0  0
   10.4370   -2.4110    1.8500 C   0  0  0  0  0  3  0  0  0  0  0  0
   10.1320   -3.3380    0.8510 C   0  0  0  0  0  3  0  0  0  0  0  0
    8.8570   -3.8990    0.7890 C   0  0  0  0  0  0  0  0  0  0  0  0
    7.8920   -3.5760    1.7480 C   0  0  0  0  0  3  0  0  0  0  0  0
    8.1930   -2.6480    2.7460 C   0  0  0  0  0  3  0  0  0  0  0  0
    9.7730   -1.5790    5.0370 O   0  0  0  0  0  0  0  0  0  0  0  0
    9.7650   -1.1190    3.8930 C   0  0  0  0  0  0  0  0  0  0  0  0
   10.0650    0.2010    3.6870 N   0  0  0  0  0  0  0  0  0  0  0  0
    9.8870    0.9210    2.5420 C   0  0  0  0  0  0  0  0  0  0  0  0
    9.3840    0.5470    1.3950 N   0  0  0  0  0  0  0  0  0  0  0  0
    9.4030    1.6330    0.5320 C   0  0  0  0  0  3  0  0  0  0  0  0
    9.9150    2.8010    1.0560 C   0  0  0  0  0  0  0  0  0  0  0  0
   10.3810    2.5480    2.6800 S   0  0  0  0  0  0  0  0  0  0  0  0
   10.3710    0.7220    4.4940 H   0  0  0  0  0  0  0  0  0  0  0  0
   10.0290    4.0650    0.3050 C   0  0  0  0  0  0  0  0  0  0  0  0
   11.1940    4.5450    0.1530 O   0  0  0  0  0  1  0  0  0  0  0  0
    8.9440    4.5630   -0.1260 O   0  0  0  0  0  0  0  0  0  0  0  0
    8.6300   -4.8310   -0.1990 O   0  0  0  0  0  0  0  0  0  0  0  0
    7.5670   -5.6890   -0.0220 C   0  0  0  0  0  0  0  0  0  0  0  0
    7.6700   -6.6130    1.0190 C   0  0  0  0  0  3  0  0  0  0  0  0
    6.6440   -7.5330    1.2360 C   0  0  0  0  0  3  0  0  0  0  0  0
    5.5240   -7.5380    0.4030 C   0  0  0  0  0  3  0  0  0  0  0  0
    5.4330   -6.6290   -0.6520 C   0  0  0  0  0  3  0  0  0  0  0  0
    6.4580   -5.7080   -0.8720 C   0  0  0  0  0  3  0  0  0  0  0  0
  1  8  1  0  0  0  0
  2  1  2  0  0  0  0
  3  2  1  0  0  0  0
  4  3  2  0  0  0  0
  4  5  1  0  0  0  0
  5  6  2  0  0  0  0
  6  1  1  0  0  0  0
  8  7  2  0  0  0  0
  9  8  1  0  0  0  0
  9 15  1  0  0  0  0
 10 14  1  0  0  0  0
 10  9  1  0  0  0  0
 11 10  2  0  0  0  0
 12 13  2  0  0  0  0
 12 11  1  0  0  0  0
 13 14  1  0  0  0  0
 16 13  1  0  0  0  0
 17 16  1  0  0  0  0
 18 16  2  0  0  0  0
 19 20  1  0  0  0  0
 19  4  1  0  0  0  0
 20 21  1  0  0  0  0
 21 22  2  0  0  0  0
 23 22  1  0  0  0  0
 24 23  2  0  0  0  0
 25 24  1  0  0  0  0
 25 20  2  0  0  0  0
M  END
>  <minimizedAffinity>
-6.42290258

$$$$

 OpenBabel09122222163D

 25 27  0  0  0  0  0  0  0  0999 V2000
    9.5070   -3.5360   -0.1080 C   0  0  0  0  0  0  0  0  0  0  0  0
    8.6150   -4.4850   -0.6220 C   0  0  0  0  0  3  0  0  0  0  0  0
    7.6420   -5.0440    0.2100 C   0  0  0  0  0  3  0  0  0  0  0  0
    7.5680   -4.6600    1.5490 C   0  0  0  0  0  0  0  0  0  0  0  0
    8.4900   -3.7520    2.0780 C   0  0  0  0  0  3  0  0  0  0  0  0
    9.4620   -3.1900    1.2480 C   0  0  0  0  0  3  0  0  0  0  0  0
   11.2890   -3.7670   -1.5840 O   0  0  0  0  0  0  0  0  0  0  0  0
   10.5930   -2.9770   -0.9420 C   0  0  0  0  0  0  0  0  0  0  0  0
   10.8230   -1.6310   -1.0410 N   0  0  0  0  0  0  0  0  0  0  0  0
   10.3150   -0.6440   -0.2480 C   0  0  0  0  0  0  0  0  0  0  0  0
    9.5200   -0.7360    0.7860 N   0  0  0  0  0  0  0  0  0  0  0  0
    9.2830    0.5420    1.2720 C   0  0  0  0  0  3  0  0  0  0  0  0
    9.9140    1.5640    0.5950 C   0  0  0  0  0  0  0  0  0  0  0  0
   10.8410    0.9180   -0.6870 S   0  0  0  0  0  0  0  0  0  0  0  0
   11.5110   -1.3430   -1.7200 H   0  0  0  0  0  0  0  0  0  0  0  0
    9.7900    2.9900    0.9450 C   0  0  0  0  0  0  0  0  0  0  0  0
    9.1930    3.7410    0.1150 O   0  0  0  0  0  0  0  0  0  0  0  0
   10.2940    3.3420    2.0560 O   0  0  0  0  0  1  0  0  0  0  0  0
    6.6080   -5.2700    2.3250 O   0  0  0  0  0  0  0  0  0  0  0  0
    5.7800   -6.1780    1.7020 C   0  0  0  0  0  0  0  0  0  0  0  0
    5.7710   -7.4760    2.2120 C   0  0  0  0  0  3  0  0  0  0  0  0
    4.9790   -8.4550    1.6100 C   0  0  0  0  0  3  0  0  0  0  0  0
    4.2090   -8.1370    0.4900 C   0  0  0  0  0  3  0  0  0  0  0  0
    4.2370   -6.8430   -0.0330 C   0  0  0  0  0  3  0  0  0  0  0  0
    5.0290   -5.8630    0.5660 C   0  0  0  0  0  3  0  0  0  0  0  0
  1  6  1  0  0  0  0
  2  1  2  0  0  0  0
  2  3  1  0  0  0  0
  3  4  2  0  0  0  0
  4  5  1  0  0  0  0
  4 19  1  0  0  0  0
  6  5  2  0  0  0  0
  7  8  2  0  0  0  0
  8  1  1  0  0  0  0
  9  8  1  0  0  0  0
  9 10  1  0  0  0  0
 10 11  2  0  0  0  0
 11 12  1  0  0  0  0
 13 16  1  0  0  0  0
 13 12  2  0  0  0  0
 14 10  1  0  0  0  0
 14 13  1  0  0  0  0
 15  9  1  0  0  0  0
 16 18  1  0  0  0  0
 17 16  2  0  0  0  0
 20 21  1  0  0  0  0
 20 19  1  0  0  0  0
 22 21  2  0  0  0  0
 23 22  1  0  0  0  0
 24 23  2  0  0  0  0
 24 25  1  0  0  0  0
 25 20  2  0  0  0  0
M  END
>  <minimizedAffinity>
-6.28493071

$$$$

 OpenBabel09122222163D

 25 27  0  0  0  0  0  0  0  0999 V2000
    9.0140   -4.1900   -0.3400 C   0  0  0  0  0  0  0  0  0  0  0  0
    7.9900   -4.6920   -1.1530 C   0  0  0  0  0  3  0  0  0  0  0  0
    6.9160   -5.3720   -0.5750 C   0  0  0  0  0  3  0  0  0  0  0  0
    6.8710   -5.5540    0.8070 C   0  0  0  0  0  0  0  0  0  0  0  0
    7.9170   -5.1010    1.6160 C   0  0  0  0  0  3  0  0  0  0  0  0
    8.9910   -4.4190    1.0410 C   0  0  0  0  0  3  0  0  0  0  0  0
   10.9510   -4.2090   -1.6270 O   0  0  0  0  0  0  0  0  0  0  0  0
   10.2000   -3.5280   -0.9250 C   0  0  0  0  0  0  0  0  0  0  0  0
   10.4650   -2.1980   -0.7360 N   0  0  0  0  0  0  0  0  0  0  0  0
    9.8870   -1.3600    0.1720 C   0  0  0  0  0  0  0  0  0  0  0  0
    8.9750   -1.6140    1.0740 N   0  0  0  0  0  0  0  0  0  0  0  0
    8.7070   -0.4430    1.7690 C   0  0  0  0  0  3  0  0  0  0  0  0
    9.4310    0.6620    1.3760 C   0  0  0  0  0  0  0  0  0  0  0  0
   10.4890    0.2340    0.1050 S   0  0  0  0  0  0  0  0  0  0  0  0
   11.2320   -1.8140   -1.2660 H   0  0  0  0  0  0  0  0  0  0  0  0
    9.2930    2.0000    1.9800 C   0  0  0  0  0  0  0  0  0  0  0  0
    9.1580    2.9820    1.1880 O   0  0  0  0  0  0  0  0  0  0  0  0
    9.3210    2.0500    3.2480 O   0  0  0  0  0  1  0  0  0  0  0  0
    5.8030   -6.2610    1.3120 O   0  0  0  0  0  0  0  0  0  0  0  0
    5.0990   -5.6840    2.3460 C   0  0  0  0  0  0  0  0  0  0  0  0
    4.6850   -6.5300    3.3750 C   0  0  0  0  0  3  0  0  0  0  0  0
    3.9410   -6.0190    4.4390 C   0  0  0  0  0  3  0  0  0  0  0  0
    3.6000   -4.6660    4.4650 C   0  0  0  0  0  3  0  0  0  0  0  0
    3.9950   -3.8250    3.4230 C   0  0  0  0  0  3  0  0  0  0  0  0
    4.7380   -4.3340    2.3570 C   0  0  0  0  0  3  0  0  0  0  0  0
  1  6  1  0  0  0  0
  2  3  1  0  0  0  0
  2  1  2  0  0  0  0
  3  4  2  0  0  0  0
  4 19  1  0  0  0  0
  4  5  1  0  0  0  0
  6  5  2  0  0  0  0
  7  8  2  0  0  0  0
  8  9  1  0  0  0  0
  8  1  1  0  0  0  0
  9 10  1  0  0  0  0
 10 11  2  0  0  0  0
 11 12  1  0  0  0  0
 13 12  2  0  0  0  0
 13 16  1  0  0  0  0
 14 10  1  0  0  0  0
 14 13  1  0  0  0  0
 15  9  1  0  0  0  0
 16 18  1  0  0  0  0
 17 16  2  0  0  0  0
 19 20  1  0  0  0  0
 20 25  2  0  0  0  0
 20 21  1  0  0  0  0
 21 22  2  0  0  0  0
 22 23  1  0  0  0  0
 24 23  2  0  0  0  0
 25 24  1  0  0  0  0
M  END
>  <minimizedAffinity>
-6.11794519

$$$$

 OpenBabel09122222163D

 25 27  0  0  0  0  0  0  0  0999 V2000
    5.3130   -6.3850    0.5370 C   0  0  0  0  0  0  0  0  0  0  0  0
    6.6620   -6.7590    0.4860 C   0  0  0  0  0  3  0  0  0  0  0  0
    7.6160   -6.0070    1.1740 C   0  0  0  0  0  3  0  0  0  0  0  0
    7.2230   -4.8840    1.9030 C   0  0  0  0  0  0  0  0  0  0  0  0
    5.8860   -4.4780    1.9130 C   0  0  0  0  0  3  0  0  0  0  0  0
    4.9290   -5.2290    1.2280 C   0  0  0  0  0  3  0  0  0  0  0  0
    4.0610   -6.7420   -1.3900 O   0  0  0  0  0  0  0  0  0  0  0  0
    4.2870   -7.1170   -0.2370 C   0  0  0  0  0  0  0  0  0  0  0  0
    3.6150   -8.1950    0.2720 N   0  0  0  0  0  0  0  0  0  0  0  0
    3.5690   -8.6020    1.5740 C   0  0  0  0  0  0  0  0  0  0  0  0
    4.1230   -8.0690    2.6310 N   0  0  0  0  0  0  0  0  0  0  0  0
    3.7860   -8.8360    3.7370 C   0  0  0  0  0  3  0  0  0  0  0  0
    2.9790   -9.9250    3.4840 C   0  0  0  0  0  0  0  0  0  0  0  0
    2.6160   -9.9960    1.8160 S   0  0  0  0  0  0  0  0  0  0  0  0
    3.0180   -8.6950   -0.3690 H   0  0  0  0  0  0  0  0  0  0  0  0
    2.5130  -10.8680    4.5160 C   0  0  0  0  0  0  0  0  0  0  0  0
    1.2740  -10.8610    4.7910 O   0  0  0  0  0  0  0  0  0  0  0  0
    3.3990  -11.6100    5.0410 O   0  0  0  0  0  1  0  0  0  0  0  0
    8.2150   -4.1670    2.5330 O   0  0  0  0  0  0  0  0  0  0  0  0
    8.7070   -3.0620    1.8740 C   0  0  0  0  0  0  0  0  0  0  0  0
    9.3630   -3.2900    0.6630 C   0  0  0  0  0  3  0  0  0  0  0  0
    9.9130   -2.2200   -0.0430 C   0  0  0  0  0  3  0  0  0  0  0  0
    9.8220   -0.9260    0.4710 C   0  0  0  0  0  3  0  0  0  0  0  0
    9.1870   -0.7010    1.6940 C   0  0  0  0  0  3  0  0  0  0  0  0
    8.6350   -1.7700    2.4020 C   0  0  0  0  0  3  0  0  0  0  0  0
  1  6  1  0  0  0  0
  2  1  2  0  0  0  0
  2  3  1  0  0  0  0
  3  4  2  0  0  0  0
  4  5  1  0  0  0  0
  4 19  1  0  0  0  0
  6  5  2  0  0  0  0
  7  8  2  0  0  0  0
  8  9  1  0  0  0  0
  8  1  1  0  0  0  0
  9 10  1  0  0  0  0
 10 14  1  0  0  0  0
 10 11  2  0  0  0  0
 11 12  1  0  0  0  0
 13 12  2  0  0  0  0
 13 16  1  0  0  0  0
 14 13  1  0  0  0  0
 15  9  1  0  0  0  0
 16 17  2  0  0  0  0
 16 18  1  0  0  0  0
 20 25  1  0  0  0  0
 20 19  1  0  0  0  0
 21 20  2  0  0  0  0
 22 23  2  0  0  0  0
 22 21  1  0  0  0  0
 23 24  1  0  0  0  0
 24 25  2  0  0  0  0
M  END
>  <minimizedAffinity>
-5.87709379

$$$$

 OpenBabel09122222163D

 25 27  0  0  0  0  0  0  0  0999 V2000
    5.8620   -5.7460    0.2800 C   0  0  0  0  0  0  0  0  0  0  0  0
    6.8770   -5.7140   -0.6850 C   0  0  0  0  0  3  0  0  0  0  0  0
    8.1050   -5.1240   -0.3800 C   0  0  0  0  0  3  0  0  0  0  0  0
    8.3140   -4.5640    0.8800 C   0  0  0  0  0  0  0  0  0  0  0  0
    7.2850   -4.5470    1.8280 C   0  0  0  0  0  3  0  0  0  0  0  0
    6.0570   -5.1380    1.5260 C   0  0  0  0  0  3  0  0  0  0  0  0
    3.8120   -5.6690   -0.8150 O   0  0  0  0  0  0  0  0  0  0  0  0
    4.5260   -6.3000   -0.0330 C   0  0  0  0  0  0  0  0  0  0  0  0
    4.0830   -7.4850    0.4890 N   0  0  0  0  0  0  0  0  0  0  0  0
    4.6290   -8.1900    1.5210 C   0  0  0  0  0  0  0  0  0  0  0  0
    5.6700   -7.9090    2.2600 N   0  0  0  0  0  0  0  0  0  0  0  0
    5.8350   -8.9250    3.1910 C   0  0  0  0  0  3  0  0  0  0  0  0
    4.9070   -9.9430    3.1330 C   0  0  0  0  0  0  0  0  0  0  0  0
    3.7840   -9.6260    1.8850 S   0  0  0  0  0  0  0  0  0  0  0  0
    3.2080   -7.8340    0.1290 H   0  0  0  0  0  0  0  0  0  0  0  0
    4.9070  -11.1160    4.0260 C   0  0  0  0  0  0  0  0  0  0  0  0
    6.0340  -11.6100    4.3340 O   0  0  0  0  0  0  0  0  0  0  0  0
    3.7700  -11.5290    4.4110 O   0  0  0  0  0  1  0  0  0  0  0  0
    9.5340   -3.9690    1.1080 O   0  0  0  0  0  0  0  0  0  0  0  0
    9.5390   -2.8110    1.8530 C   0  0  0  0  0  0  0  0  0  0  0  0
    9.8650   -2.9320    3.2040 C   0  0  0  0  0  3  0  0  0  0  0  0
    9.8600   -1.8040    4.0260 C   0  0  0  0  0  3  0  0  0  0  0  0
    9.5130   -0.5600    3.4980 C   0  0  0  0  0  3  0  0  0  0  0  0
    9.1640   -0.4430    2.1510 C   0  0  0  0  0  3  0  0  0  0  0  0
    9.1680   -1.5700    1.3280 C   0  0  0  0  0  3  0  0  0  0  0  0
  1  6  1  0  0  0  0
  2  3  1  0  0  0  0
  2  1  2  0  0  0  0
  3  4  2  0  0  0  0
  4 19  1  0  0  0  0
  4  5  1  0  0  0  0
  6  5  2  0  0  0  0
  7  8  2  0  0  0  0
  8  1  1  0  0  0  0
  8  9  1  0  0  0  0
  9 10  1  0  0  0  0
 10 14  1  0  0  0  0
 10 11  2  0  0  0  0
 11 12  1  0  0  0  0
 13 12  2  0  0  0  0
 13 16  1  0  0  0  0
 14 13  1  0  0  0  0
 15  9  1  0  0  0  0
 16 17  2  0  0  0  0
 16 18  1  0  0  0  0
 19 20  1  0  0  0  0
 20 21  1  0  0  0  0
 21 22  2  0  0  0  0
 23 22  1  0  0  0  0
 24 23  2  0  0  0  0
 25 20  2  0  0  0  0
 25 24  1  0  0  0  0
M  END
>  <minimizedAffinity>
-5.85043001

$$$$
