
 OpenBabel09122222393D

 25 27  0  0  0  0  0  0  0  0999 V2000
    6.0830   -5.6040    0.1120 C   0  0  0  0  0  0  0  0  0  0  0  0
    6.8870   -5.5840   -1.0350 C   0  0  0  0  0  3  0  0  0  0  0  0
    8.2300   -5.2170   -0.9330 C   0  0  0  0  0  3  0  0  0  0  0  0
    8.7630   -4.8660    0.3070 C   0  0  0  0  0  0  0  0  0  0  0  0
    7.9500   -4.8330    1.4440 C   0  0  0  0  0  3  0  0  0  0  0  0
    6.6080   -5.2020    1.3460 C   0  0  0  0  0  3  0  0  0  0  0  0
    3.9110   -5.1220   -0.5640 O   0  0  0  0  0  0  0  0  0  0  0  0
    4.6400   -5.9200    0.0290 C   0  0  0  0  0  0  0  0  0  0  0  0
    4.1090   -7.0660    0.5560 N   0  0  0  0  0  0  0  0  0  0  0  0
    4.7080   -7.9340    1.4220 C   0  0  0  0  0  0  0  0  0  0  0  0
    5.8960   -7.8790    1.9630 N   0  0  0  0  0  0  0  0  0  0  0  0
    6.0560   -8.9870    2.7840 C   0  0  0  0  0  3  0  0  0  0  0  0
    4.9780   -9.8430    2.8460 C   0  0  0  0  0  0  0  0  0  0  0  0
    3.7160   -9.2520    1.8570 S   0  0  0  0  0  0  0  0  0  0  0  0
    3.1380   -7.2460    0.3510 H   0  0  0  0  0  0  0  0  0  0  0  0
    4.9450  -11.0770    3.6530 C   0  0  0  0  0  0  0  0  0  0  0  0
    3.8070  -11.4980    4.0210 O   0  0  0  0  0  1  0  0  0  0  0  0
    6.0680  -11.6120    3.9070 O   0  0  0  0  0  0  0  0  0  0  0  0
   10.0850   -4.4820    0.3360 O   0  0  0  0  0  0  0  0  0  0  0  0
   10.4060   -3.2850   -0.2670 C   0  0  0  0  0  0  0  0  0  0  0  0
   11.3850   -3.3240   -1.2610 C   0  0  0  0  0  3  0  0  0  0  0  0
   11.7820   -2.1440   -1.8920 C   0  0  0  0  0  3  0  0  0  0  0  0
   11.2110   -0.9270   -1.5180 C   0  0  0  0  0  3  0  0  0  0  0  0
   10.2490   -0.8870   -0.5070 C   0  0  0  0  0  3  0  0  0  0  0  0
    9.8500   -2.0650    0.1260 C   0  0  0  0  0  3  0  0  0  0  0  0
  1  6  1  0  0  0  0
  2  3  1  0  0  0  0
  2  1  2  0  0  0  0
  3  4  2  0  0  0  0
  4 19  1  0  0  0  0
  4  5  1  0  0  0  0
  6  5  2  0  0  0  0
  7  8  2  0  0  0  0
  8  1  1  0  0  0  0
  8  9  1  0  0  0  0
  9 10  1  0  0  0  0
 10 14  1  0  0  0  0
 10 11  2  0  0  0  0
 11 12  1  0  0  0  0
 12 13  2  0  0  0  0
 13 16  1  0  0  0  0
 14 13  1  0  0  0  0
 15  9  1  0  0  0  0
 16 18  2  0  0  0  0
 16 17  1  0  0  0  0
 20 25  1  0  0  0  0
 20 19  1  0  0  0  0
 21 20  2  0  0  0  0
 22 23  2  0  0  0  0
 22 21  1  0  0  0  0
 23 24  1  0  0  0  0
 24 25  2  0  0  0  0
M  END
>  <minimizedAffinity>
-6.93809843

$$$$
