
 OpenBabel09122222393D

 25 27  0  0  0  0  0  0  0  0999 V2000
    5.3130   -6.3850    0.5370 C   0  0  0  0  0  0  0  0  0  0  0  0
    6.6620   -6.7590    0.4860 C   0  0  0  0  0  3  0  0  0  0  0  0
    7.6160   -6.0070    1.1740 C   0  0  0  0  0  3  0  0  0  0  0  0
    7.2230   -4.8840    1.9030 C   0  0  0  0  0  0  0  0  0  0  0  0
    5.8860   -4.4780    1.9130 C   0  0  0  0  0  3  0  0  0  0  0  0
    4.9290   -5.2290    1.2280 C   0  0  0  0  0  3  0  0  0  0  0  0
    4.0610   -6.7420   -1.3900 O   0  0  0  0  0  0  0  0  0  0  0  0
    4.2870   -7.1170   -0.2370 C   0  0  0  0  0  0  0  0  0  0  0  0
    3.6150   -8.1950    0.2720 N   0  0  0  0  0  0  0  0  0  0  0  0
    3.5690   -8.6020    1.5740 C   0  0  0  0  0  0  0  0  0  0  0  0
    4.1230   -8.0690    2.6310 N   0  0  0  0  0  0  0  0  0  0  0  0
    3.7860   -8.8360    3.7370 C   0  0  0  0  0  3  0  0  0  0  0  0
    2.9790   -9.9250    3.4840 C   0  0  0  0  0  0  0  0  0  0  0  0
    2.6160   -9.9960    1.8160 S   0  0  0  0  0  0  0  0  0  0  0  0
    3.0180   -8.6950   -0.3690 H   0  0  0  0  0  0  0  0  0  0  0  0
    2.5130  -10.8680    4.5160 C   0  0  0  0  0  0  0  0  0  0  0  0
    1.2740  -10.8610    4.7910 O   0  0  0  0  0  0  0  0  0  0  0  0
    3.3990  -11.6100    5.0410 O   0  0  0  0  0  1  0  0  0  0  0  0
    8.2150   -4.1670    2.5330 O   0  0  0  0  0  0  0  0  0  0  0  0
    8.7070   -3.0620    1.8740 C   0  0  0  0  0  0  0  0  0  0  0  0
    9.3630   -3.2900    0.6630 C   0  0  0  0  0  3  0  0  0  0  0  0
    9.9130   -2.2200   -0.0430 C   0  0  0  0  0  3  0  0  0  0  0  0
    9.8220   -0.9260    0.4710 C   0  0  0  0  0  3  0  0  0  0  0  0
    9.1870   -0.7010    1.6940 C   0  0  0  0  0  3  0  0  0  0  0  0
    8.6350   -1.7700    2.4020 C   0  0  0  0  0  3  0  0  0  0  0  0
  1  6  1  0  0  0  0
  2  1  2  0  0  0  0
  2  3  1  0  0  0  0
  3  4  2  0  0  0  0
  4  5  1  0  0  0  0
  4 19  1  0  0  0  0
  6  5  2  0  0  0  0
  7  8  2  0  0  0  0
  8  9  1  0  0  0  0
  8  1  1  0  0  0  0
  9 10  1  0  0  0  0
 10 14  1  0  0  0  0
 10 11  2  0  0  0  0
 11 12  1  0  0  0  0
 13 12  2  0  0  0  0
 13 16  1  0  0  0  0
 14 13  1  0  0  0  0
 15  9  1  0  0  0  0
 16 17  2  0  0  0  0
 16 18  1  0  0  0  0
 20 25  1  0  0  0  0
 20 19  1  0  0  0  0
 21 20  2  0  0  0  0
 22 23  2  0  0  0  0
 22 21  1  0  0  0  0
 23 24  1  0  0  0  0
 24 25  2  0  0  0  0
M  END
>  <minimizedAffinity>
-5.87709379

$$$$
