
 OpenBabel09122222393D

 25 27  0  0  0  0  0  0  0  0999 V2000
    7.7060   -5.4150    1.1230 C   0  0  0  0  0  0  0  0  0  0  0  0
    8.1000   -4.5280    2.1320 C   0  0  0  0  0  3  0  0  0  0  0  0
    8.8090   -3.3720    1.7990 C   0  0  0  0  0  3  0  0  0  0  0  0
    9.1280   -3.1100    0.4670 C   0  0  0  0  0  0  0  0  0  0  0  0
    8.7820   -4.0210   -0.5370 C   0  0  0  0  0  3  0  0  0  0  0  0
    8.0710   -5.1760   -0.2070 C   0  0  0  0  0  3  0  0  0  0  0  0
    7.4780   -7.7250    0.9780 O   0  0  0  0  0  0  0  0  0  0  0  0
    7.0150   -6.6830    1.4470 C   0  0  0  0  0  0  0  0  0  0  0  0
    5.9160   -6.7320    2.2620 N   0  0  0  0  0  0  0  0  0  0  0  0
    5.1470   -5.6850    2.6770 C   0  0  0  0  0  0  0  0  0  0  0  0
    5.2540   -4.4130    2.3960 N   0  0  0  0  0  0  0  0  0  0  0  0
    4.2360   -3.7320    3.0490 C   0  0  0  0  0  3  0  0  0  0  0  0
    3.3840   -4.5120    3.8000 C   0  0  0  0  0  0  0  0  0  0  0  0
    3.8540   -6.1510    3.6880 S   0  0  0  0  0  0  0  0  0  0  0  0
    5.5850   -7.6510    2.5130 H   0  0  0  0  0  0  0  0  0  0  0  0
    2.2450   -3.9860    4.5740 C   0  0  0  0  0  0  0  0  0  0  0  0
    1.4010   -4.8270    5.0090 O   0  0  0  0  0  1  0  0  0  0  0  0
    2.2110   -2.7280    4.7390 O   0  0  0  0  0  0  0  0  0  0  0  0
    9.8560   -1.9710    0.2080 O   0  0  0  0  0  0  0  0  0  0  0  0
   10.9290   -2.0920   -0.6480 C   0  0  0  0  0  0  0  0  0  0  0  0
   10.9930   -1.1880   -1.7090 C   0  0  0  0  0  3  0  0  0  0  0  0
   12.0360   -1.2720   -2.6330 C   0  0  0  0  0  3  0  0  0  0  0  0
   13.0030   -2.2700   -2.5030 C   0  0  0  0  0  3  0  0  0  0  0  0
   12.9240   -3.1890   -1.4540 C   0  0  0  0  0  3  0  0  0  0  0  0
   11.8830   -3.1070   -0.5300 C   0  0  0  0  0  3  0  0  0  0  0  0
  1  8  1  0  0  0  0
  1  2  1  0  0  0  0
  3  2  2  0  0  0  0
  4  3  1  0  0  0  0
  5  6  1  0  0  0  0
  5  4  2  0  0  0  0
  6  1  2  0  0  0  0
  7  8  2  0  0  0  0
  8  9  1  0  0  0  0
  9 15  1  0  0  0  0
  9 10  1  0  0  0  0
 10 14  1  0  0  0  0
 11 10  2  0  0  0  0
 11 12  1  0  0  0  0
 12 13  2  0  0  0  0
 13 16  1  0  0  0  0
 14 13  1  0  0  0  0
 16 18  2  0  0  0  0
 16 17  1  0  0  0  0
 19  4  1  0  0  0  0
 20 25  1  0  0  0  0
 20 19  1  0  0  0  0
 21 20  2  0  0  0  0
 22 23  2  0  0  0  0
 22 21  1  0  0  0  0
 23 24  1  0  0  0  0
 24 25  2  0  0  0  0
M  END
>  <minimizedAffinity>
-6.65491772

$$$$
