
 OpenBabel09092210413D

 27 29  0  0  1  0  0  0  0  0999 V2000
    1.8160    5.0320    0.8700 C   0  0  0  0  0  0  0  0  0  0  0  0
    1.8570    6.1930    1.7160 C   0  0  0  0  0  3  0  0  0  0  0  0
    1.9820    5.8940    3.0580 C   0  0  0  0  0  0  0  0  0  0  0  0
    2.0600    4.2020    3.2920 S   0  0  0  0  0  0  0  0  0  0  0  0
    2.0230    3.8720    1.6040 C   0  0  0  0  0  0  0  0  0  0  0  0
    2.0100    6.8130    4.2020 C   0  0  0  0  0  0  0  0  0  0  0  0
    1.7880    8.1900    4.0430 C   0  0  0  0  0  3  0  0  0  0  0  0
    1.7990    9.0490    5.1450 C   0  0  0  0  0  3  0  0  0  0  0  0
    2.0270    8.5420    6.4220 C   0  0  0  0  0  3  0  0  0  0  0  0
    2.2470    7.1780    6.5980 C   0  0  0  0  0  3  0  0  0  0  0  0
    2.2360    6.3190    5.4960 C   0  0  0  0  0  3  0  0  0  0  0  0
    1.6320    5.1160   -0.5340 N   0  0  0  0  0  0  0  0  0  0  0  0
    2.7860    5.4220   -1.2730 C   0  0  0  0  0  0  0  0  0  0  0  0
    3.9260    5.3040   -0.7970 O   0  0  0  0  0  0  0  0  0  0  0  0
    2.6560    5.8490   -2.7410 C   0  0  1  0  0  3  0  0  0  0  0  0
    2.9330    7.3490   -2.8930 C   0  0  0  0  0  2  0  0  0  0  0  0
    2.8770    7.7930   -4.3550 C   0  0  0  0  0  2  0  0  0  0  0  0
    3.8270    6.9760   -5.2380 C   0  0  2  0  0  3  0  0  0  0  0  0
    3.7030    7.4000   -6.7000 C   0  0  0  0  0  1  0  0  0  0  0  0
    3.5570    5.4740   -5.0830 C   0  0  0  0  0  2  0  0  0  0  0  0
    3.6280    5.0430   -3.6210 C   0  0  0  0  0  2  0  0  0  0  0  0
   -0.5810    5.9420   -1.4580 C   0  0  0  0  0  1  0  0  0  0  0  0
    0.2950    4.7530   -1.0640 C   0  0  0  0  0  3  0  0  0  0  0  0
    0.3530    3.6670   -2.1410 C   0  0  0  0  0  1  0  0  0  0  0  0
    2.2700    2.5000    1.0660 C   0  0  0  0  0  0  0  0  0  0  0  0
    1.2590    1.7400    0.9200 O   0  0  0  0  0  1  0  0  0  0  0  0
    3.4750    2.1520    0.8560 O   0  0  0  0  0  0  0  0  0  0  0  0
  1  5  2  0  0  0  0
  1  2  1  0  0  0  0
  2  3  2  0  0  0  0
  3  4  1  0  0  0  0
  3  6  1  0  0  0  0
  5  4  1  0  0  0  0
  6 11  1  0  0  0  0
  7  6  2  0  0  0  0
  7  8  1  0  0  0  0
  8  9  2  0  0  0  0
  9 10  1  0  0  0  0
 11 10  2  0  0  0  0
 12  1  1  0  0  0  0
 13 14  2  0  0  0  0
 13 12  1  0  0  0  0
 15 13  1  1  0  0  0
 16 15  1  0  0  0  0
 17 16  1  0  0  0  0
 18 19  1  6  0  0  0
 18 20  1  0  0  0  0
 18 17  1  0  0  0  0
 20 21  1  0  0  0  0
 21 15  1  0  0  0  0
 22 23  1  0  0  0  0
 23 12  1  0  0  0  0
 24 23  1  0  0  0  0
 25  5  1  0  0  0  0
 26 25  1  0  0  0  0
 27 25  2  0  0  0  0
M  END
>  <minimizedAffinity>
-3.26712394

$$$$
