
 OpenBabel09092210413D

 27 29  0  0  1  0  0  0  0  0999 V2000
    1.6340    4.9330   -0.4800 C   0  0  0  0  0  0  0  0  0  0  0  0
    1.6320    5.5350   -1.7840 C   0  0  0  0  0  3  0  0  0  0  0  0
    2.8640    5.5050   -2.4070 C   0  0  0  0  0  0  0  0  0  0  0  0
    4.0220    4.7350   -1.4130 S   0  0  0  0  0  0  0  0  0  0  0  0
    2.8650    4.3590   -0.1970 C   0  0  0  0  0  0  0  0  0  0  0  0
    3.2440    6.0610   -3.7120 C   0  0  0  0  0  0  0  0  0  0  0  0
    3.6790    7.3880   -3.8450 C   0  0  0  0  0  3  0  0  0  0  0  0
    4.0550    7.8970   -5.0920 C   0  0  0  0  0  3  0  0  0  0  0  0
    4.0050    7.0820   -6.2210 C   0  0  0  0  0  3  0  0  0  0  0  0
    3.5780    5.7620   -6.1060 C   0  0  0  0  0  3  0  0  0  0  0  0
    3.2020    5.2540   -4.8590 C   0  0  0  0  0  3  0  0  0  0  0  0
    0.4860    4.9130    0.3530 N   0  0  0  0  0  0  0  0  0  0  0  0
    0.4800    5.8590    1.3900 C   0  0  0  0  0  0  0  0  0  0  0  0
    1.2380    6.8420    1.3920 O   0  0  0  0  0  0  0  0  0  0  0  0
   -0.5370    5.7280    2.5310 C   0  0  1  0  0  3  0  0  0  0  0  0
   -0.0210    4.7660    3.6070 C   0  0  0  0  0  2  0  0  0  0  0  0
   -0.9820    4.6660    4.7910 C   0  0  0  0  0  2  0  0  0  0  0  0
   -1.2880    6.0400    5.3980 C   0  0  2  0  0  3  0  0  0  0  0  0
   -2.2980    5.9140    6.5370 C   0  0  0  0  0  1  0  0  0  0  0  0
   -1.8000    7.0060    4.3230 C   0  0  0  0  0  2  0  0  0  0  0  0
   -0.8240    7.1060    3.1540 C   0  0  0  0  0  2  0  0  0  0  0  0
   -1.6790    4.6270   -0.9380 C   0  0  0  0  0  1  0  0  0  0  0  0
   -0.6170    3.9990   -0.0360 C   0  0  0  0  0  3  0  0  0  0  0  0
   -0.1190    2.6450   -0.5470 C   0  0  0  0  0  1  0  0  0  0  0  0
    3.1950    3.4580    0.9490 C   0  0  0  0  0  0  0  0  0  0  0  0
    3.4620    4.0060    2.0660 O   0  0  0  0  0  1  0  0  0  0  0  0
    3.2580    2.2070    0.7220 O   0  0  0  0  0  0  0  0  0  0  0  0
  1  5  2  0  0  0  0
  1 12  1  0  0  0  0
  2  1  1  0  0  0  0
  3  2  2  0  0  0  0
  3  4  1  0  0  0  0
  4  5  1  0  0  0  0
  5 25  1  0  0  0  0
  6  3  1  0  0  0  0
  7  6  1  0  0  0  0
  8  7  2  0  0  0  0
  9 10  2  0  0  0  0
  9  8  1  0  0  0  0
 10 11  1  0  0  0  0
 11  6  2  0  0  0  0
 12 13  1  0  0  0  0
 13 14  2  0  0  0  0
 15 13  1  6  0  0  0
 15 21  1  0  0  0  0
 15 16  1  0  0  0  0
 16 17  1  0  0  0  0
 17 18  1  0  0  0  0
 18 19  1  1  0  0  0
 20 18  1  0  0  0  0
 21 20  1  0  0  0  0
 22 23  1  0  0  0  0
 23 12  1  0  0  0  0
 24 23  1  0  0  0  0
 25 26  1  0  0  0  0
 27 25  2  0  0  0  0
M  END
>  <minimizedAffinity>
-3.41658449

$$$$
