
 OpenBabel09092210413D

 27 29  0  0  1  0  0  0  0  0999 V2000
    2.0610    4.8490   -1.0860 C   0  0  0  0  0  0  0  0  0  0  0  0
    2.8560    5.7390   -1.8860 C   0  0  0  0  0  3  0  0  0  0  0  0
    2.6260    5.6150   -3.2420 C   0  0  0  0  0  0  0  0  0  0  0  0
    1.4380    4.4240   -3.5440 S   0  0  0  0  0  0  0  0  0  0  0  0
    1.1620    4.1410   -1.8700 C   0  0  0  0  0  0  0  0  0  0  0  0
    3.2820    6.3210   -4.3500 C   0  0  0  0  0  0  0  0  0  0  0  0
    3.8670    7.5840   -4.1720 C   0  0  0  0  0  3  0  0  0  0  0  0
    4.5040    8.2350   -5.2330 C   0  0  0  0  0  3  0  0  0  0  0  0
    4.5680    7.6280   -6.4850 C   0  0  0  0  0  3  0  0  0  0  0  0
    3.9940    6.3740   -6.6790 C   0  0  0  0  0  3  0  0  0  0  0  0
    3.3570    5.7240   -5.6180 C   0  0  0  0  0  3  0  0  0  0  0  0
    2.1870    4.7740    0.3250 N   0  0  0  0  0  0  0  0  0  0  0  0
    2.9220    3.6780    0.8050 C   0  0  0  0  0  0  0  0  0  0  0  0
    3.6740    3.0160    0.0730 O   0  0  0  0  0  0  0  0  0  0  0  0
    2.8580    3.3160    2.2940 C   0  0  1  0  0  3  0  0  0  0  0  0
    2.8590    1.7940    2.4800 C   0  0  0  0  0  2  0  0  0  0  0  0
    2.8650    1.4010    3.9570 C   0  0  0  0  0  2  0  0  0  0  0  0
    4.0350    2.0370    4.7150 C   0  0  2  0  0  3  0  0  0  0  0  0
    3.9790    1.6760    6.1980 C   0  0  0  0  0  1  0  0  0  0  0  0
    4.0410    3.5590    4.5260 C   0  0  0  0  0  2  0  0  0  0  0  0
    4.0490    3.9370    3.0470 C   0  0  0  0  0  2  0  0  0  0  0  0
    2.6570    7.0200    1.4060 C   0  0  0  0  0  1  0  0  0  0  0  0
    1.6480    5.9100    1.1140 C   0  0  0  0  0  3  0  0  0  0  0  0
    0.3170    6.4360    0.5730 C   0  0  0  0  0  1  0  0  0  0  0  0
    0.0280    3.2930   -1.3940 C   0  0  0  0  0  0  0  0  0  0  0  0
    0.3110    2.1320   -0.9540 O   0  0  0  0  0  1  0  0  0  0  0  0
   -1.1530    3.7510   -1.5220 O   0  0  0  0  0  0  0  0  0  0  0  0
  1 12  1  0  0  0  0
  2  1  1  0  0  0  0
  3  2  2  0  0  0  0
  4  3  1  0  0  0  0
  4  5  1  0  0  0  0
  5 25  1  0  0  0  0
  5  1  2  0  0  0  0
  6  7  1  0  0  0  0
  6  3  1  0  0  0  0
  8  7  2  0  0  0  0
  9  8  1  0  0  0  0
 10  9  2  0  0  0  0
 10 11  1  0  0  0  0
 11  6  2  0  0  0  0
 12 13  1  0  0  0  0
 12 23  1  0  0  0  0
 14 13  2  0  0  0  0
 15 13  1  6  0  0  0
 15 16  1  0  0  0  0
 15 21  1  0  0  0  0
 16 17  1  0  0  0  0
 17 18  1  0  0  0  0
 18 19  1  1  0  0  0
 20 18  1  0  0  0  0
 21 20  1  0  0  0  0
 23 22  1  0  0  0  0
 24 23  1  0  0  0  0
 25 26  1  0  0  0  0
 27 25  2  0  0  0  0
M  END
>  <minimizedAffinity>
-4.15077066

$$$$
