REMARK  Name = 
REMARK  8 active torsions:
REMARK  status: ('A' for Active; 'I' for Inactive)
REMARK    1  A    between atoms: C_1  and  C_2
REMARK    2  A    between atoms: C_2  and  C_3
REMARK    3  A    between atoms: C_2  and  N_4
REMARK    4  A    between atoms: N_4  and  C_5
REMARK    5  A    between atoms: C_7  and  C_8
REMARK    6  A    between atoms: C_15  and  C_16
REMARK    7  A    between atoms: C_19  and  C_21
REMARK    8  A    between atoms: C_24  and  C_25
REMARK                            x       y       z     vdW  Elec       q    Type
REMARK                         _______ _______ _______ _____ _____    ______ ____
ROOT
ATOM      1  C   UNL     1      -1.655  -2.149   1.099  0.00  0.00    +0.053 A 
ATOM      2  C   UNL     1      -1.437  -2.772   2.375  0.00  0.00    +0.040 A 
ATOM      3  C   UNL     1      -2.170  -3.928   2.557  0.00  0.00    +0.022 A 
ATOM      4  S   UNL     1      -3.117  -4.263   1.174  0.00  0.00    -0.085 S 
ATOM      5  C   UNL     1      -2.481  -2.926   0.299  0.00  0.00    +0.056 A 
ENDROOT
BRANCH   3   6
ATOM      6  C   UNL     1      -2.235  -4.794   3.741  0.00  0.00    -0.011 A 
ATOM      7  C   UNL     1      -2.188  -6.192   3.631  0.00  0.00    +0.009 A 
ATOM      8  C   UNL     1      -2.232  -7.002   4.770  0.00  0.00    +0.001 A 
ATOM      9  C   UNL     1      -2.319  -6.423   6.034  0.00  0.00    +0.000 A 
ATOM     10  C   UNL     1      -2.364  -5.037   6.161  0.00  0.00    +0.001 A 
ATOM     11  C   UNL     1      -2.320  -4.228   5.022  0.00  0.00    +0.009 A 
ENDBRANCH   3   6
BRANCH   1  12
ATOM     12  N   UNL     1      -1.045  -0.921   0.735  0.00  0.00    -0.267 N 
ATOM     13  C   UNL     1      -1.933   0.127   0.445  0.00  0.00    +0.223 C 
ATOM     14  O   UNL     1      -3.125   0.098   0.789  0.00  0.00    -0.275 OA
BRANCH  13  15
ATOM     15  C   UNL     1      -1.414   1.388  -0.258  0.00  0.00    +0.076 C 
ATOM     16  C   UNL     1      -1.571   1.262  -1.778  0.00  0.00    +0.013 C 
ATOM     17  C   UNL     1      -1.125   2.531  -2.504  0.00  0.00    +0.004 C 
ATOM     18  C   UNL     1      -1.858   3.774  -1.987  0.00  0.00    -0.014 C 
ATOM     19  C   UNL     1      -1.347   5.032  -2.687  0.00  0.00    +0.007 C 
ATOM     20  C   UNL     1      -1.708   3.900  -0.466  0.00  0.00    +0.004 C 
ATOM     21  C   UNL     1      -2.169   2.631   0.246  0.00  0.00    +0.013 C 
ENDBRANCH  13  15
BRANCH  12  23
ATOM     22  C   UNL     1       1.146  -0.647  -0.513  0.00  0.00    +0.028 C 
ATOM     23  C   UNL     1       0.434  -0.847   0.825  0.00  0.00    +0.075 C 
ATOM     24  C   UNL     1       0.920   0.113   1.913  0.00  0.00    +0.028 C 
ENDBRANCH  12  23
ENDBRANCH   1  12
BRANCH   5  25
ATOM     25  C   UNL     1      -2.762  -2.734  -1.156  0.00  0.00    +0.080 C 
ATOM     26  O   UNL     1      -3.624  -3.503  -1.691  0.00  0.00    -0.544 OA
ATOM     27  O   UNL     1      -2.075  -1.867  -1.785  0.00  0.00    -0.544 OA
ENDBRANCH   5  25
TORSDOF 5
