@<TRIPOS>MOLECULE
*****
 29 31 0 0 0
SMALL
GASTEIGER

@<TRIPOS>ATOM
      1 C           0.0000    0.0000    0.0000 C.3     1  UNL11       0.0219
      2 C           0.0000    0.0000    0.0000 C.3     1  UNL11       0.0799
      3 C           0.0000    0.0000    0.0000 C.3     1  UNL11       0.0219
      4 N           0.0000    0.0000    0.0000 N.am    1  UNL11      -0.2598
      5 C           0.0000    0.0000    0.0000 C.3     1  UNL11       0.0666
      6 C           0.0000    0.0000    0.0000 C.3     1  UNL11       0.0221
      7 C           0.0000    0.0000    0.0000 C.3     1  UNL11       0.0309
      8 C           0.0000    0.0000    0.0000 C.3     1  UNL11       0.0060
      9 C           0.0000    0.0000    0.0000 C.3     1  UNL11       0.0005
     10 C           0.0000    0.0000    0.0000 C.3     1  UNL11       0.0000
     11 C           0.0000    0.0000    0.0000 C.3     1  UNL11       0.0000
     12 C           0.0000    0.0000    0.0000 C.3     1  UNL11       0.0000
     13 C           0.0000    0.0000    0.0000 C.3     1  UNL11       0.0005
     14 S           0.0000    0.0000    0.0000 S.3     1  UNL11      -0.0792
     15 C           0.0000    0.0000    0.0000 C.3     1  UNL11       0.1229
     16 C           0.0000    0.0000    0.0000 C.3     1  UNL11       0.3949
     17 O           0.0000    0.0000    0.0000 O.2     1  UNL11      -0.2399
     18 O           0.0000    0.0000    0.0000 O.2     1  UNL11      -0.2399
     19 C           0.0000    0.0000    0.0000 C.2     1  UNL11       0.2247
     20 O           0.0000    0.0000    0.0000 O.2     1  UNL11      -0.2749
     21 C           0.0000    0.0000    0.0000 C.3     1  UNL11       0.0507
     22 H           0.0000    0.0000    0.0000 H       1  UNL11       0.0406
     23 C           0.0000    0.0000    0.0000 C.3     1  UNL11       0.0043
     24 C           0.0000    0.0000    0.0000 C.3     1  UNL11      -0.0038
     25 C           0.0000    0.0000    0.0000 C.3     1  UNL11      -0.0191
     26 H           0.0000    0.0000    0.0000 H       1  UNL11       0.0318
     27 C           0.0000    0.0000    0.0000 C.3     1  UNL11      -0.0042
     28 C           0.0000    0.0000    0.0000 C.3     1  UNL11      -0.0038
     29 C           0.0000    0.0000    0.0000 C.3     1  UNL11       0.0043
@<TRIPOS>UNITY_ATOM_ATTR
17 1
charge -1
@<TRIPOS>BOND
     1     1     2    1
     2     2     3    1
     3     2     4    1
     4     4     5    1
     5     5     6   ar
     6     6     7   ar
     7     7     8    1
     8     8     9   ar
     9     9    10   ar
    10    10    11   ar
    11    11    12   ar
    12    12    13   ar
    13     8    13   ar
    14     7    14   ar
    15    14    15   ar
    16     5    15   ar
    17    15    16    1
    18    16    17    1
    19    16    18    2
    20     4    19   am
    21    19    20    2
    22    19    21    1
    23    21    22    1
    24    21    23    1
    25    23    24    1
    26    24    25    1
    27    25    26    1
    28    25    27    1
    29    25    28    1
    30    28    29    1
    31    21    29    1
