
 OpenBabel09082221253D

 27 29  0  0  1  0  0  0  0  0999 V2000
    2.1040    4.8600   -1.0640 C   0  0  0  0  0  0  0  0  0  0  0  0
    2.9010    5.7390   -1.8740 C   0  0  0  0  0  3  0  0  0  0  0  0
    2.6620    5.6110   -3.2280 C   0  0  0  0  0  0  0  0  0  0  0  0
    1.4610    4.4280   -3.5160 S   0  0  0  0  0  0  0  0  0  0  0  0
    1.1930    4.1570   -1.8400 C   0  0  0  0  0  0  0  0  0  0  0  0
    3.3170    6.3050   -4.3440 C   0  0  0  0  0  0  0  0  0  0  0  0
    3.4190    5.7190   -5.6140 C   0  0  0  0  0  3  0  0  0  0  0  0
    4.0290    6.4020   -6.6710 C   0  0  0  0  0  3  0  0  0  0  0  0
    4.5400    7.6820   -6.4710 C   0  0  0  0  0  3  0  0  0  0  0  0
    4.4450    8.2800   -5.2160 C   0  0  0  0  0  3  0  0  0  0  0  0
    3.8350    7.5960   -4.1610 C   0  0  0  0  0  3  0  0  0  0  0  0
    2.2380    4.7910    0.3460 N   0  0  0  0  0  0  0  0  0  0  0  0
    2.9450    3.6780    0.8280 C   0  0  0  0  0  0  0  0  0  0  0  0
    3.6740    2.9900    0.0960 O   0  0  0  0  0  0  0  0  0  0  0  0
    2.8830    3.3280    2.3200 C   0  0  1  0  0  3  0  0  0  0  0  0
    2.8800    1.8070    2.5180 C   0  0  0  0  0  2  0  0  0  0  0  0
    2.8860    1.4250    3.9980 C   0  0  0  0  0  2  0  0  0  0  0  0
    4.0600    2.0640    4.7490 C   0  0  2  0  0  3  0  0  0  0  0  0
    4.0040    1.7150    6.2350 C   0  0  0  0  0  1  0  0  0  0  0  0
    4.0700    3.5850    4.5480 C   0  0  0  0  0  2  0  0  0  0  0  0
    4.0760    3.9510    3.0670 C   0  0  0  0  0  2  0  0  0  0  0  0
    2.7700    7.0450    1.3810 C   0  0  0  0  0  1  0  0  0  0  0  0
    1.7370    5.9460    1.1310 C   0  0  0  0  0  3  0  0  0  0  0  0
    0.4000    6.4850    0.6160 C   0  0  0  0  0  1  0  0  0  0  0  0
    0.0550    3.3210   -1.3510 C   0  0  0  0  0  0  0  0  0  0  0  0
   -1.0980    3.8600   -1.3280 O   0  0  0  0  0  0  0  0  0  0  0  0
    0.3160    2.1510   -0.9230 O   0  0  0  0  0  1  0  0  0  0  0  0
  1 12  1  0  0  0  0
  2  1  1  0  0  0  0
  3  2  2  0  0  0  0
  4  3  1  0  0  0  0
  4  5  1  0  0  0  0
  5 25  1  0  0  0  0
  5  1  2  0  0  0  0
  6 11  1  0  0  0  0
  6  3  1  0  0  0  0
  7  6  2  0  0  0  0
  8  9  2  0  0  0  0
  8  7  1  0  0  0  0
  9 10  1  0  0  0  0
 10 11  2  0  0  0  0
 12 13  1  0  0  0  0
 12 23  1  0  0  0  0
 14 13  2  0  0  0  0
 15 13  1  6  0  0  0
 15 16  1  0  0  0  0
 15 21  1  0  0  0  0
 16 17  1  0  0  0  0
 17 18  1  0  0  0  0
 18 19  1  1  0  0  0
 20 18  1  0  0  0  0
 21 20  1  0  0  0  0
 23 22  1  0  0  0  0
 24 23  1  0  0  0  0
 25 26  2  0  0  0  0
 25 27  1  0  0  0  0
M  END
>  <minimizedAffinity>
-4.16095734

$$$$

 OpenBabel09082221253D

 27 29  0  0  1  0  0  0  0  0999 V2000
    1.6900    4.3360   -0.4700 C   0  0  0  0  0  0  0  0  0  0  0  0
    2.7540    4.4310    0.4900 C   0  0  0  0  0  3  0  0  0  0  0  0
    2.6210    3.5560    1.5500 C   0  0  0  0  0  0  0  0  0  0  0  0
    1.2060    2.6120    1.3760 S   0  0  0  0  0  0  0  0  0  0  0  0
    0.8240    3.2980   -0.1540 C   0  0  0  0  0  0  0  0  0  0  0  0
    3.4840    3.4070    2.7290 C   0  0  0  0  0  0  0  0  0  0  0  0
    4.2210    4.4860    3.2390 C   0  0  0  0  0  3  0  0  0  0  0  0
    5.0240    4.3320    4.3740 C   0  0  0  0  0  3  0  0  0  0  0  0
    5.0960    3.0970    5.0150 C   0  0  0  0  0  3  0  0  0  0  0  0
    4.3680    2.0170    4.5230 C   0  0  0  0  0  3  0  0  0  0  0  0
    3.5660    2.1710    3.3890 C   0  0  0  0  0  3  0  0  0  0  0  0
    1.6050    5.1860   -1.6020 N   0  0  0  0  0  0  0  0  0  0  0  0
    2.4440    4.8440   -2.6740 C   0  0  0  0  0  0  0  0  0  0  0  0
    2.9700    3.7230   -2.7700 O   0  0  0  0  0  0  0  0  0  0  0  0
    2.6760    5.8510   -3.8080 C   0  0  1  0  0  3  0  0  0  0  0  0
    3.4330    7.0800   -3.2920 C   0  0  0  0  0  2  0  0  0  0  0  0
    3.7390    8.0720   -4.4140 C   0  0  0  0  0  2  0  0  0  0  0  0
    4.5010    7.4140   -5.5690 C   0  0  2  0  0  3  0  0  0  0  0  0
    4.7370    8.4140   -6.6990 C   0  0  0  0  0  1  0  0  0  0  0  0
    3.7490    6.1800   -6.0830 C   0  0  0  0  0  2  0  0  0  0  0  0
    3.4620    5.1930   -4.9560 C   0  0  0  0  0  2  0  0  0  0  0  0
   -0.6910    5.9260   -2.3870 C   0  0  0  0  0  1  0  0  0  0  0  0
    0.5660    6.2450   -1.5770 C   0  0  0  0  0  3  0  0  0  0  0  0
    0.2590    6.7480   -0.1650 C   0  0  0  0  0  1  0  0  0  0  0  0
   -0.2660    2.7440   -1.0130 C   0  0  0  0  0  0  0  0  0  0  0  0
    0.0720    2.2390   -2.1320 O   0  0  0  0  0  0  0  0  0  0  0  0
   -1.4660    2.8740   -0.6100 O   0  0  0  0  0  1  0  0  0  0  0  0
  1  5  2  0  0  0  0
  1  2  1  0  0  0  0
  2  3  2  0  0  0  0
  3  6  1  0  0  0  0
  4  3  1  0  0  0  0
  5  4  1  0  0  0  0
  6  7  2  0  0  0  0
  6 11  1  0  0  0  0
  7  8  1  0  0  0  0
  8  9  2  0  0  0  0
 10  9  1  0  0  0  0
 11 10  2  0  0  0  0
 12 23  1  0  0  0  0
 12  1  1  0  0  0  0
 13 12  1  0  0  0  0
 14 13  2  0  0  0  0
 15 16  1  0  0  0  0
 15 13  1  1  0  0  0
 17 16  1  0  0  0  0
 18 19  1  6  0  0  0
 18 17  1  0  0  0  0
 20 18  1  0  0  0  0
 20 21  1  0  0  0  0
 21 15  1  0  0  0  0
 22 23  1  0  0  0  0
 23 24  1  0  0  0  0
 25 27  1  0  0  0  0
 25  5  1  0  0  0  0
 26 25  2  0  0  0  0
M  END
>  <minimizedAffinity>
-3.80635262

$$$$

 OpenBabel09082221253D

 27 29  0  0  1  0  0  0  0  0999 V2000
    2.5150    5.8930   -0.3610 C   0  0  0  0  0  0  0  0  0  0  0  0
    2.5270    6.5620   -1.6320 C   0  0  0  0  0  3  0  0  0  0  0  0
    3.1340    5.8310   -2.6340 C   0  0  0  0  0  0  0  0  0  0  0  0
    3.6820    4.3280   -2.0340 S   0  0  0  0  0  0  0  0  0  0  0  0
    3.0280    4.6080   -0.4680 C   0  0  0  0  0  0  0  0  0  0  0  0
    3.3670    6.2130   -4.0330 C   0  0  0  0  0  0  0  0  0  0  0  0
    2.8270    5.4730   -5.0950 C   0  0  0  0  0  3  0  0  0  0  0  0
    3.0430    5.8610   -6.4210 C   0  0  0  0  0  3  0  0  0  0  0  0
    3.7980    6.9980   -6.7000 C   0  0  0  0  0  3  0  0  0  0  0  0
    4.3380    7.7450   -5.6580 C   0  0  0  0  0  3  0  0  0  0  0  0
    4.1220    7.3570   -4.3320 C   0  0  0  0  0  3  0  0  0  0  0  0
    1.9930    6.4940    0.8140 N   0  0  0  0  0  0  0  0  0  0  0  0
    2.9480    7.0570    1.6750 C   0  0  0  0  0  0  0  0  0  0  0  0
    4.1060    7.3090    1.3040 O   0  0  0  0  0  0  0  0  0  0  0  0
    2.5460    7.4460    3.1030 C   0  0  1  0  0  3  0  0  0  0  0  0
    2.5450    6.2150    4.0180 C   0  0  0  0  0  2  0  0  0  0  0  0
    2.2140    6.5800    5.4640 C   0  0  0  0  0  2  0  0  0  0  0  0
    3.1550    7.6590    6.0120 C   0  0  2  0  0  3  0  0  0  0  0  0
    2.7600    8.0470    7.4360 C   0  0  0  0  0  1  0  0  0  0  0  0
    3.1620    8.8900    5.0970 C   0  0  0  0  0  2  0  0  0  0  0  0
    3.5070    8.5120    3.6590 C   0  0  0  0  0  2  0  0  0  0  0  0
   -0.0910    7.9020    0.4850 C   0  0  0  0  0  1  0  0  0  0  0  0
    0.5160    6.5730    0.9350 C   0  0  0  0  0  3  0  0  0  0  0  0
   -0.1980    5.3550    0.3440 C   0  0  0  0  0  1  0  0  0  0  0  0
    2.9820    3.5320    0.5680 C   0  0  0  0  0  0  0  0  0  0  0  0
    3.7310    3.6720    1.5890 O   0  0  0  0  0  1  0  0  0  0  0  0
    2.2570    2.5130    0.3360 O   0  0  0  0  0  0  0  0  0  0  0  0
  1 12  1  0  0  0  0
  2  1  1  0  0  0  0
  3  4  1  0  0  0  0
  3  2  2  0  0  0  0
  4  5  1  0  0  0  0
  5  1  2  0  0  0  0
  5 25  1  0  0  0  0
  6  3  1  0  0  0  0
  7  6  2  0  0  0  0
  8  7  1  0  0  0  0
  9  8  2  0  0  0  0
  9 10  1  0  0  0  0
 10 11  2  0  0  0  0
 11  6  1  0  0  0  0
 12 23  1  0  0  0  0
 12 13  1  0  0  0  0
 14 13  2  0  0  0  0
 15 13  1  6  0  0  0
 15 21  1  0  0  0  0
 15 16  1  0  0  0  0
 16 17  1  0  0  0  0
 17 18  1  0  0  0  0
 18 19  1  1  0  0  0
 20 18  1  0  0  0  0
 21 20  1  0  0  0  0
 22 23  1  0  0  0  0
 24 23  1  0  0  0  0
 25 26  1  0  0  0  0
 27 25  2  0  0  0  0
M  END
>  <minimizedAffinity>
-3.80163336

$$$$

 OpenBabel09082221253D

 27 29  0  0  1  0  0  0  0  0999 V2000
    2.6080    3.8710    0.6880 C   0  0  0  0  0  0  0  0  0  0  0  0
    2.4090    2.5350    1.1770 C   0  0  0  0  0  3  0  0  0  0  0  0
    2.9620    2.3150    2.4230 C   0  0  0  0  0  0  0  0  0  0  0  0
    3.7160    3.7350    3.0040 S   0  0  0  0  0  0  0  0  0  0  0  0
    3.2250    4.6650    1.6440 C   0  0  0  0  0  0  0  0  0  0  0  0
    2.9950    1.0730    3.2050 C   0  0  0  0  0  0  0  0  0  0  0  0
    2.7750    1.0720    4.5910 C   0  0  0  0  0  3  0  0  0  0  0  0
    2.7910   -0.1230    5.3170 C   0  0  0  0  0  3  0  0  0  0  0  0
    3.0220   -1.3320    4.6660 C   0  0  0  0  0  3  0  0  0  0  0  0
    3.2390   -1.3490    3.2900 C   0  0  0  0  0  3  0  0  0  0  0  0
    3.2230   -0.1550    2.5640 C   0  0  0  0  0  3  0  0  0  0  0  0
    2.1700    4.2860   -0.5960 N   0  0  0  0  0  0  0  0  0  0  0  0
    3.1690    4.3400   -1.5810 C   0  0  0  0  0  0  0  0  0  0  0  0
    4.2620    3.7670   -1.4470 O   0  0  0  0  0  0  0  0  0  0  0  0
    2.8920    5.0670   -2.9030 C   0  0  1  0  0  3  0  0  0  0  0  0
    3.3390    6.5310   -2.8180 C   0  0  0  0  0  2  0  0  0  0  0  0
    3.1380    7.2670   -4.1430 C   0  0  0  0  0  2  0  0  0  0  0  0
    3.8400    6.5550   -5.3050 C   0  0  2  0  0  3  0  0  0  0  0  0
    3.5690    7.2780   -6.6230 C   0  0  0  0  0  1  0  0  0  0  0  0
    3.3990    5.0890   -5.3900 C   0  0  0  0  0  2  0  0  0  0  0  0
    3.6180    4.3640   -4.0640 C   0  0  0  0  0  2  0  0  0  0  0  0
   -0.0340    3.2810   -1.3480 C   0  0  0  0  0  1  0  0  0  0  0  0
    0.7130    4.4900   -0.7810 C   0  0  0  0  0  3  0  0  0  0  0  0
    0.0310    5.0940    0.4480 C   0  0  0  0  0  1  0  0  0  0  0  0
    3.4010    6.1490    1.6010 C   0  0  0  0  0  0  0  0  0  0  0  0
    2.5710    6.8550    2.2590 O   0  0  0  0  0  1  0  0  0  0  0  0
    4.3210    6.6170    0.8570 O   0  0  0  0  0  0  0  0  0  0  0  0
  1  2  1  0  0  0  0
  1  5  2  0  0  0  0
  2  3  2  0  0  0  0
  3  4  1  0  0  0  0
  3  6  1  0  0  0  0
  5  4  1  0  0  0  0
  6  7  1  0  0  0  0
  7  8  2  0  0  0  0
  9  8  1  0  0  0  0
 10  9  2  0  0  0  0
 11  6  2  0  0  0  0
 11 10  1  0  0  0  0
 12  1  1  0  0  0  0
 13 14  2  0  0  0  0
 13 12  1  0  0  0  0
 15 16  1  0  0  0  0
 15 13  1  1  0  0  0
 17 16  1  0  0  0  0
 18 19  1  6  0  0  0
 18 17  1  0  0  0  0
 20 18  1  0  0  0  0
 20 21  1  0  0  0  0
 21 15  1  0  0  0  0
 22 23  1  0  0  0  0
 23 12  1  0  0  0  0
 23 24  1  0  0  0  0
 25  5  1  0  0  0  0
 25 26  1  0  0  0  0
 27 25  2  0  0  0  0
M  END
>  <minimizedAffinity>
-3.78551555

$$$$

 OpenBabel09082221253D

 27 29  0  0  1  0  0  0  0  0999 V2000
    2.3000    5.7240   -0.3060 C   0  0  0  0  0  0  0  0  0  0  0  0
    2.3370    6.4370   -1.5530 C   0  0  0  0  0  3  0  0  0  0  0  0
    3.1160    5.8250   -2.5150 C   0  0  0  0  0  0  0  0  0  0  0  0
    3.7960    4.3790   -1.9080 S   0  0  0  0  0  0  0  0  0  0  0  0
    2.9800    4.5180   -0.4000 C   0  0  0  0  0  0  0  0  0  0  0  0
    3.4190    6.2850   -3.8760 C   0  0  0  0  0  0  0  0  0  0  0  0
    3.8880    7.5830   -4.1250 C   0  0  0  0  0  3  0  0  0  0  0  0
    4.1900    8.0000   -5.4250 C   0  0  0  0  0  3  0  0  0  0  0  0
    4.0300    7.1200   -6.4930 C   0  0  0  0  0  3  0  0  0  0  0  0
    3.5680    5.8260   -6.2640 C   0  0  0  0  0  3  0  0  0  0  0  0
    3.2660    5.4110   -4.9640 C   0  0  0  0  0  3  0  0  0  0  0  0
    1.6070    6.2120    0.8310 N   0  0  0  0  0  0  0  0  0  0  0  0
    2.4110    6.8160    1.8110 C   0  0  0  0  0  0  0  0  0  0  0  0
    3.5690    7.1940    1.5750 O   0  0  0  0  0  0  0  0  0  0  0  0
    1.8310    7.0900    3.2050 C   0  0  1  0  0  3  0  0  0  0  0  0
    2.2060    5.9650    4.1760 C   0  0  0  0  0  2  0  0  0  0  0  0
    1.7000    6.2420    5.5920 C   0  0  0  0  0  2  0  0  0  0  0  0
    2.1890    7.5950    6.1190 C   0  0  2  0  0  3  0  0  0  0  0  0
    1.6170    7.8710    7.5090 C   0  0  0  0  0  1  0  0  0  0  0  0
    1.8210    8.7230    5.1470 C   0  0  0  0  0  2  0  0  0  0  0  0
    2.3440    8.4390    3.7420 C   0  0  0  0  0  2  0  0  0  0  0  0
   -0.5610    7.4190    0.3050 C   0  0  0  0  0  1  0  0  0  0  0  0
    0.1250    6.1460    0.8010 C   0  0  0  0  0  3  0  0  0  0  0  0
   -0.4040    4.8780    0.1260 C   0  0  0  0  0  1  0  0  0  0  0  0
    2.9810    3.4070    0.5990 C   0  0  0  0  0  0  0  0  0  0  0  0
    2.2060    2.4210    0.3770 O   0  0  0  0  0  0  0  0  0  0  0  0
    3.6980    3.5450    1.6410 O   0  0  0  0  0  1  0  0  0  0  0  0
  1 12  1  0  0  0  0
  2  1  1  0  0  0  0
  3  4  1  0  0  0  0
  3  2  2  0  0  0  0
  4  5  1  0  0  0  0
  5  1  2  0  0  0  0
  5 25  1  0  0  0  0
  6  3  1  0  0  0  0
  7  6  1  0  0  0  0
  8  7  2  0  0  0  0
  9 10  2  0  0  0  0
  9  8  1  0  0  0  0
 10 11  1  0  0  0  0
 11  6  2  0  0  0  0
 12 13  1  0  0  0  0
 14 13  2  0  0  0  0
 15 13  1  6  0  0  0
 15 21  1  0  0  0  0
 15 16  1  0  0  0  0
 16 17  1  0  0  0  0
 17 18  1  0  0  0  0
 18 19  1  1  0  0  0
 20 18  1  0  0  0  0
 21 20  1  0  0  0  0
 22 23  1  0  0  0  0
 23 12  1  0  0  0  0
 24 23  1  0  0  0  0
 25 27  1  0  0  0  0
 26 25  2  0  0  0  0
M  END
>  <minimizedAffinity>
-3.68936563

$$$$

 OpenBabel09082221253D

 27 29  0  0  1  0  0  0  0  0999 V2000
    1.4870    4.3650   -0.6750 C   0  0  0  0  0  0  0  0  0  0  0  0
    1.5120    4.9870   -1.9700 C   0  0  0  0  0  3  0  0  0  0  0  0
    2.7870    5.2700   -2.4210 C   0  0  0  0  0  0  0  0  0  0  0  0
    3.9540    4.7730   -1.2750 S   0  0  0  0  0  0  0  0  0  0  0  0
    2.7720    4.0960   -0.2250 C   0  0  0  0  0  0  0  0  0  0  0  0
    3.1900    5.9380   -3.6650 C   0  0  0  0  0  0  0  0  0  0  0  0
    3.5330    7.2990   -3.6890 C   0  0  0  0  0  3  0  0  0  0  0  0
    3.9330    7.9160   -4.8780 C   0  0  0  0  0  3  0  0  0  0  0  0
    4.0010    7.1770   -6.0580 C   0  0  0  0  0  3  0  0  0  0  0  0
    3.6670    5.8250   -6.0500 C   0  0  0  0  0  3  0  0  0  0  0  0
    3.2660    5.2100   -4.8610 C   0  0  0  0  0  3  0  0  0  0  0  0
    0.2770    4.0470   -0.0050 N   0  0  0  0  0  0  0  0  0  0  0  0
   -0.3230    2.8390   -0.3940 C   0  0  0  0  0  0  0  0  0  0  0  0
    0.2960    1.9630   -1.0180 O   0  0  0  0  0  0  0  0  0  0  0  0
   -1.7720    2.5450    0.0180 C   0  0  1  0  0  3  0  0  0  0  0  0
   -2.7300    2.8160   -1.1480 C   0  0  0  0  0  2  0  0  0  0  0  0
   -4.1750    2.4680   -0.7910 C   0  0  0  0  0  2  0  0  0  0  0  0
   -4.3120    1.0210   -0.3050 C   0  0  2  0  0  3  0  0  0  0  0  0
   -5.7540    0.7230    0.1030 C   0  0  0  0  0  1  0  0  0  0  0  0
   -3.3510    0.7450    0.8580 C   0  0  0  0  0  2  0  0  0  0  0  0
   -1.9110    1.0850    0.4820 C   0  0  0  0  0  2  0  0  0  0  0  0
   -1.3920    5.7740    0.8110 C   0  0  0  0  0  1  0  0  0  0  0  0
   -0.1410    4.9440    1.1000 C   0  0  0  0  0  3  0  0  0  0  0  0
   -0.1890    4.2380    2.4570 C   0  0  0  0  0  1  0  0  0  0  0  0
    3.1540    3.2680    0.9580 C   0  0  0  0  0  0  0  0  0  0  0  0
    3.4900    3.8850    2.0190 O   0  0  0  0  0  1  0  0  0  0  0  0
    3.1900    2.0040    0.8130 O   0  0  0  0  0  0  0  0  0  0  0  0
  1  5  2  0  0  0  0
  1 12  1  0  0  0  0
  2  1  1  0  0  0  0
  3  2  2  0  0  0  0
  3  4  1  0  0  0  0
  4  5  1  0  0  0  0
  5 25  1  0  0  0  0
  6  3  1  0  0  0  0
  7  6  1  0  0  0  0
  8  7  2  0  0  0  0
  9 10  2  0  0  0  0
  9  8  1  0  0  0  0
 10 11  1  0  0  0  0
 11  6  2  0  0  0  0
 12 23  1  0  0  0  0
 13 12  1  0  0  0  0
 14 13  2  0  0  0  0
 15 13  1  6  0  0  0
 15 21  1  0  0  0  0
 16 17  1  0  0  0  0
 16 15  1  0  0  0  0
 17 18  1  0  0  0  0
 18 19  1  1  0  0  0
 18 20  1  0  0  0  0
 21 20  1  0  0  0  0
 22 23  1  0  0  0  0
 23 24  1  0  0  0  0
 25 26  1  0  0  0  0
 27 25  2  0  0  0  0
M  END
>  <minimizedAffinity>
-3.53525305

$$$$

 OpenBabel09082221253D

 27 29  0  0  1  0  0  0  0  0999 V2000
    2.1070    5.6040   -0.3560 C   0  0  0  0  0  0  0  0  0  0  0  0
    2.1840    6.3480   -1.5830 C   0  0  0  0  0  3  0  0  0  0  0  0
    3.0460    5.7960   -2.5100 C   0  0  0  0  0  0  0  0  0  0  0  0
    3.7570    4.3690   -1.8940 S   0  0  0  0  0  0  0  0  0  0  0  0
    2.8470    4.4330   -0.4360 C   0  0  0  0  0  0  0  0  0  0  0  0
    3.4070    6.3030   -3.8400 C   0  0  0  0  0  0  0  0  0  0  0  0
    3.8040    7.6340   -4.0350 C   0  0  0  0  0  3  0  0  0  0  0  0
    4.1630    8.0960   -5.3050 C   0  0  0  0  0  3  0  0  0  0  0  0
    4.1320    7.2300   -6.3960 C   0  0  0  0  0  3  0  0  0  0  0  0
    3.7420    5.9050   -6.2190 C   0  0  0  0  0  3  0  0  0  0  0  0
    3.3840    5.4440   -4.9490 C   0  0  0  0  0  3  0  0  0  0  0  0
    1.3260    6.0310    0.7480 N   0  0  0  0  0  0  0  0  0  0  0  0
   -0.0340    5.6850    0.6900 C   0  0  0  0  0  0  0  0  0  0  0  0
   -0.4610    4.8080   -0.0770 O   0  0  0  0  0  0  0  0  0  0  0  0
   -1.0280    6.3530    1.6490 C   0  0  1  0  0  3  0  0  0  0  0  0
   -2.1060    7.1110    0.8660 C   0  0  0  0  0  2  0  0  0  0  0  0
   -3.1520    7.7320    1.7930 C   0  0  0  0  0  2  0  0  0  0  0  0
   -3.7890    6.6890    2.7180 C   0  0  2  0  0  3  0  0  0  0  0  0
   -4.7830    7.3490    3.6720 C   0  0  0  0  0  1  0  0  0  0  0  0
   -2.7130    5.9250    3.4980 C   0  0  0  0  0  2  0  0  0  0  0  0
   -1.6830    5.2990    2.5600 C   0  0  0  0  0  2  0  0  0  0  0  0
    2.1160    5.8240    3.1490 C   0  0  0  0  0  1  0  0  0  0  0  0
    2.0430    6.6700    1.8780 C   0  0  0  0  0  3  0  0  0  0  0  0
    3.3950    7.2600    1.4720 C   0  0  0  0  0  1  0  0  0  0  0  0
    2.8420    3.2990    0.5370 C   0  0  0  0  0  0  0  0  0  0  0  0
    1.9350    2.4160    0.4010 O   0  0  0  0  0  0  0  0  0  0  0  0
    3.6960    3.3210    1.4810 O   0  0  0  0  0  1  0  0  0  0  0  0
  1 12  1  0  0  0  0
  2  1  1  0  0  0  0
  3  4  1  0  0  0  0
  3  2  2  0  0  0  0
  4  5  1  0  0  0  0
  5  1  2  0  0  0  0
  5 25  1  0  0  0  0
  6  3  1  0  0  0  0
  7  6  1  0  0  0  0
  8  7  2  0  0  0  0
  9 10  2  0  0  0  0
  9  8  1  0  0  0  0
 10 11  1  0  0  0  0
 11  6  2  0  0  0  0
 12 23  1  0  0  0  0
 13 12  1  0  0  0  0
 14 13  2  0  0  0  0
 15 13  1  6  0  0  0
 15 21  1  0  0  0  0
 16 15  1  0  0  0  0
 16 17  1  0  0  0  0
 17 18  1  0  0  0  0
 18 20  1  0  0  0  0
 18 19  1  1  0  0  0
 21 20  1  0  0  0  0
 23 22  1  0  0  0  0
 24 23  1  0  0  0  0
 25 27  1  0  0  0  0
 26 25  2  0  0  0  0
M  END
>  <minimizedAffinity>
-3.52476978

$$$$

 OpenBabel09082221253D

 27 29  0  0  1  0  0  0  0  0999 V2000
    0.6040    3.9930   -0.4800 C   0  0  0  0  0  0  0  0  0  0  0  0
   -0.7010    3.4970   -0.1410 C   0  0  0  0  0  3  0  0  0  0  0  0
   -0.6800    2.4920    0.8060 C   0  0  0  0  0  0  0  0  0  0  0  0
    0.9240    2.1560    1.2910 S   0  0  0  0  0  0  0  0  0  0  0  0
    1.5810    3.4100    0.3140 C   0  0  0  0  0  0  0  0  0  0  0  0
   -1.8070    1.7260    1.3530 C   0  0  0  0  0  0  0  0  0  0  0  0
   -2.4420    0.7200    0.6080 C   0  0  0  0  0  3  0  0  0  0  0  0
   -3.5010   -0.0130    1.1510 C   0  0  0  0  0  3  0  0  0  0  0  0
   -3.9370    0.2480    2.4480 C   0  0  0  0  0  3  0  0  0  0  0  0
   -3.3160    1.2400    3.2020 C   0  0  0  0  0  3  0  0  0  0  0  0
   -2.2570    1.9730    2.6590 C   0  0  0  0  0  3  0  0  0  0  0  0
    0.8090    4.9840   -1.4740 N   0  0  0  0  0  0  0  0  0  0  0  0
    1.3300    4.5150   -2.6900 C   0  0  0  0  0  0  0  0  0  0  0  0
    1.3080    3.3140   -3.0000 O   0  0  0  0  0  0  0  0  0  0  0  0
    1.8870    5.5150   -3.7120 C   0  0  1  0  0  3  0  0  0  0  0  0
    3.2500    6.0500   -3.2570 C   0  0  0  0  0  2  0  0  0  0  0  0
    3.8620    6.9980   -4.2880 C   0  0  0  0  0  2  0  0  0  0  0  0
    3.9730    6.3460   -5.6710 C   0  0  2  0  0  3  0  0  0  0  0  0
    4.5300    7.3370   -6.6920 C   0  0  0  0  0  1  0  0  0  0  0  0
    2.6120    5.8040   -6.1270 C   0  0  0  0  0  2  0  0  0  0  0  0
    2.0190    4.8500   -5.0940 C   0  0  0  0  0  2  0  0  0  0  0  0
   -1.0920    6.6570   -1.6190 C   0  0  0  0  0  1  0  0  0  0  0  0
    0.3380    6.3570   -1.1680 C   0  0  0  0  0  3  0  0  0  0  0  0
    0.6110    6.7750    0.2790 C   0  0  0  0  0  1  0  0  0  0  0  0
    3.0150    3.8180    0.4190 C   0  0  0  0  0  0  0  0  0  0  0  0
    3.3200    4.6520    1.3320 O   0  0  0  0  0  1  0  0  0  0  0  0
    3.8270    3.3660   -0.4500 O   0  0  0  0  0  0  0  0  0  0  0  0
  1  2  1  0  0  0  0
  1  5  2  0  0  0  0
  2  3  2  0  0  0  0
  3  4  1  0  0  0  0
  3  6  1  0  0  0  0
  5 25  1  0  0  0  0
  5  4  1  0  0  0  0
  6 11  1  0  0  0  0
  7  8  1  0  0  0  0
  7  6  2  0  0  0  0
  8  9  2  0  0  0  0
  9 10  1  0  0  0  0
 11 10  2  0  0  0  0
 12 23  1  0  0  0  0
 12  1  1  0  0  0  0
 13 12  1  0  0  0  0
 14 13  2  0  0  0  0
 15 16  1  0  0  0  0
 15 13  1  1  0  0  0
 17 16  1  0  0  0  0
 18 19  1  6  0  0  0
 18 17  1  0  0  0  0
 20 18  1  0  0  0  0
 20 21  1  0  0  0  0
 21 15  1  0  0  0  0
 22 23  1  0  0  0  0
 23 24  1  0  0  0  0
 25 26  1  0  0  0  0
 27 25  2  0  0  0  0
M  END
>  <minimizedAffinity>
-3.43913412

$$$$

 OpenBabel09082221253D

 27 29  0  0  1  0  0  0  0  0999 V2000
    1.4690    5.0870    0.7050 C   0  0  0  0  0  0  0  0  0  0  0  0
    1.2790    6.2220    1.5650 C   0  0  0  0  0  3  0  0  0  0  0  0
    1.3110    5.9080    2.9090 C   0  0  0  0  0  0  0  0  0  0  0  0
    1.5800    4.2350    3.1290 S   0  0  0  0  0  0  0  0  0  0  0  0
    1.7500    3.9450    1.4420 C   0  0  0  0  0  0  0  0  0  0  0  0
    1.1100    6.7960    4.0610 C   0  0  0  0  0  0  0  0  0  0  0  0
   -0.0420    6.7140    4.8590 C   0  0  0  0  0  3  0  0  0  0  0  0
   -0.2090    7.5530    5.9640 C   0  0  0  0  0  3  0  0  0  0  0  0
    0.7770    8.4830    6.2890 C   0  0  0  0  0  3  0  0  0  0  0  0
    1.9270    8.5750    5.5100 C   0  0  0  0  0  3  0  0  0  0  0  0
    2.0940    7.7360    4.4050 C   0  0  0  0  0  3  0  0  0  0  0  0
    1.4120    5.1820   -0.7090 N   0  0  0  0  0  0  0  0  0  0  0  0
    2.6140    5.5520   -1.3340 C   0  0  0  0  0  0  0  0  0  0  0  0
    3.7090    5.4820   -0.7550 O   0  0  0  0  0  0  0  0  0  0  0  0
    2.6000    5.9930   -2.8030 C   0  0  1  0  0  3  0  0  0  0  0  0
    3.0490    7.4530   -2.9330 C   0  0  0  0  0  2  0  0  0  0  0  0
    3.1110    7.9030   -4.3930 C   0  0  0  0  0  2  0  0  0  0  0  0
    4.0040    6.9870   -5.2360 C   0  0  2  0  0  3  0  0  0  0  0  0
    3.9960    7.4240   -6.7000 C   0  0  0  0  0  1  0  0  0  0  0  0
    3.5620    5.5240   -5.1050 C   0  0  0  0  0  2  0  0  0  0  0  0
    3.5170    5.0860   -3.6430 C   0  0  0  0  0  2  0  0  0  0  0  0
   -0.6260    5.8960   -2.0390 C   0  0  0  0  0  1  0  0  0  0  0  0
    0.1490    4.7640   -1.3660 C   0  0  0  0  0  3  0  0  0  0  0  0
    0.3200    3.5360   -2.2630 C   0  0  0  0  0  1  0  0  0  0  0  0
    2.2200    2.6280    0.9140 C   0  0  0  0  0  0  0  0  0  0  0  0
    1.3400    1.7310    0.7150 O   0  0  0  0  0  0  0  0  0  0  0  0
    3.4720    2.4610    0.7650 O   0  0  0  0  0  1  0  0  0  0  0  0
  1  5  2  0  0  0  0
  1  2  1  0  0  0  0
  2  3  2  0  0  0  0
  3  4  1  0  0  0  0
  3  6  1  0  0  0  0
  5  4  1  0  0  0  0
  6 11  2  0  0  0  0
  6  7  1  0  0  0  0
  7  8  2  0  0  0  0
  8  9  1  0  0  0  0
 10  9  2  0  0  0  0
 11 10  1  0  0  0  0
 12  1  1  0  0  0  0
 13 14  2  0  0  0  0
 13 12  1  0  0  0  0
 15 13  1  1  0  0  0
 16 15  1  0  0  0  0
 17 16  1  0  0  0  0
 18 19  1  6  0  0  0
 18 20  1  0  0  0  0
 18 17  1  0  0  0  0
 20 21  1  0  0  0  0
 21 15  1  0  0  0  0
 22 23  1  0  0  0  0
 23 12  1  0  0  0  0
 24 23  1  0  0  0  0
 25  5  1  0  0  0  0
 26 25  2  0  0  0  0
 27 25  1  0  0  0  0
M  END
>  <minimizedAffinity>
-3.38316965

$$$$

 OpenBabel09082221253D

 27 29  0  0  1  0  0  0  0  0999 V2000
    1.4570    4.1980   -0.9070 C   0  0  0  0  0  0  0  0  0  0  0  0
    1.5230    4.8020   -2.2080 C   0  0  0  0  0  3  0  0  0  0  0  0
    2.7860    5.2400   -2.5510 C   0  0  0  0  0  0  0  0  0  0  0  0
    3.8980    4.9100   -1.2940 S   0  0  0  0  0  0  0  0  0  0  0  0
    2.7200    4.1010   -0.3380 C   0  0  0  0  0  0  0  0  0  0  0  0
    3.2140    5.9390   -3.7690 C   0  0  0  0  0  0  0  0  0  0  0  0
    3.6340    7.2780   -3.7380 C   0  0  0  0  0  3  0  0  0  0  0  0
    4.0570    7.9230   -4.9050 C   0  0  0  0  0  3  0  0  0  0  0  0
    4.0690    7.2350   -6.1160 C   0  0  0  0  0  3  0  0  0  0  0  0
    3.6580    5.9060   -6.1640 C   0  0  0  0  0  3  0  0  0  0  0  0
    3.2360    5.2610   -4.9970 C   0  0  0  0  0  3  0  0  0  0  0  0
    0.2420    3.7360   -0.3390 N   0  0  0  0  0  0  0  0  0  0  0  0
   -0.3730    4.6180    0.5630 C   0  0  0  0  0  0  0  0  0  0  0  0
   -0.0740    5.8220    0.6180 O   0  0  0  0  0  0  0  0  0  0  0  0
   -1.5020    4.1120    1.4690 C   0  0  1  0  0  3  0  0  0  0  0  0
   -1.0060    3.9490    2.9100 C   0  0  0  0  0  2  0  0  0  0  0  0
   -2.1270    3.5100    3.8530 C   0  0  0  0  0  2  0  0  0  0  0  0
   -3.3270    4.4620    3.7990 C   0  0  2  0  0  3  0  0  0  0  0  0
   -4.4530    3.9630    4.7020 C   0  0  0  0  0  1  0  0  0  0  0  0
   -3.8220    4.6320    2.3570 C   0  0  0  0  0  2  0  0  0  0  0  0
   -2.6960    5.0830    1.4310 C   0  0  0  0  0  2  0  0  0  0  0  0
   -0.1720    1.2750    0.1160 C   0  0  0  0  0  1  0  0  0  0  0  0
   -0.2990    2.4520   -0.8510 C   0  0  0  0  0  3  0  0  0  0  0  0
   -1.7000    2.5900   -1.4490 C   0  0  0  0  0  1  0  0  0  0  0  0
    3.0940    3.3430    0.8940 C   0  0  0  0  0  0  0  0  0  0  0  0
    3.1580    3.9960    1.9850 O   0  0  0  0  0  1  0  0  0  0  0  0
    3.3940    2.1130    0.7680 O   0  0  0  0  0  0  0  0  0  0  0  0
  1 12  1  0  0  0  0
  1  5  2  0  0  0  0
  2  1  1  0  0  0  0
  3  2  2  0  0  0  0
  3  4  1  0  0  0  0
  4  5  1  0  0  0  0
  5 25  1  0  0  0  0
  6  7  1  0  0  0  0
  6  3  1  0  0  0  0
  8  7  2  0  0  0  0
  9  8  1  0  0  0  0
 10  9  2  0  0  0  0
 10 11  1  0  0  0  0
 11  6  2  0  0  0  0
 12 13  1  0  0  0  0
 13 14  2  0  0  0  0
 15 13  1  6  0  0  0
 15 16  1  0  0  0  0
 16 17  1  0  0  0  0
 18 17  1  0  0  0  0
 18 19  1  1  0  0  0
 20 18  1  0  0  0  0
 21 15  1  0  0  0  0
 21 20  1  0  0  0  0
 23 12  1  0  0  0  0
 23 22  1  0  0  0  0
 24 23  1  0  0  0  0
 25 26  1  0  0  0  0
 27 25  2  0  0  0  0
M  END
>  <minimizedAffinity>
-3.36778307

$$$$
