
 OpenBabel09092210413D

 27 29  0  0  1  0  0  0  0  0999 V2000
    0.6040    3.9930   -0.4800 C   0  0  0  0  0  0  0  0  0  0  0  0
   -0.7010    3.4970   -0.1410 C   0  0  0  0  0  3  0  0  0  0  0  0
   -0.6800    2.4920    0.8060 C   0  0  0  0  0  0  0  0  0  0  0  0
    0.9240    2.1560    1.2910 S   0  0  0  0  0  0  0  0  0  0  0  0
    1.5810    3.4100    0.3140 C   0  0  0  0  0  0  0  0  0  0  0  0
   -1.8070    1.7260    1.3530 C   0  0  0  0  0  0  0  0  0  0  0  0
   -2.4420    0.7200    0.6080 C   0  0  0  0  0  3  0  0  0  0  0  0
   -3.5010   -0.0130    1.1510 C   0  0  0  0  0  3  0  0  0  0  0  0
   -3.9370    0.2480    2.4480 C   0  0  0  0  0  3  0  0  0  0  0  0
   -3.3160    1.2400    3.2020 C   0  0  0  0  0  3  0  0  0  0  0  0
   -2.2570    1.9730    2.6590 C   0  0  0  0  0  3  0  0  0  0  0  0
    0.8090    4.9840   -1.4740 N   0  0  0  0  0  0  0  0  0  0  0  0
    1.3300    4.5150   -2.6900 C   0  0  0  0  0  0  0  0  0  0  0  0
    1.3080    3.3140   -3.0000 O   0  0  0  0  0  0  0  0  0  0  0  0
    1.8870    5.5150   -3.7120 C   0  0  1  0  0  3  0  0  0  0  0  0
    3.2500    6.0500   -3.2570 C   0  0  0  0  0  2  0  0  0  0  0  0
    3.8620    6.9980   -4.2880 C   0  0  0  0  0  2  0  0  0  0  0  0
    3.9730    6.3460   -5.6710 C   0  0  2  0  0  3  0  0  0  0  0  0
    4.5300    7.3370   -6.6920 C   0  0  0  0  0  1  0  0  0  0  0  0
    2.6120    5.8040   -6.1270 C   0  0  0  0  0  2  0  0  0  0  0  0
    2.0190    4.8500   -5.0940 C   0  0  0  0  0  2  0  0  0  0  0  0
   -1.0920    6.6570   -1.6190 C   0  0  0  0  0  1  0  0  0  0  0  0
    0.3380    6.3570   -1.1680 C   0  0  0  0  0  3  0  0  0  0  0  0
    0.6110    6.7750    0.2790 C   0  0  0  0  0  1  0  0  0  0  0  0
    3.0150    3.8180    0.4190 C   0  0  0  0  0  0  0  0  0  0  0  0
    3.3200    4.6520    1.3320 O   0  0  0  0  0  1  0  0  0  0  0  0
    3.8270    3.3660   -0.4500 O   0  0  0  0  0  0  0  0  0  0  0  0
  1  2  1  0  0  0  0
  1  5  2  0  0  0  0
  2  3  2  0  0  0  0
  3  4  1  0  0  0  0
  3  6  1  0  0  0  0
  5 25  1  0  0  0  0
  5  4  1  0  0  0  0
  6 11  1  0  0  0  0
  7  8  1  0  0  0  0
  7  6  2  0  0  0  0
  8  9  2  0  0  0  0
  9 10  1  0  0  0  0
 11 10  2  0  0  0  0
 12 23  1  0  0  0  0
 12  1  1  0  0  0  0
 13 12  1  0  0  0  0
 14 13  2  0  0  0  0
 15 16  1  0  0  0  0
 15 13  1  1  0  0  0
 17 16  1  0  0  0  0
 18 19  1  6  0  0  0
 18 17  1  0  0  0  0
 20 18  1  0  0  0  0
 20 21  1  0  0  0  0
 21 15  1  0  0  0  0
 22 23  1  0  0  0  0
 23 24  1  0  0  0  0
 25 26  1  0  0  0  0
 27 25  2  0  0  0  0
M  END
>  <minimizedAffinity>
-3.43913412

$$$$
