REMARK  Name = 
REMARK  10 active torsions:
REMARK  status: ('A' for Active; 'I' for Inactive)
REMARK    1  A    between atoms: C_1  and  C_2
REMARK    2  A    between atoms: C_2  and  C_3
REMARK    3  A    between atoms: C_2  and  C_4
REMARK    4  A    between atoms: C_4  and  C_5
REMARK    5  A    between atoms: C_5  and  N_6
REMARK    6  A    between atoms: C_9  and  C_10
REMARK    7  A    between atoms: C_17  and  O_18
REMARK    8  A    between atoms: O_18  and  C_19
REMARK    9  A    between atoms: C_19  and  C_20
REMARK   10  A    between atoms: C_27  and  O_28
REMARK                            x       y       z     vdW  Elec       q    Type
REMARK                         _______ _______ _______ _____ _____    ______ ____
ROOT
ATOM      1  C   UNL     1      -1.965  -2.478  -0.357  0.00  0.00    +0.308 C 
ATOM      2  N   UNL     1      -2.338  -2.104   0.842  0.00  0.00    -0.131 N 
ATOM      3  S   UNL     1      -3.820  -2.179   1.451  0.00  0.00    +0.141 S 
ATOM      4  O   UNL     1      -3.882  -3.254   2.422  0.00  0.00    -0.129 OA
ATOM      5  O   UNL     1      -4.234  -0.841   1.823  0.00  0.00    -0.129 OA
ATOM      6  C   UNL     1      -4.881  -2.660   0.131  0.00  0.00    +0.178 A 
ATOM      7  C   UNL     1      -6.263  -2.665   0.332  0.00  0.00    +0.080 A 
ATOM      8  C   UNL     1      -7.089  -3.016  -0.728  0.00  0.00    +0.123 A 
ATOM      9  C   UNL     1      -6.544  -3.412  -1.948  0.00  0.00    +0.050 A 
ATOM     10  C   UNL     1      -5.157  -3.405  -2.127  0.00  0.00    +0.054 A 
ATOM     11  C   UNL     1      -4.309  -3.014  -1.086  0.00  0.00    +0.148 A 
ATOM     12  N   UNL     1      -2.932  -2.960  -1.268  0.00  0.00    -0.200 N 
ATOM     13  H   UNL     1      -1.626  -1.740   1.468  0.00  0.00    +0.339 HD
ATOM     14  H   UNL     1      -2.558  -3.233  -2.179  0.00  0.00    +0.298 HD
ENDROOT
BRANCH   1  18
ATOM     15  N   UNL     1       1.758  -1.590  -0.157  0.00  0.00    -0.292 N 
ATOM     16  C   UNL     1       0.438  -1.755   0.204  0.00  0.00    +0.271 A 
ATOM     17  O   UNL     1      -0.008  -1.432   1.310  0.00  0.00    -0.267 OA
ATOM     18  C   UNL     1      -0.516  -2.361  -0.779  0.00  0.00    +0.170 A 
ATOM     19  C   UNL     1      -0.044  -2.755  -1.976  0.00  0.00    +0.148 A 
ATOM     20  C   UNL     1       1.360  -2.530  -2.359  0.00  0.00    +0.060 A 
ATOM     21  C   UNL     1       1.864  -2.814  -3.638  0.00  0.00    +0.016 A 
ATOM     22  C   UNL     1       3.202  -2.573  -3.935  0.00  0.00    +0.021 A 
ATOM     23  C   UNL     1       4.000  -2.038  -2.947  0.00  0.00    +0.113 A 
ATOM     24  N   UNL     1       3.544  -1.727  -1.717  0.00  0.00    -0.237 NA
ATOM     25  C   UNL     1       2.242  -1.962  -1.433  0.00  0.00    +0.147 A 
BRANCH  19  26
ATOM     26  O   UNL     1      -0.867  -3.400  -2.888  0.00  0.00    -0.505 OA
ATOM     27  H   UNL     1      -0.330  -4.027  -3.408  0.00  0.00    +0.292 HD
ENDBRANCH  19  26
BRANCH  15  28
ATOM     28  C   UNL     1       2.681  -0.972   0.801  0.00  0.00    +0.127 C 
BRANCH  28  29
ATOM     29  C   UNL     1       3.212  -1.955   1.856  0.00  0.00    +0.025 C 
BRANCH  29  31
ATOM     30  C   UNL     1       5.608  -2.209   1.031  0.00  0.00    +0.007 C 
ATOM     31  C   UNL     1       4.299  -2.929   1.363  0.00  0.00    -0.016 C 
ATOM     32  C   UNL     1       4.565  -3.991   2.433  0.00  0.00    +0.007 C 
ENDBRANCH  29  31
ENDBRANCH  28  29
ENDBRANCH  15  28
ENDBRANCH   1  18
BRANCH   8  33
ATOM     33  O   UNL     1      -8.443  -3.055  -0.558  0.00  0.00    -0.483 OA
BRANCH  33  34
ATOM     34  C   UNL     1      -9.039  -1.789  -0.833  0.00  0.00    +0.324 C 
BRANCH  34  35
ATOM     35  C   UNL     1      -9.152  -0.844   0.368  0.00  0.00    +0.248 C 
ATOM     36  N   UNL     1      -9.580   0.420   0.073  0.00  0.00    -0.327 N 
ATOM     37  O   UNL     1      -8.884  -1.149   1.526  0.00  0.00    -0.272 OA
ATOM     38  H   UNL     1      -9.669   1.073   0.843  0.00  0.00    +0.145 HD
ATOM     39  H   UNL     1      -9.830   0.731  -0.855  0.00  0.00    +0.145 HD
ENDBRANCH  34  35
ENDBRANCH  33  34
ENDBRANCH   8  33
TORSDOF 8
