REMARK  Name = 
REMARK  7 active torsions:
REMARK  status: ('A' for Active; 'I' for Inactive)
REMARK    1  A    between atoms: C_2  and  C_15
REMARK    2  A    between atoms: N_3  and  CA_4
REMARK    3  A    between atoms: CA_4  and  CB_5
REMARK    4  A    between atoms: CA_4  and  C_12
REMARK    5  A    between atoms: CB_5  and  CG_6
REMARK    6  A    between atoms: C_22  and  C_23
REMARK    7  A    between atoms: N_29  and  C_30
REMARK                            x       y       z     vdW  Elec       q    Type
REMARK                         _______ _______ _______ _____ _____    ______ ____
ROOT
ATOM      1  C   UNK A   0       2.967  -1.001  -0.243  0.00  0.00    +0.039 A 
ATOM      2  C   UNK A   0       3.909  -1.983  -0.562  0.00  0.00    +0.015 A 
ATOM      3  C   UNK A   0       4.095  -2.400  -1.884  0.00  0.00    +0.029 A 
ATOM      4  C   UNK A   0       3.283  -1.812  -2.866  0.00  0.00    +0.069 A 
ATOM      5  C   UNK A   0       2.328  -0.852  -2.557  0.00  0.00    +0.090 A 
ATOM      6  C   UNK A   0       2.148  -0.439  -1.230  0.00  0.00    +0.043 A 
ATOM      7  N   UNK A   0       1.672  -0.444  -3.683  0.00  0.00    -0.226 NA
ATOM      8  C   UNK A   0       2.219  -1.089  -4.706  0.00  0.00    +0.160 A 
ATOM      9  N   UNK A   0       3.167  -1.992  -4.240  0.00  0.00    -0.319 N 
ENDROOT
BRANCH   8  10
ATOM     10  C   UNK A   0       1.801  -0.845  -6.094  0.00  0.00    +0.106 A 
ATOM     11  C   UNK A   0       0.516  -0.379  -6.364  0.00  0.00    +0.031 A 
ATOM     12  C   UNK A   0       0.153  -0.113  -7.682  0.00  0.00    +0.004 A 
ATOM     13  C   UNK A   0       1.085  -0.307  -8.692  0.00  0.00    +0.020 A 
ATOM     14  C   UNK A   0       2.345  -0.759  -8.338  0.00  0.00    +0.111 A 
ATOM     15  N   UNK A   0       2.720  -1.032  -7.068  0.00  0.00    -0.252 NA
ENDBRANCH   8  10
BRANCH   9  16
ATOM     16  C   UNK A   0       3.899  -3.033  -4.961  0.00  0.00    +0.089 C 
ATOM     17  C   UNK A   0       3.031  -3.964  -5.827  0.00  0.00    +0.025 C 
ATOM     18  C   UNK A   0       3.868  -5.070  -6.467  0.00  0.00    +0.002 C 
ATOM     19  C   UNK A   0       5.059  -4.501  -7.232  0.00  0.00    +0.000 C 
ATOM     20  C   UNK A   0       5.942  -3.640  -6.334  0.00  0.00    +0.002 C 
ATOM     21  C   UNK A   0       5.154  -2.509  -5.675  0.00  0.00    +0.025 C 
ENDBRANCH   9  16
BRANCH   1  23
ATOM     22  O   UNK A   0       1.623  -0.723   1.636  0.00  0.00    -0.270 OA
ATOM     23  C   UNK A   0       2.750  -0.601   1.162  0.00  0.00    +0.245 C 
ATOM     24  N   PHE A   1       3.795  -0.109   1.888  0.00  0.00    -0.303 N 
ATOM     25  H   PHE A   1       3.629   0.055   2.879  0.00  0.00    +0.150 HD
BRANCH  24  26
ATOM     26  CA  PHE A   1       5.165   0.296   1.480  0.00  0.00    +0.123 C 
BRANCH  26  27
ATOM     27  C   PHE A   1       6.164   0.412   2.675  0.00  0.00    +0.062 C 
ATOM     28  O   PHE A   1       7.361   0.677   2.363  0.00  0.00    -0.548 OA
ATOM     29  OXT PHE A   1       5.663   0.182   3.817  0.00  0.00    -0.548 OA
ENDBRANCH  26  27
BRANCH  26  30
ATOM     30  CB  PHE A   1       5.182   1.594   0.656  0.00  0.00    +0.063 C 
BRANCH  30  31
ATOM     31  CG  PHE A   1       4.561   2.803   1.323  0.00  0.00    -0.045 A 
ATOM     32  CD1 PHE A   1       3.222   3.143   1.088  0.00  0.00    +0.004 A 
ATOM     33  CE1 PHE A   1       2.651   4.255   1.711  0.00  0.00    +0.000 A 
ATOM     34  CZ  PHE A   1       3.413   5.038   2.577  0.00  0.00    +0.000 A 
ATOM     35  CE2 PHE A   1       4.744   4.706   2.822  0.00  0.00    +0.000 A 
ATOM     36  CD2 PHE A   1       5.315   3.595   2.199  0.00  0.00    +0.004 A 
ENDBRANCH  30  31
ENDBRANCH  26  30
ENDBRANCH  24  26
ENDBRANCH   1  23
TORSDOF 7
