
 OpenBabel09122222393D

 36 40  0  0  1  0  0  0  0  0999 V2000
    6.2290   -3.5380    6.4410 C   0  0  0  0  0  0  0  0  0  0  0  0
    6.8730   -2.5020    7.1240 C   0  0  0  0  0  3  0  0  0  0  0  0
    7.8550   -1.7270    6.4980 C   0  0  0  0  0  3  0  0  0  0  0  0
    8.1810   -2.0480    5.1720 C   0  0  0  0  0  0  0  0  0  0  0  0
    7.5640   -3.0900    4.4910 C   0  0  0  0  0  0  0  0  0  0  0  0
    6.5810   -3.8620    5.1250 C   0  0  0  0  0  3  0  0  0  0  0  0
    8.0600   -3.1980    3.2230 N   0  0  0  0  0  0  0  0  0  0  0  0
    8.9450   -2.2210    3.0680 C   0  0  0  0  0  0  0  0  0  0  0  0
    9.1010   -1.5330    4.2650 N   0  0  0  0  0  0  0  0  0  0  0  0
    9.6350   -1.9910    1.7910 C   0  0  0  0  0  0  0  0  0  0  0  0
   10.5870   -2.9030    1.3380 C   0  0  0  0  0  3  0  0  0  0  0  0
   11.1990   -2.6910    0.1050 C   0  0  0  0  0  3  0  0  0  0  0  0
   10.8370   -1.5820   -0.6470 C   0  0  0  0  0  3  0  0  0  0  0  0
    9.8730   -0.7320   -0.1320 C   0  0  0  0  0  3  0  0  0  0  0  0
    9.2690   -0.9110    1.0650 N   0  0  0  0  0  0  0  0  0  0  0  0
   10.0730   -0.5040    4.6310 C   0  0  0  0  0  3  0  0  0  0  0  0
    9.8460    0.8740    3.9820 C   0  0  0  0  0  2  0  0  0  0  0  0
   10.9580    1.8540    4.3500 C   0  0  0  0  0  2  0  0  0  0  0  0
   11.1490    1.9430    5.8610 C   0  0  0  0  0  2  0  0  0  0  0  0
   11.4430    0.5760    6.4710 C   0  0  0  0  0  2  0  0  0  0  0  0
   10.3530   -0.4430    6.1400 C   0  0  0  0  0  2  0  0  0  0  0  0
    5.6230   -5.2710    7.8700 O   0  0  0  0  0  0  0  0  0  0  0  0
    5.2260   -4.3770    7.1270 C   0  0  0  0  0  0  0  0  0  0  0  0
    3.8990   -4.1410    6.9170 N   0  0  0  0  0  0  0  0  0  0  0  0
    3.2420   -4.6700    7.4870 H   0  0  0  0  0  0  0  0  0  0  0  0
    3.2030   -3.2630    5.9400 C   0  0  2  0  0  3  0  0  0  0  0  0
    2.2750   -2.1990    6.6070 C   0  0  0  0  0  0  0  0  0  0  0  0
    1.7050   -1.3960    5.8130 O   0  0  0  0  0  0  0  0  0  0  0  0
    2.2380   -2.2380    7.8740 O   0  0  0  0  0  1  0  0  0  0  0  0
    2.4160   -4.0540    4.8820 C   0  0  0  0  0  2  0  0  0  0  0  0
    3.2380   -4.9770    4.0080 C   0  0  0  0  0  0  0  0  0  0  0  0
    3.2080   -6.3650    4.2020 C   0  0  0  0  0  3  0  0  0  0  0  0
    3.9620   -7.2130    3.3880 C   0  0  0  0  0  3  0  0  0  0  0  0
    4.7530   -6.6830    2.3700 C   0  0  0  0  0  3  0  0  0  0  0  0
    4.7860   -5.3050    2.1640 C   0  0  0  0  0  3  0  0  0  0  0  0
    4.0330   -4.4570    2.9780 C   0  0  0  0  0  3  0  0  0  0  0  0
  1  2  1  0  0  0  0
  1 23  1  0  0  0  0
  3  2  2  0  0  0  0
  4  3  1  0  0  0  0
  5  6  1  0  0  0  0
  5  4  2  0  0  0  0
  6  1  2  0  0  0  0
  7  5  1  0  0  0  0
  8  7  2  0  0  0  0
  8  9  1  0  0  0  0
  9 16  1  0  0  0  0
  9  4  1  0  0  0  0
 10  8  1  0  0  0  0
 11 10  1  0  0  0  0
 12 11  2  0  0  0  0
 13 14  2  0  0  0  0
 13 12  1  0  0  0  0
 14 15  1  0  0  0  0
 15 10  2  0  0  0  0
 16 21  1  0  0  0  0
 17 18  1  0  0  0  0
 17 16  1  0  0  0  0
 18 19  1  0  0  0  0
 19 20  1  0  0  0  0
 21 20  1  0  0  0  0
 23 22  2  0  0  0  0
 24 23  1  0  0  0  0
 24 25  1  0  0  0  0
 26 30  1  6  0  0  0
 26 27  1  0  0  0  0
 26 24  1  0  0  0  0
 27 29  1  0  0  0  0
 28 27  2  0  0  0  0
 31 32  1  0  0  0  0
 31 30  1  0  0  0  0
 33 32  2  0  0  0  0
 34 33  1  0  0  0  0
 35 34  2  0  0  0  0
 35 36  1  0  0  0  0
 36 31  2  0  0  0  0
M  END
>  <minimizedAffinity>
-6.99591732

$$$$
