
 OpenBabel09122222393D

 36 40  0  0  1  0  0  0  0  0999 V2000
    5.7240   -5.6570    2.1550 C   0  0  0  0  0  0  0  0  0  0  0  0
    6.4950   -5.5260    0.9960 C   0  0  0  0  0  3  0  0  0  0  0  0
    7.5940   -4.6630    0.9570 C   0  0  0  0  0  3  0  0  0  0  0  0
    7.8720   -3.9190    2.1140 C   0  0  0  0  0  0  0  0  0  0  0  0
    7.0990   -4.0240    3.2630 C   0  0  0  0  0  0  0  0  0  0  0  0
    5.9990   -4.8920    3.2950 C   0  0  0  0  0  3  0  0  0  0  0  0
    7.5730   -3.1980    4.2410 N   0  0  0  0  0  0  0  0  0  0  0  0
    8.6570   -2.6040    3.7560 C   0  0  0  0  0  0  0  0  0  0  0  0
    8.8370   -2.9680    2.4270 N   0  0  0  0  0  0  0  0  0  0  0  0
    9.4710   -1.6870    4.5670 C   0  0  0  0  0  0  0  0  0  0  0  0
   10.2140   -2.1760    5.6390 C   0  0  0  0  0  3  0  0  0  0  0  0
   11.0130   -1.2990    6.3680 C   0  0  0  0  0  3  0  0  0  0  0  0
   11.0580    0.0390    6.0000 C   0  0  0  0  0  3  0  0  0  0  0  0
   10.3000    0.4410    4.9130 C   0  0  0  0  0  3  0  0  0  0  0  0
    9.5110   -0.3880    4.1940 N   0  0  0  0  0  0  0  0  0  0  0  0
    9.7770   -2.4460    1.4360 C   0  0  0  0  0  3  0  0  0  0  0  0
   10.4120   -3.5050    0.5150 C   0  0  0  0  0  2  0  0  0  0  0  0
   11.4440   -2.8800   -0.4230 C   0  0  0  0  0  2  0  0  0  0  0  0
   10.8580   -1.7050   -1.1990 C   0  0  0  0  0  2  0  0  0  0  0  0
   10.2990   -0.6380   -0.2630 C   0  0  0  0  0  2  0  0  0  0  0  0
    9.2530   -1.2090    0.6930 C   0  0  0  0  0  2  0  0  0  0  0  0
    4.3450   -7.2700    1.2010 O   0  0  0  0  0  0  0  0  0  0  0  0
    4.5390   -6.5390    2.1690 C   0  0  0  0  0  0  0  0  0  0  0  0
    3.7000   -6.5180    3.2450 N   0  0  0  0  0  0  0  0  0  0  0  0
    2.9580   -7.2140    3.2620 H   0  0  0  0  0  0  0  0  0  0  0  0
    3.6320   -5.6030    4.4140 C   0  0  2  0  0  3  0  0  0  0  0  0
    3.0700   -6.2800    5.7040 C   0  0  0  0  0  0  0  0  0  0  0  0
    1.8170   -6.4490    5.7320 O   0  0  0  0  0  0  0  0  0  0  0  0
    3.9360   -6.5410    6.5930 O   0  0  0  0  0  1  0  0  0  0  0  0
    2.8490   -4.3140    4.1160 C   0  0  0  0  0  2  0  0  0  0  0  0
    2.9970   -3.2060    5.1370 C   0  0  0  0  0  0  0  0  0  0  0  0
    1.9330   -2.3360    5.4100 C   0  0  0  0  0  3  0  0  0  0  0  0
    2.0710   -1.3190    6.3580 C   0  0  0  0  0  3  0  0  0  0  0  0
    3.2750   -1.1630    7.0440 C   0  0  0  0  0  3  0  0  0  0  0  0
    4.3370   -2.0270    6.7840 C   0  0  0  0  0  3  0  0  0  0  0  0
    4.2000   -3.0420    5.8370 C   0  0  0  0  0  3  0  0  0  0  0  0
  1 23  1  0  0  0  0
  1  6  1  0  0  0  0
  2  1  2  0  0  0  0
  3  2  1  0  0  0  0
  3  4  2  0  0  0  0
  4  9  1  0  0  0  0
  4  5  1  0  0  0  0
  5  6  2  0  0  0  0
  5  7  1  0  0  0  0
  8  7  2  0  0  0  0
  8 10  1  0  0  0  0
  9  8  1  0  0  0  0
 10 11  1  0  0  0  0
 11 12  2  0  0  0  0
 13 12  1  0  0  0  0
 14 13  2  0  0  0  0
 15 10  2  0  0  0  0
 15 14  1  0  0  0  0
 16  9  1  0  0  0  0
 17 16  1  0  0  0  0
 18 17  1  0  0  0  0
 19 18  1  0  0  0  0
 19 20  1  0  0  0  0
 20 21  1  0  0  0  0
 21 16  1  0  0  0  0
 22 23  2  0  0  0  0
 23 24  1  0  0  0  0
 24 25  1  0  0  0  0
 24 26  1  0  0  0  0
 26 30  1  6  0  0  0
 26 27  1  0  0  0  0
 27 28  2  0  0  0  0
 27 29  1  0  0  0  0
 30 31  1  0  0  0  0
 31 32  2  0  0  0  0
 31 36  1  0  0  0  0
 32 33  1  0  0  0  0
 33 34  2  0  0  0  0
 35 34  1  0  0  0  0
 36 35  2  0  0  0  0
M  END
>  <minimizedAffinity>
-7.83529949

$$$$
