
 OpenBabel09122222393D

 36 40  0  0  1  0  0  0  0  0999 V2000
    6.2210   -5.0980    2.4650 C   0  0  0  0  0  0  0  0  0  0  0  0
    6.0260   -3.8200    2.9950 C   0  0  0  0  0  3  0  0  0  0  0  0
    4.9880   -3.5660    3.8980 C   0  0  0  0  0  3  0  0  0  0  0  0
    4.1420   -4.6370    4.2260 C   0  0  0  0  0  0  0  0  0  0  0  0
    4.3130   -5.9050    3.6870 C   0  0  0  0  0  0  0  0  0  0  0  0
    5.3550   -6.1520    2.7830 C   0  0  0  0  0  3  0  0  0  0  0  0
    3.3610   -6.7630    4.1600 N   0  0  0  0  0  0  0  0  0  0  0  0
    2.6180   -6.0800    5.0220 C   0  0  0  0  0  0  0  0  0  0  0  0
    3.0200   -4.7500    5.0400 N   0  0  0  0  0  0  0  0  0  0  0  0
    1.5280   -6.7110    5.7800 C   0  0  0  0  0  0  0  0  0  0  0  0
    1.5770   -6.7480    7.1720 C   0  0  0  0  0  3  0  0  0  0  0  0
    0.5150   -7.3120    7.8750 C   0  0  0  0  0  3  0  0  0  0  0  0
   -0.5720   -7.8100    7.1700 C   0  0  0  0  0  3  0  0  0  0  0  0
   -0.5500   -7.7220    5.7890 C   0  0  0  0  0  3  0  0  0  0  0  0
    0.4720   -7.1870    5.0830 N   0  0  0  0  0  0  0  0  0  0  0  0
    2.4020   -3.5960    5.6920 C   0  0  0  0  0  3  0  0  0  0  0  0
    3.0940   -3.1240    6.9830 C   0  0  0  0  0  2  0  0  0  0  0  0
    2.3280   -1.9760    7.6380 C   0  0  0  0  0  2  0  0  0  0  0  0
    2.0800   -0.8350    6.6570 C   0  0  0  0  0  2  0  0  0  0  0  0
    1.3300   -1.3150    5.4180 C   0  0  0  0  0  2  0  0  0  0  0  0
    2.0610   -2.4590    4.7170 C   0  0  0  0  0  2  0  0  0  0  0  0
    7.2630   -6.3870    0.8310 O   0  0  0  0  0  0  0  0  0  0  0  0
    7.2930   -5.3430    1.4790 C   0  0  0  0  0  0  0  0  0  0  0  0
    8.2810   -4.4160    1.3190 N   0  0  0  0  0  0  0  0  0  0  0  0
    8.9400   -4.5730    0.5590 H   0  0  0  0  0  0  0  0  0  0  0  0
    8.6200   -3.2020    2.1050 C   0  0  2  0  0  3  0  0  0  0  0  0
    9.1900   -2.0350    1.2380 C   0  0  0  0  0  0  0  0  0  0  0  0
    9.9850   -2.3770    0.3160 O   0  0  0  0  0  0  0  0  0  0  0  0
    8.8210   -0.8740    1.5910 O   0  0  0  0  0  1  0  0  0  0  0  0
    9.5720   -3.4970    3.2760 C   0  0  0  0  0  2  0  0  0  0  0  0
    9.3770   -2.6450    4.5120 C   0  0  0  0  0  0  0  0  0  0  0  0
    8.2610   -2.8290    5.3400 C   0  0  0  0  0  3  0  0  0  0  0  0
    8.0880   -2.0450    6.4840 C   0  0  0  0  0  3  0  0  0  0  0  0
    9.0300   -1.0710    6.8120 C   0  0  0  0  0  3  0  0  0  0  0  0
   10.1460   -0.8840    5.9980 C   0  0  0  0  0  3  0  0  0  0  0  0
   10.3190   -1.6660    4.8550 C   0  0  0  0  0  3  0  0  0  0  0  0
  1  6  2  0  0  0  0
  1  2  1  0  0  0  0
  2  3  2  0  0  0  0
  3  4  1  0  0  0  0
  4  9  1  0  0  0  0
  5  7  1  0  0  0  0
  5  4  2  0  0  0  0
  6  5  1  0  0  0  0
  7  8  2  0  0  0  0
  8  9  1  0  0  0  0
  8 10  1  0  0  0  0
  9 16  1  0  0  0  0
 10 11  1  0  0  0  0
 11 12  2  0  0  0  0
 13 12  1  0  0  0  0
 14 13  2  0  0  0  0
 15 10  2  0  0  0  0
 15 14  1  0  0  0  0
 16 17  1  0  0  0  0
 17 18  1  0  0  0  0
 19 18  1  0  0  0  0
 20 19  1  0  0  0  0
 21 20  1  0  0  0  0
 21 16  1  0  0  0  0
 22 23  2  0  0  0  0
 23  1  1  0  0  0  0
 24 23  1  0  0  0  0
 24 26  1  0  0  0  0
 25 24  1  0  0  0  0
 26 30  1  1  0  0  0
 27 29  1  0  0  0  0
 27 26  1  0  0  0  0
 28 27  2  0  0  0  0
 30 31  1  0  0  0  0
 31 36  2  0  0  0  0
 31 32  1  0  0  0  0
 32 33  2  0  0  0  0
 33 34  1  0  0  0  0
 35 34  2  0  0  0  0
 36 35  1  0  0  0  0
M  END
>  <minimizedAffinity>
-7.78940725

$$$$
