
 OpenBabel09122222393D

 36 40  0  0  1  0  0  0  0  0999 V2000
    8.9920   -3.2270    2.8380 C   0  0  0  0  0  0  0  0  0  0  0  0
    8.1470   -2.6640    3.7980 C   0  0  0  0  0  3  0  0  0  0  0  0
    6.8590   -3.1670    4.0080 C   0  0  0  0  0  3  0  0  0  0  0  0
    6.4450   -4.2380    3.2000 C   0  0  0  0  0  0  0  0  0  0  0  0
    7.2690   -4.7890    2.2270 C   0  0  0  0  0  0  0  0  0  0  0  0
    8.5580   -4.2800    2.0230 C   0  0  0  0  0  3  0  0  0  0  0  0
    6.6330   -5.8100    1.5790 N   0  0  0  0  0  0  0  0  0  0  0  0
    5.4420   -5.9490    2.1490 C   0  0  0  0  0  0  0  0  0  0  0  0
    5.2590   -4.9570    3.1040 N   0  0  0  0  0  0  0  0  0  0  0  0
    4.5050   -7.0070    1.7450 C   0  0  0  0  0  0  0  0  0  0  0  0
    4.1740   -7.1710    0.4020 C   0  0  0  0  0  3  0  0  0  0  0  0
    3.3170   -8.2060    0.0350 C   0  0  0  0  0  3  0  0  0  0  0  0
    2.8250   -9.0550    1.0150 C   0  0  0  0  0  3  0  0  0  0  0  0
    3.2130   -8.8330    2.3250 C   0  0  0  0  0  3  0  0  0  0  0  0
    4.0370   -7.8320    2.7090 N   0  0  0  0  0  0  0  0  0  0  0  0
    4.0600   -4.5990    3.8610 C   0  0  0  0  0  3  0  0  0  0  0  0
    4.0630   -5.0350    5.3380 C   0  0  0  0  0  2  0  0  0  0  0  0
    2.7380   -4.6990    6.0200 C   0  0  0  0  0  2  0  0  0  0  0  0
    2.3730   -3.2280    5.8440 C   0  0  0  0  0  2  0  0  0  0  0  0
    2.3070   -2.8390    4.3710 C   0  0  0  0  0  2  0  0  0  0  0  0
    3.6150   -3.1450    3.6420 C   0  0  0  0  0  2  0  0  0  0  0  0
   11.0540   -2.4310    3.5660 O   0  0  0  0  0  0  0  0  0  0  0  0
   10.3340   -2.6590    2.5970 C   0  0  0  0  0  0  0  0  0  0  0  0
   10.7330   -2.4020    1.3180 N   0  0  0  0  0  0  0  0  0  0  0  0
   11.7000   -2.1110    1.1880 H   0  0  0  0  0  0  0  0  0  0  0  0
    9.9810   -2.4180    0.0360 C   0  0  2  0  0  3  0  0  0  0  0  0
   10.2140   -3.7110   -0.8080 C   0  0  0  0  0  0  0  0  0  0  0  0
   11.4220   -3.9880   -1.0630 O   0  0  0  0  0  1  0  0  0  0  0  0
    9.1580   -4.3080   -1.1780 O   0  0  0  0  0  0  0  0  0  0  0  0
   10.2490   -1.1740   -0.8270 C   0  0  0  0  0  2  0  0  0  0  0  0
   10.1300    0.1570   -0.1150 C   0  0  0  0  0  0  0  0  0  0  0  0
   10.7500    1.3030   -0.6300 C   0  0  0  0  0  3  0  0  0  0  0  0
   10.6310    2.5310    0.0260 C   0  0  0  0  0  3  0  0  0  0  0  0
    9.8910    2.6240    1.2040 C   0  0  0  0  0  3  0  0  0  0  0  0
    9.2670    1.4910    1.7220 C   0  0  0  0  0  3  0  0  0  0  0  0
    9.3850    0.2650    1.0670 C   0  0  0  0  0  3  0  0  0  0  0  0
  1  2  1  0  0  0  0
  2  3  2  0  0  0  0
  4  3  1  0  0  0  0
  5  4  2  0  0  0  0
  6  5  1  0  0  0  0
  6  1  2  0  0  0  0
  7  8  2  0  0  0  0
  7  5  1  0  0  0  0
  8  9  1  0  0  0  0
  9  4  1  0  0  0  0
  9 16  1  0  0  0  0
 10  8  1  0  0  0  0
 10 15  1  0  0  0  0
 11 10  2  0  0  0  0
 12 11  1  0  0  0  0
 12 13  2  0  0  0  0
 13 14  1  0  0  0  0
 14 15  2  0  0  0  0
 16 17  1  0  0  0  0
 17 18  1  0  0  0  0
 19 18  1  0  0  0  0
 20 19  1  0  0  0  0
 21 16  1  0  0  0  0
 21 20  1  0  0  0  0
 23  1  1  0  0  0  0
 23 22  2  0  0  0  0
 24 23  1  0  0  0  0
 25 24  1  0  0  0  0
 26 30  1  6  0  0  0
 26 24  1  0  0  0  0
 27 26  1  0  0  0  0
 28 27  1  0  0  0  0
 29 27  2  0  0  0  0
 30 31  1  0  0  0  0
 31 36  1  0  0  0  0
 32 31  2  0  0  0  0
 32 33  1  0  0  0  0
 33 34  2  0  0  0  0
 34 35  1  0  0  0  0
 36 35  2  0  0  0  0
M  END
>  <minimizedAffinity>
-7.53512859

$$$$
