
 OpenBabel09122222393D

 36 40  0  0  1  0  0  0  0  0999 V2000
    8.5630   -3.7280    0.9790 C   0  0  0  0  0  0  0  0  0  0  0  0
    8.4490   -4.1060    2.3200 C   0  0  0  0  0  3  0  0  0  0  0  0
    8.6980   -3.1930    3.3490 C   0  0  0  0  0  3  0  0  0  0  0  0
    9.0880   -1.8960    2.9810 C   0  0  0  0  0  0  0  0  0  0  0  0
    9.2270   -1.5160    1.6520 C   0  0  0  0  0  0  0  0  0  0  0  0
    8.9750   -2.4370    0.6260 C   0  0  0  0  0  3  0  0  0  0  0  0
    9.6190   -0.2110    1.5620 N   0  0  0  0  0  0  0  0  0  0  0  0
    9.6890    0.2590    2.8010 C   0  0  0  0  0  0  0  0  0  0  0  0
    9.4380   -0.7640    3.7080 N   0  0  0  0  0  0  0  0  0  0  0  0
   10.0210    1.6630    3.0840 C   0  0  0  0  0  0  0  0  0  0  0  0
   10.5150    2.4810    2.0690 C   0  0  0  0  0  3  0  0  0  0  0  0
   10.7830    3.8190    2.3460 C   0  0  0  0  0  3  0  0  0  0  0  0
   10.5400    4.3070    3.6220 C   0  0  0  0  0  3  0  0  0  0  0  0
   10.0360    3.4320    4.5700 C   0  0  0  0  0  3  0  0  0  0  0  0
    9.7750    2.1280    4.3290 N   0  0  0  0  0  0  0  0  0  0  0  0
    9.5680   -0.7740    5.1650 C   0  0  0  0  0  3  0  0  0  0  0  0
    8.5100   -1.6050    5.9120 C   0  0  0  0  0  2  0  0  0  0  0  0
    8.6720   -1.4820    7.4260 C   0  0  0  0  0  2  0  0  0  0  0  0
   10.0950   -1.8140    7.8660 C   0  0  0  0  0  2  0  0  0  0  0  0
   11.1190   -0.9290    7.1640 C   0  0  0  0  0  2  0  0  0  0  0  0
   11.0070   -1.0220    5.6430 C   0  0  0  0  0  2  0  0  0  0  0  0
    8.8340   -4.4940   -1.2010 O   0  0  0  0  0  0  0  0  0  0  0  0
    8.3390   -4.7130   -0.0980 C   0  0  0  0  0  0  0  0  0  0  0  0
    7.5960   -5.8280    0.1570 N   0  0  0  0  0  0  0  0  0  0  0  0
    7.5550   -6.5310   -0.5780 H   0  0  0  0  0  0  0  0  0  0  0  0
    6.7620   -6.2010    1.3290 C   0  0  2  0  0  3  0  0  0  0  0  0
    6.7820   -7.7300    1.6480 C   0  0  0  0  0  0  0  0  0  0  0  0
    5.7120   -8.3550    1.3950 O   0  0  0  0  0  0  0  0  0  0  0  0
    7.8580   -8.1560    2.1670 O   0  0  0  0  0  1  0  0  0  0  0  0
    5.3100   -5.7110    1.2080 C   0  0  0  0  0  2  0  0  0  0  0  0
    4.6630   -5.2500    2.4970 C   0  0  0  0  0  0  0  0  0  0  0  0
    3.9240   -6.1410    3.2870 C   0  0  0  0  0  3  0  0  0  0  0  0
    3.3350   -5.7130    4.4790 C   0  0  0  0  0  3  0  0  0  0  0  0
    3.4800   -4.3910    4.8940 C   0  0  0  0  0  3  0  0  0  0  0  0
    4.2180   -3.4980    4.1200 C   0  0  0  0  0  3  0  0  0  0  0  0
    4.8060   -3.9250    2.9280 C   0  0  0  0  0  3  0  0  0  0  0  0
  1  2  1  0  0  0  0
  2  3  2  0  0  0  0
  4  3  1  0  0  0  0
  4  9  1  0  0  0  0
  5  4  2  0  0  0  0
  6  1  2  0  0  0  0
  6  5  1  0  0  0  0
  7  5  1  0  0  0  0
  7  8  2  0  0  0  0
  8 10  1  0  0  0  0
  8  9  1  0  0  0  0
  9 16  1  0  0  0  0
 10 15  1  0  0  0  0
 11 12  1  0  0  0  0
 11 10  2  0  0  0  0
 12 13  2  0  0  0  0
 13 14  1  0  0  0  0
 15 14  2  0  0  0  0
 16 21  1  0  0  0  0
 16 17  1  0  0  0  0
 17 18  1  0  0  0  0
 18 19  1  0  0  0  0
 20 19  1  0  0  0  0
 21 20  1  0  0  0  0
 22 23  2  0  0  0  0
 23 24  1  0  0  0  0
 23  1  1  0  0  0  0
 24 26  1  0  0  0  0
 25 24  1  0  0  0  0
 26 30  1  6  0  0  0
 26 27  1  0  0  0  0
 27 29  1  0  0  0  0
 28 27  2  0  0  0  0
 30 31  1  0  0  0  0
 31 36  2  0  0  0  0
 31 32  1  0  0  0  0
 32 33  2  0  0  0  0
 33 34  1  0  0  0  0
 35 34  2  0  0  0  0
 36 35  1  0  0  0  0
M  END
>  <minimizedAffinity>
-7.88830566

$$$$
