
 OpenBabel09122222393D

 36 40  0  0  1  0  0  0  0  0999 V2000
    5.2800   -7.5620    2.9430 C   0  0  0  0  0  0  0  0  0  0  0  0
    4.1810   -8.3460    3.3060 C   0  0  0  0  0  3  0  0  0  0  0  0
    3.1380   -7.8140    4.0710 C   0  0  0  0  0  3  0  0  0  0  0  0
    3.2540   -6.4760    4.4780 C   0  0  0  0  0  0  0  0  0  0  0  0
    4.3530   -5.6950    4.1430 C   0  0  0  0  0  0  0  0  0  0  0  0
    5.3930   -6.2350    3.3750 C   0  0  0  0  0  3  0  0  0  0  0  0
    4.2270   -4.4370    4.6600 N   0  0  0  0  0  0  0  0  0  0  0  0
    3.0530   -4.3880    5.2780 C   0  0  0  0  0  0  0  0  0  0  0  0
    2.4530   -5.6410    5.2500 N   0  0  0  0  0  0  0  0  0  0  0  0
    2.5520   -3.1550    5.9020 C   0  0  0  0  0  0  0  0  0  0  0  0
    2.8580   -2.8710    7.2320 C   0  0  0  0  0  3  0  0  0  0  0  0
    2.4110   -1.6770    7.7920 C   0  0  0  0  0  3  0  0  0  0  0  0
    1.6820   -0.7940    7.0070 C   0  0  0  0  0  3  0  0  0  0  0  0
    1.4330   -1.1440    5.6910 C   0  0  0  0  0  3  0  0  0  0  0  0
    1.8490   -2.3000    5.1260 N   0  0  0  0  0  0  0  0  0  0  0  0
    1.2530   -6.1180    5.9360 C   0  0  0  0  0  3  0  0  0  0  0  0
    0.1360   -6.6420    5.0140 C   0  0  0  0  0  2  0  0  0  0  0  0
   -1.1070   -7.0320    5.8120 C   0  0  0  0  0  2  0  0  0  0  0  0
   -0.7700   -8.0070    6.9350 C   0  0  0  0  0  2  0  0  0  0  0  0
    0.2870   -7.4350    7.8750 C   0  0  0  0  0  2  0  0  0  0  0  0
    1.5590   -7.0370    7.1280 C   0  0  0  0  0  2  0  0  0  0  0  0
    6.9340   -9.1630    2.6050 O   0  0  0  0  0  0  0  0  0  0  0  0
    6.3940   -8.1480    2.1720 C   0  0  0  0  0  0  0  0  0  0  0  0
    6.7930   -7.5510    1.0110 N   0  0  0  0  0  0  0  0  0  0  0  0
    7.4920   -8.0430    0.4580 H   0  0  0  0  0  0  0  0  0  0  0  0
    6.4250   -6.2450    0.4060 C   0  0  2  0  0  3  0  0  0  0  0  0
    5.1400   -6.3070   -0.4790 C   0  0  0  0  0  0  0  0  0  0  0  0
    4.3570   -5.3180   -0.3750 O   0  0  0  0  0  1  0  0  0  0  0  0
    5.0120   -7.3650   -1.1660 O   0  0  0  0  0  0  0  0  0  0  0  0
    7.5780   -5.6110   -0.3890 C   0  0  0  0  0  2  0  0  0  0  0  0
    8.3550   -4.5290    0.3310 C   0  0  0  0  0  0  0  0  0  0  0  0
    9.4060   -3.8560   -0.3060 C   0  0  0  0  0  3  0  0  0  0  0  0
   10.1150   -2.8530    0.3600 C   0  0  0  0  0  3  0  0  0  0  0  0
    9.7800   -2.5130    1.6690 C   0  0  0  0  0  3  0  0  0  0  0  0
    8.7340   -3.1720    2.3110 C   0  0  0  0  0  3  0  0  0  0  0  0
    8.0250   -4.1740    1.6460 C   0  0  0  0  0  3  0  0  0  0  0  0
  1  2  2  0  0  0  0
  1  6  1  0  0  0  0
  2  3  1  0  0  0  0
  3  4  2  0  0  0  0
  4  9  1  0  0  0  0
  5  4  1  0  0  0  0
  5  7  1  0  0  0  0
  6  5  2  0  0  0  0
  7  8  2  0  0  0  0
  8 10  1  0  0  0  0
  9  8  1  0  0  0  0
  9 16  1  0  0  0  0
 10 11  1  0  0  0  0
 11 12  2  0  0  0  0
 13 12  1  0  0  0  0
 14 13  2  0  0  0  0
 15 14  1  0  0  0  0
 15 10  2  0  0  0  0
 16 21  1  0  0  0  0
 17 18  1  0  0  0  0
 17 16  1  0  0  0  0
 18 19  1  0  0  0  0
 19 20  1  0  0  0  0
 21 20  1  0  0  0  0
 23 22  2  0  0  0  0
 23  1  1  0  0  0  0
 24 23  1  0  0  0  0
 25 24  1  0  0  0  0
 26 30  1  6  0  0  0
 26 24  1  0  0  0  0
 27 28  1  0  0  0  0
 27 26  1  0  0  0  0
 29 27  2  0  0  0  0
 30 31  1  0  0  0  0
 31 36  1  0  0  0  0
 32 31  2  0  0  0  0
 32 33  1  0  0  0  0
 33 34  2  0  0  0  0
 34 35  1  0  0  0  0
 36 35  2  0  0  0  0
M  END
>  <minimizedAffinity>
-8.7662735

$$$$
