
 OpenBabel09122220553D

 36 40  0  0  1  0  0  0  0  0999 V2000
    6.6910   -6.0250    0.2190 C   0  0  0  0  0  0  0  0  0  0  0  0
    7.4360   -5.4690   -0.8250 C   0  0  0  0  0  3  0  0  0  0  0  0
    8.3320   -4.4200   -0.5910 C   0  0  0  0  0  3  0  0  0  0  0  0
    8.4310   -3.9370    0.7220 C   0  0  0  0  0  0  0  0  0  0  0  0
    7.6790   -4.4670    1.7630 C   0  0  0  0  0  0  0  0  0  0  0  0
    6.7840   -5.5180    1.5210 C   0  0  0  0  0  3  0  0  0  0  0  0
    7.9560   -3.8230    2.9350 N   0  0  0  0  0  0  0  0  0  0  0  0
    8.8990   -2.9270    2.6720 C   0  0  0  0  0  0  0  0  0  0  0  0
    9.1710   -2.9170    1.3090 N   0  0  0  0  0  0  0  0  0  0  0  0
    9.4920   -2.0890    3.7240 C   0  0  0  0  0  0  0  0  0  0  0  0
   10.1710   -2.6800    4.7880 C   0  0  0  0  0  3  0  0  0  0  0  0
   10.7620   -1.8670    5.7510 C   0  0  0  0  0  3  0  0  0  0  0  0
   10.6720   -0.4880    5.6210 C   0  0  0  0  0  3  0  0  0  0  0  0
    9.9920    0.0190    4.5270 C   0  0  0  0  0  3  0  0  0  0  0  0
    9.4020   -0.7470    3.5820 N   0  0  0  0  0  0  0  0  0  0  0  0
    9.9970   -1.9960    0.5290 C   0  0  0  0  0  3  0  0  0  0  0  0
   10.5210   -2.5570   -0.8060 C   0  0  0  0  0  2  0  0  0  0  0  0
   11.4440   -1.5600   -1.5050 C   0  0  0  0  0  2  0  0  0  0  0  0
   10.7800   -0.1960   -1.6630 C   0  0  0  0  0  2  0  0  0  0  0  0
   10.3340    0.3700   -0.3190 C   0  0  0  0  0  2  0  0  0  0  0  0
    9.3980   -0.5860    0.4200 C   0  0  0  0  0  2  0  0  0  0  0  0
    5.4370   -7.3590   -1.2160 O   0  0  0  0  0  0  0  0  0  0  0  0
    5.7170   -7.1020   -0.0480 C   0  0  0  0  0  0  0  0  0  0  0  0
    5.1580   -7.7750    0.9990 N   0  0  0  0  0  0  0  0  0  0  0  0
    4.5740   -8.5770    0.7700 H   0  0  0  0  0  0  0  0  0  0  0  0
    5.1990   -7.5170    2.4620 C   0  0  2  0  0  3  0  0  0  0  0  0
    5.8100   -8.6950    3.2860 C   0  0  0  0  0  0  0  0  0  0  0  0
    6.9860   -9.0330    2.9670 O   0  0  0  0  0  0  0  0  0  0  0  0
    5.0340   -9.2030    4.1510 O   0  0  0  0  0  1  0  0  0  0  0  0
    3.8270   -7.1320    3.0380 C   0  0  0  0  0  2  0  0  0  0  0  0
    3.7850   -5.8380    3.8230 C   0  0  0  0  0  0  0  0  0  0  0  0
    3.5860   -5.8470    5.2100 C   0  0  0  0  0  3  0  0  0  0  0  0
    3.5550   -4.6520    5.9320 C   0  0  0  0  0  3  0  0  0  0  0  0
    3.7240   -3.4350    5.2740 C   0  0  0  0  0  3  0  0  0  0  0  0
    3.9270   -3.4140    3.8960 C   0  0  0  0  0  3  0  0  0  0  0  0
    3.9580   -4.6090    3.1740 C   0  0  0  0  0  3  0  0  0  0  0  0
  1  6  1  0  0  0  0
  2  3  1  0  0  0  0
  2  1  2  0  0  0  0
  3  4  2  0  0  0  0
  4  9  1  0  0  0  0
  4  5  1  0  0  0  0
  5  7  1  0  0  0  0
  6  5  2  0  0  0  0
  8  7  2  0  0  0  0
  8 10  1  0  0  0  0
  9  8  1  0  0  0  0
 10 11  1  0  0  0  0
 11 12  2  0  0  0  0
 13 12  1  0  0  0  0
 14 13  2  0  0  0  0
 15 10  2  0  0  0  0
 15 14  1  0  0  0  0
 16  9  1  0  0  0  0
 17 16  1  0  0  0  0
 18 17  1  0  0  0  0
 19 18  1  0  0  0  0
 19 20  1  0  0  0  0
 20 21  1  0  0  0  0
 21 16  1  0  0  0  0
 22 23  2  0  0  0  0
 23  1  1  0  0  0  0
 23 24  1  0  0  0  0
 24 26  1  0  0  0  0
 25 24  1  0  0  0  0
 26 30  1  1  0  0  0
 26 27  1  0  0  0  0
 27 29  1  0  0  0  0
 28 27  2  0  0  0  0
 30 31  1  0  0  0  0
 31 32  1  0  0  0  0
 32 33  2  0  0  0  0
 34 33  1  0  0  0  0
 35 34  2  0  0  0  0
 36 31  2  0  0  0  0
 36 35  1  0  0  0  0
M  END
>  <minimizedAffinity>
-9.33529186

$$$$

 OpenBabel09122220553D

 36 40  0  0  1  0  0  0  0  0999 V2000
    5.2800   -7.5620    2.9430 C   0  0  0  0  0  0  0  0  0  0  0  0
    4.1810   -8.3460    3.3060 C   0  0  0  0  0  3  0  0  0  0  0  0
    3.1380   -7.8140    4.0710 C   0  0  0  0  0  3  0  0  0  0  0  0
    3.2540   -6.4760    4.4780 C   0  0  0  0  0  0  0  0  0  0  0  0
    4.3530   -5.6950    4.1430 C   0  0  0  0  0  0  0  0  0  0  0  0
    5.3930   -6.2350    3.3750 C   0  0  0  0  0  3  0  0  0  0  0  0
    4.2270   -4.4370    4.6600 N   0  0  0  0  0  0  0  0  0  0  0  0
    3.0530   -4.3880    5.2780 C   0  0  0  0  0  0  0  0  0  0  0  0
    2.4530   -5.6410    5.2500 N   0  0  0  0  0  0  0  0  0  0  0  0
    2.5520   -3.1550    5.9020 C   0  0  0  0  0  0  0  0  0  0  0  0
    2.8580   -2.8710    7.2320 C   0  0  0  0  0  3  0  0  0  0  0  0
    2.4110   -1.6770    7.7920 C   0  0  0  0  0  3  0  0  0  0  0  0
    1.6820   -0.7940    7.0070 C   0  0  0  0  0  3  0  0  0  0  0  0
    1.4330   -1.1440    5.6910 C   0  0  0  0  0  3  0  0  0  0  0  0
    1.8490   -2.3000    5.1260 N   0  0  0  0  0  0  0  0  0  0  0  0
    1.2530   -6.1180    5.9360 C   0  0  0  0  0  3  0  0  0  0  0  0
    0.1360   -6.6420    5.0140 C   0  0  0  0  0  2  0  0  0  0  0  0
   -1.1070   -7.0320    5.8120 C   0  0  0  0  0  2  0  0  0  0  0  0
   -0.7700   -8.0070    6.9350 C   0  0  0  0  0  2  0  0  0  0  0  0
    0.2870   -7.4350    7.8750 C   0  0  0  0  0  2  0  0  0  0  0  0
    1.5590   -7.0370    7.1280 C   0  0  0  0  0  2  0  0  0  0  0  0
    6.9340   -9.1630    2.6050 O   0  0  0  0  0  0  0  0  0  0  0  0
    6.3940   -8.1480    2.1720 C   0  0  0  0  0  0  0  0  0  0  0  0
    6.7930   -7.5510    1.0110 N   0  0  0  0  0  0  0  0  0  0  0  0
    7.4920   -8.0430    0.4580 H   0  0  0  0  0  0  0  0  0  0  0  0
    6.4250   -6.2450    0.4060 C   0  0  2  0  0  3  0  0  0  0  0  0
    5.1400   -6.3070   -0.4790 C   0  0  0  0  0  0  0  0  0  0  0  0
    4.3570   -5.3180   -0.3750 O   0  0  0  0  0  1  0  0  0  0  0  0
    5.0120   -7.3650   -1.1660 O   0  0  0  0  0  0  0  0  0  0  0  0
    7.5780   -5.6110   -0.3890 C   0  0  0  0  0  2  0  0  0  0  0  0
    8.3550   -4.5290    0.3310 C   0  0  0  0  0  0  0  0  0  0  0  0
    9.4060   -3.8560   -0.3060 C   0  0  0  0  0  3  0  0  0  0  0  0
   10.1150   -2.8530    0.3600 C   0  0  0  0  0  3  0  0  0  0  0  0
    9.7800   -2.5130    1.6690 C   0  0  0  0  0  3  0  0  0  0  0  0
    8.7340   -3.1720    2.3110 C   0  0  0  0  0  3  0  0  0  0  0  0
    8.0250   -4.1740    1.6460 C   0  0  0  0  0  3  0  0  0  0  0  0
  1  2  2  0  0  0  0
  1  6  1  0  0  0  0
  2  3  1  0  0  0  0
  3  4  2  0  0  0  0
  4  9  1  0  0  0  0
  5  4  1  0  0  0  0
  5  7  1  0  0  0  0
  6  5  2  0  0  0  0
  7  8  2  0  0  0  0
  8 10  1  0  0  0  0
  9  8  1  0  0  0  0
  9 16  1  0  0  0  0
 10 11  1  0  0  0  0
 11 12  2  0  0  0  0
 13 12  1  0  0  0  0
 14 13  2  0  0  0  0
 15 14  1  0  0  0  0
 15 10  2  0  0  0  0
 16 21  1  0  0  0  0
 17 18  1  0  0  0  0
 17 16  1  0  0  0  0
 18 19  1  0  0  0  0
 19 20  1  0  0  0  0
 21 20  1  0  0  0  0
 23 22  2  0  0  0  0
 23  1  1  0  0  0  0
 24 23  1  0  0  0  0
 25 24  1  0  0  0  0
 26 30  1  6  0  0  0
 26 24  1  0  0  0  0
 27 28  1  0  0  0  0
 27 26  1  0  0  0  0
 29 27  2  0  0  0  0
 30 31  1  0  0  0  0
 31 36  1  0  0  0  0
 32 31  2  0  0  0  0
 32 33  1  0  0  0  0
 33 34  2  0  0  0  0
 34 35  1  0  0  0  0
 36 35  2  0  0  0  0
M  END
>  <minimizedAffinity>
-8.7662735

$$$$

 OpenBabel09122220553D

 36 40  0  0  1  0  0  0  0  0999 V2000
    8.5630   -3.7280    0.9790 C   0  0  0  0  0  0  0  0  0  0  0  0
    8.4490   -4.1060    2.3200 C   0  0  0  0  0  3  0  0  0  0  0  0
    8.6980   -3.1930    3.3490 C   0  0  0  0  0  3  0  0  0  0  0  0
    9.0880   -1.8960    2.9810 C   0  0  0  0  0  0  0  0  0  0  0  0
    9.2270   -1.5160    1.6520 C   0  0  0  0  0  0  0  0  0  0  0  0
    8.9750   -2.4370    0.6260 C   0  0  0  0  0  3  0  0  0  0  0  0
    9.6190   -0.2110    1.5620 N   0  0  0  0  0  0  0  0  0  0  0  0
    9.6890    0.2590    2.8010 C   0  0  0  0  0  0  0  0  0  0  0  0
    9.4380   -0.7640    3.7080 N   0  0  0  0  0  0  0  0  0  0  0  0
   10.0210    1.6630    3.0840 C   0  0  0  0  0  0  0  0  0  0  0  0
   10.5150    2.4810    2.0690 C   0  0  0  0  0  3  0  0  0  0  0  0
   10.7830    3.8190    2.3460 C   0  0  0  0  0  3  0  0  0  0  0  0
   10.5400    4.3070    3.6220 C   0  0  0  0  0  3  0  0  0  0  0  0
   10.0360    3.4320    4.5700 C   0  0  0  0  0  3  0  0  0  0  0  0
    9.7750    2.1280    4.3290 N   0  0  0  0  0  0  0  0  0  0  0  0
    9.5680   -0.7740    5.1650 C   0  0  0  0  0  3  0  0  0  0  0  0
    8.5100   -1.6050    5.9120 C   0  0  0  0  0  2  0  0  0  0  0  0
    8.6720   -1.4820    7.4260 C   0  0  0  0  0  2  0  0  0  0  0  0
   10.0950   -1.8140    7.8660 C   0  0  0  0  0  2  0  0  0  0  0  0
   11.1190   -0.9290    7.1640 C   0  0  0  0  0  2  0  0  0  0  0  0
   11.0070   -1.0220    5.6430 C   0  0  0  0  0  2  0  0  0  0  0  0
    8.8340   -4.4940   -1.2010 O   0  0  0  0  0  0  0  0  0  0  0  0
    8.3390   -4.7130   -0.0980 C   0  0  0  0  0  0  0  0  0  0  0  0
    7.5960   -5.8280    0.1570 N   0  0  0  0  0  0  0  0  0  0  0  0
    7.5550   -6.5310   -0.5780 H   0  0  0  0  0  0  0  0  0  0  0  0
    6.7620   -6.2010    1.3290 C   0  0  2  0  0  3  0  0  0  0  0  0
    6.7820   -7.7300    1.6480 C   0  0  0  0  0  0  0  0  0  0  0  0
    5.7120   -8.3550    1.3950 O   0  0  0  0  0  0  0  0  0  0  0  0
    7.8580   -8.1560    2.1670 O   0  0  0  0  0  1  0  0  0  0  0  0
    5.3100   -5.7110    1.2080 C   0  0  0  0  0  2  0  0  0  0  0  0
    4.6630   -5.2500    2.4970 C   0  0  0  0  0  0  0  0  0  0  0  0
    3.9240   -6.1410    3.2870 C   0  0  0  0  0  3  0  0  0  0  0  0
    3.3350   -5.7130    4.4790 C   0  0  0  0  0  3  0  0  0  0  0  0
    3.4800   -4.3910    4.8940 C   0  0  0  0  0  3  0  0  0  0  0  0
    4.2180   -3.4980    4.1200 C   0  0  0  0  0  3  0  0  0  0  0  0
    4.8060   -3.9250    2.9280 C   0  0  0  0  0  3  0  0  0  0  0  0
  1  2  1  0  0  0  0
  2  3  2  0  0  0  0
  4  3  1  0  0  0  0
  4  9  1  0  0  0  0
  5  4  2  0  0  0  0
  6  1  2  0  0  0  0
  6  5  1  0  0  0  0
  7  5  1  0  0  0  0
  7  8  2  0  0  0  0
  8 10  1  0  0  0  0
  8  9  1  0  0  0  0
  9 16  1  0  0  0  0
 10 15  1  0  0  0  0
 11 12  1  0  0  0  0
 11 10  2  0  0  0  0
 12 13  2  0  0  0  0
 13 14  1  0  0  0  0
 15 14  2  0  0  0  0
 16 21  1  0  0  0  0
 16 17  1  0  0  0  0
 17 18  1  0  0  0  0
 18 19  1  0  0  0  0
 20 19  1  0  0  0  0
 21 20  1  0  0  0  0
 22 23  2  0  0  0  0
 23 24  1  0  0  0  0
 23  1  1  0  0  0  0
 24 26  1  0  0  0  0
 25 24  1  0  0  0  0
 26 30  1  6  0  0  0
 26 27  1  0  0  0  0
 27 29  1  0  0  0  0
 28 27  2  0  0  0  0
 30 31  1  0  0  0  0
 31 36  2  0  0  0  0
 31 32  1  0  0  0  0
 32 33  2  0  0  0  0
 33 34  1  0  0  0  0
 35 34  2  0  0  0  0
 36 35  1  0  0  0  0
M  END
>  <minimizedAffinity>
-7.88830566

$$$$

 OpenBabel09122220553D

 36 40  0  0  1  0  0  0  0  0999 V2000
    5.7240   -5.6570    2.1550 C   0  0  0  0  0  0  0  0  0  0  0  0
    6.4950   -5.5260    0.9960 C   0  0  0  0  0  3  0  0  0  0  0  0
    7.5940   -4.6630    0.9570 C   0  0  0  0  0  3  0  0  0  0  0  0
    7.8720   -3.9190    2.1140 C   0  0  0  0  0  0  0  0  0  0  0  0
    7.0990   -4.0240    3.2630 C   0  0  0  0  0  0  0  0  0  0  0  0
    5.9990   -4.8920    3.2950 C   0  0  0  0  0  3  0  0  0  0  0  0
    7.5730   -3.1980    4.2410 N   0  0  0  0  0  0  0  0  0  0  0  0
    8.6570   -2.6040    3.7560 C   0  0  0  0  0  0  0  0  0  0  0  0
    8.8370   -2.9680    2.4270 N   0  0  0  0  0  0  0  0  0  0  0  0
    9.4710   -1.6870    4.5670 C   0  0  0  0  0  0  0  0  0  0  0  0
   10.2140   -2.1760    5.6390 C   0  0  0  0  0  3  0  0  0  0  0  0
   11.0130   -1.2990    6.3680 C   0  0  0  0  0  3  0  0  0  0  0  0
   11.0580    0.0390    6.0000 C   0  0  0  0  0  3  0  0  0  0  0  0
   10.3000    0.4410    4.9130 C   0  0  0  0  0  3  0  0  0  0  0  0
    9.5110   -0.3880    4.1940 N   0  0  0  0  0  0  0  0  0  0  0  0
    9.7770   -2.4460    1.4360 C   0  0  0  0  0  3  0  0  0  0  0  0
   10.4120   -3.5050    0.5150 C   0  0  0  0  0  2  0  0  0  0  0  0
   11.4440   -2.8800   -0.4230 C   0  0  0  0  0  2  0  0  0  0  0  0
   10.8580   -1.7050   -1.1990 C   0  0  0  0  0  2  0  0  0  0  0  0
   10.2990   -0.6380   -0.2630 C   0  0  0  0  0  2  0  0  0  0  0  0
    9.2530   -1.2090    0.6930 C   0  0  0  0  0  2  0  0  0  0  0  0
    4.3450   -7.2700    1.2010 O   0  0  0  0  0  0  0  0  0  0  0  0
    4.5390   -6.5390    2.1690 C   0  0  0  0  0  0  0  0  0  0  0  0
    3.7000   -6.5180    3.2450 N   0  0  0  0  0  0  0  0  0  0  0  0
    2.9580   -7.2140    3.2620 H   0  0  0  0  0  0  0  0  0  0  0  0
    3.6320   -5.6030    4.4140 C   0  0  2  0  0  3  0  0  0  0  0  0
    3.0700   -6.2800    5.7040 C   0  0  0  0  0  0  0  0  0  0  0  0
    1.8170   -6.4490    5.7320 O   0  0  0  0  0  0  0  0  0  0  0  0
    3.9360   -6.5410    6.5930 O   0  0  0  0  0  1  0  0  0  0  0  0
    2.8490   -4.3140    4.1160 C   0  0  0  0  0  2  0  0  0  0  0  0
    2.9970   -3.2060    5.1370 C   0  0  0  0  0  0  0  0  0  0  0  0
    1.9330   -2.3360    5.4100 C   0  0  0  0  0  3  0  0  0  0  0  0
    2.0710   -1.3190    6.3580 C   0  0  0  0  0  3  0  0  0  0  0  0
    3.2750   -1.1630    7.0440 C   0  0  0  0  0  3  0  0  0  0  0  0
    4.3370   -2.0270    6.7840 C   0  0  0  0  0  3  0  0  0  0  0  0
    4.2000   -3.0420    5.8370 C   0  0  0  0  0  3  0  0  0  0  0  0
  1 23  1  0  0  0  0
  1  6  1  0  0  0  0
  2  1  2  0  0  0  0
  3  2  1  0  0  0  0
  3  4  2  0  0  0  0
  4  9  1  0  0  0  0
  4  5  1  0  0  0  0
  5  6  2  0  0  0  0
  5  7  1  0  0  0  0
  8  7  2  0  0  0  0
  8 10  1  0  0  0  0
  9  8  1  0  0  0  0
 10 11  1  0  0  0  0
 11 12  2  0  0  0  0
 13 12  1  0  0  0  0
 14 13  2  0  0  0  0
 15 10  2  0  0  0  0
 15 14  1  0  0  0  0
 16  9  1  0  0  0  0
 17 16  1  0  0  0  0
 18 17  1  0  0  0  0
 19 18  1  0  0  0  0
 19 20  1  0  0  0  0
 20 21  1  0  0  0  0
 21 16  1  0  0  0  0
 22 23  2  0  0  0  0
 23 24  1  0  0  0  0
 24 25  1  0  0  0  0
 24 26  1  0  0  0  0
 26 30  1  6  0  0  0
 26 27  1  0  0  0  0
 27 28  2  0  0  0  0
 27 29  1  0  0  0  0
 30 31  1  0  0  0  0
 31 32  2  0  0  0  0
 31 36  1  0  0  0  0
 32 33  1  0  0  0  0
 33 34  2  0  0  0  0
 35 34  1  0  0  0  0
 36 35  2  0  0  0  0
M  END
>  <minimizedAffinity>
-7.83529949

$$$$

 OpenBabel09122220553D

 36 40  0  0  1  0  0  0  0  0999 V2000
    6.2210   -5.0980    2.4650 C   0  0  0  0  0  0  0  0  0  0  0  0
    6.0260   -3.8200    2.9950 C   0  0  0  0  0  3  0  0  0  0  0  0
    4.9880   -3.5660    3.8980 C   0  0  0  0  0  3  0  0  0  0  0  0
    4.1420   -4.6370    4.2260 C   0  0  0  0  0  0  0  0  0  0  0  0
    4.3130   -5.9050    3.6870 C   0  0  0  0  0  0  0  0  0  0  0  0
    5.3550   -6.1520    2.7830 C   0  0  0  0  0  3  0  0  0  0  0  0
    3.3610   -6.7630    4.1600 N   0  0  0  0  0  0  0  0  0  0  0  0
    2.6180   -6.0800    5.0220 C   0  0  0  0  0  0  0  0  0  0  0  0
    3.0200   -4.7500    5.0400 N   0  0  0  0  0  0  0  0  0  0  0  0
    1.5280   -6.7110    5.7800 C   0  0  0  0  0  0  0  0  0  0  0  0
    1.5770   -6.7480    7.1720 C   0  0  0  0  0  3  0  0  0  0  0  0
    0.5150   -7.3120    7.8750 C   0  0  0  0  0  3  0  0  0  0  0  0
   -0.5720   -7.8100    7.1700 C   0  0  0  0  0  3  0  0  0  0  0  0
   -0.5500   -7.7220    5.7890 C   0  0  0  0  0  3  0  0  0  0  0  0
    0.4720   -7.1870    5.0830 N   0  0  0  0  0  0  0  0  0  0  0  0
    2.4020   -3.5960    5.6920 C   0  0  0  0  0  3  0  0  0  0  0  0
    3.0940   -3.1240    6.9830 C   0  0  0  0  0  2  0  0  0  0  0  0
    2.3280   -1.9760    7.6380 C   0  0  0  0  0  2  0  0  0  0  0  0
    2.0800   -0.8350    6.6570 C   0  0  0  0  0  2  0  0  0  0  0  0
    1.3300   -1.3150    5.4180 C   0  0  0  0  0  2  0  0  0  0  0  0
    2.0610   -2.4590    4.7170 C   0  0  0  0  0  2  0  0  0  0  0  0
    7.2630   -6.3870    0.8310 O   0  0  0  0  0  0  0  0  0  0  0  0
    7.2930   -5.3430    1.4790 C   0  0  0  0  0  0  0  0  0  0  0  0
    8.2810   -4.4160    1.3190 N   0  0  0  0  0  0  0  0  0  0  0  0
    8.9400   -4.5730    0.5590 H   0  0  0  0  0  0  0  0  0  0  0  0
    8.6200   -3.2020    2.1050 C   0  0  2  0  0  3  0  0  0  0  0  0
    9.1900   -2.0350    1.2380 C   0  0  0  0  0  0  0  0  0  0  0  0
    9.9850   -2.3770    0.3160 O   0  0  0  0  0  0  0  0  0  0  0  0
    8.8210   -0.8740    1.5910 O   0  0  0  0  0  1  0  0  0  0  0  0
    9.5720   -3.4970    3.2760 C   0  0  0  0  0  2  0  0  0  0  0  0
    9.3770   -2.6450    4.5120 C   0  0  0  0  0  0  0  0  0  0  0  0
    8.2610   -2.8290    5.3400 C   0  0  0  0  0  3  0  0  0  0  0  0
    8.0880   -2.0450    6.4840 C   0  0  0  0  0  3  0  0  0  0  0  0
    9.0300   -1.0710    6.8120 C   0  0  0  0  0  3  0  0  0  0  0  0
   10.1460   -0.8840    5.9980 C   0  0  0  0  0  3  0  0  0  0  0  0
   10.3190   -1.6660    4.8550 C   0  0  0  0  0  3  0  0  0  0  0  0
  1  6  2  0  0  0  0
  1  2  1  0  0  0  0
  2  3  2  0  0  0  0
  3  4  1  0  0  0  0
  4  9  1  0  0  0  0
  5  7  1  0  0  0  0
  5  4  2  0  0  0  0
  6  5  1  0  0  0  0
  7  8  2  0  0  0  0
  8  9  1  0  0  0  0
  8 10  1  0  0  0  0
  9 16  1  0  0  0  0
 10 11  1  0  0  0  0
 11 12  2  0  0  0  0
 13 12  1  0  0  0  0
 14 13  2  0  0  0  0
 15 10  2  0  0  0  0
 15 14  1  0  0  0  0
 16 17  1  0  0  0  0
 17 18  1  0  0  0  0
 19 18  1  0  0  0  0
 20 19  1  0  0  0  0
 21 20  1  0  0  0  0
 21 16  1  0  0  0  0
 22 23  2  0  0  0  0
 23  1  1  0  0  0  0
 24 23  1  0  0  0  0
 24 26  1  0  0  0  0
 25 24  1  0  0  0  0
 26 30  1  1  0  0  0
 27 29  1  0  0  0  0
 27 26  1  0  0  0  0
 28 27  2  0  0  0  0
 30 31  1  0  0  0  0
 31 36  2  0  0  0  0
 31 32  1  0  0  0  0
 32 33  2  0  0  0  0
 33 34  1  0  0  0  0
 35 34  2  0  0  0  0
 36 35  1  0  0  0  0
M  END
>  <minimizedAffinity>
-7.78940725

$$$$

 OpenBabel09122220553D

 36 40  0  0  1  0  0  0  0  0999 V2000
    8.9920   -3.2270    2.8380 C   0  0  0  0  0  0  0  0  0  0  0  0
    8.1470   -2.6640    3.7980 C   0  0  0  0  0  3  0  0  0  0  0  0
    6.8590   -3.1670    4.0080 C   0  0  0  0  0  3  0  0  0  0  0  0
    6.4450   -4.2380    3.2000 C   0  0  0  0  0  0  0  0  0  0  0  0
    7.2690   -4.7890    2.2270 C   0  0  0  0  0  0  0  0  0  0  0  0
    8.5580   -4.2800    2.0230 C   0  0  0  0  0  3  0  0  0  0  0  0
    6.6330   -5.8100    1.5790 N   0  0  0  0  0  0  0  0  0  0  0  0
    5.4420   -5.9490    2.1490 C   0  0  0  0  0  0  0  0  0  0  0  0
    5.2590   -4.9570    3.1040 N   0  0  0  0  0  0  0  0  0  0  0  0
    4.5050   -7.0070    1.7450 C   0  0  0  0  0  0  0  0  0  0  0  0
    4.1740   -7.1710    0.4020 C   0  0  0  0  0  3  0  0  0  0  0  0
    3.3170   -8.2060    0.0350 C   0  0  0  0  0  3  0  0  0  0  0  0
    2.8250   -9.0550    1.0150 C   0  0  0  0  0  3  0  0  0  0  0  0
    3.2130   -8.8330    2.3250 C   0  0  0  0  0  3  0  0  0  0  0  0
    4.0370   -7.8320    2.7090 N   0  0  0  0  0  0  0  0  0  0  0  0
    4.0600   -4.5990    3.8610 C   0  0  0  0  0  3  0  0  0  0  0  0
    4.0630   -5.0350    5.3380 C   0  0  0  0  0  2  0  0  0  0  0  0
    2.7380   -4.6990    6.0200 C   0  0  0  0  0  2  0  0  0  0  0  0
    2.3730   -3.2280    5.8440 C   0  0  0  0  0  2  0  0  0  0  0  0
    2.3070   -2.8390    4.3710 C   0  0  0  0  0  2  0  0  0  0  0  0
    3.6150   -3.1450    3.6420 C   0  0  0  0  0  2  0  0  0  0  0  0
   11.0540   -2.4310    3.5660 O   0  0  0  0  0  0  0  0  0  0  0  0
   10.3340   -2.6590    2.5970 C   0  0  0  0  0  0  0  0  0  0  0  0
   10.7330   -2.4020    1.3180 N   0  0  0  0  0  0  0  0  0  0  0  0
   11.7000   -2.1110    1.1880 H   0  0  0  0  0  0  0  0  0  0  0  0
    9.9810   -2.4180    0.0360 C   0  0  2  0  0  3  0  0  0  0  0  0
   10.2140   -3.7110   -0.8080 C   0  0  0  0  0  0  0  0  0  0  0  0
   11.4220   -3.9880   -1.0630 O   0  0  0  0  0  1  0  0  0  0  0  0
    9.1580   -4.3080   -1.1780 O   0  0  0  0  0  0  0  0  0  0  0  0
   10.2490   -1.1740   -0.8270 C   0  0  0  0  0  2  0  0  0  0  0  0
   10.1300    0.1570   -0.1150 C   0  0  0  0  0  0  0  0  0  0  0  0
   10.7500    1.3030   -0.6300 C   0  0  0  0  0  3  0  0  0  0  0  0
   10.6310    2.5310    0.0260 C   0  0  0  0  0  3  0  0  0  0  0  0
    9.8910    2.6240    1.2040 C   0  0  0  0  0  3  0  0  0  0  0  0
    9.2670    1.4910    1.7220 C   0  0  0  0  0  3  0  0  0  0  0  0
    9.3850    0.2650    1.0670 C   0  0  0  0  0  3  0  0  0  0  0  0
  1  2  1  0  0  0  0
  2  3  2  0  0  0  0
  4  3  1  0  0  0  0
  5  4  2  0  0  0  0
  6  5  1  0  0  0  0
  6  1  2  0  0  0  0
  7  8  2  0  0  0  0
  7  5  1  0  0  0  0
  8  9  1  0  0  0  0
  9  4  1  0  0  0  0
  9 16  1  0  0  0  0
 10  8  1  0  0  0  0
 10 15  1  0  0  0  0
 11 10  2  0  0  0  0
 12 11  1  0  0  0  0
 12 13  2  0  0  0  0
 13 14  1  0  0  0  0
 14 15  2  0  0  0  0
 16 17  1  0  0  0  0
 17 18  1  0  0  0  0
 19 18  1  0  0  0  0
 20 19  1  0  0  0  0
 21 16  1  0  0  0  0
 21 20  1  0  0  0  0
 23  1  1  0  0  0  0
 23 22  2  0  0  0  0
 24 23  1  0  0  0  0
 25 24  1  0  0  0  0
 26 30  1  6  0  0  0
 26 24  1  0  0  0  0
 27 26  1  0  0  0  0
 28 27  1  0  0  0  0
 29 27  2  0  0  0  0
 30 31  1  0  0  0  0
 31 36  1  0  0  0  0
 32 31  2  0  0  0  0
 32 33  1  0  0  0  0
 33 34  2  0  0  0  0
 34 35  1  0  0  0  0
 36 35  2  0  0  0  0
M  END
>  <minimizedAffinity>
-7.53512859

$$$$

 OpenBabel09122220553D

 36 40  0  0  1  0  0  0  0  0999 V2000
    4.5810   -6.5680    1.2850 C   0  0  0  0  0  0  0  0  0  0  0  0
    3.9970   -7.5840    2.0480 C   0  0  0  0  0  3  0  0  0  0  0  0
    3.4370   -7.3120    3.3000 C   0  0  0  0  0  3  0  0  0  0  0  0
    3.5070   -5.9900    3.7650 C   0  0  0  0  0  0  0  0  0  0  0  0
    4.1050   -4.9780    3.0260 C   0  0  0  0  0  0  0  0  0  0  0  0
    4.6640   -5.2580    1.7720 C   0  0  0  0  0  3  0  0  0  0  0  0
    4.0470   -3.7910    3.6980 N   0  0  0  0  0  0  0  0  0  0  0  0
    3.3860   -4.0160    4.8270 C   0  0  0  0  0  0  0  0  0  0  0  0
    3.0960   -5.3700    4.9400 N   0  0  0  0  0  0  0  0  0  0  0  0
    3.0760   -2.9370    5.7760 C   0  0  0  0  0  0  0  0  0  0  0  0
    2.0490   -2.0370    5.4990 C   0  0  0  0  0  3  0  0  0  0  0  0
    1.7420   -1.0490    6.4300 C   0  0  0  0  0  3  0  0  0  0  0  0
    2.4590   -0.9930    7.6180 C   0  0  0  0  0  3  0  0  0  0  0  0
    3.4540   -1.9330    7.8230 C   0  0  0  0  0  3  0  0  0  0  0  0
    3.7770   -2.8980    6.9320 N   0  0  0  0  0  0  0  0  0  0  0  0
    2.5430   -6.1160    6.0700 C   0  0  0  0  0  3  0  0  0  0  0  0
    1.1050   -6.6310    5.8740 C   0  0  0  0  0  2  0  0  0  0  0  0
    0.5820   -7.3160    7.1360 C   0  0  0  0  0  2  0  0  0  0  0  0
    1.5340   -8.4060    7.6180 C   0  0  0  0  0  2  0  0  0  0  0  0
    2.9340   -7.8550    7.8730 C   0  0  0  0  0  2  0  0  0  0  0  0
    3.5090   -7.1660    6.6360 C   0  0  0  0  0  2  0  0  0  0  0  0
    4.4780   -7.1590   -0.9630 O   0  0  0  0  0  0  0  0  0  0  0  0
    5.2080   -6.8760   -0.0160 C   0  0  0  0  0  0  0  0  0  0  0  0
    6.5670   -6.8420   -0.1300 N   0  0  0  0  0  0  0  0  0  0  0  0
    6.9530   -6.9560   -1.0650 H   0  0  0  0  0  0  0  0  0  0  0  0
    7.6320   -6.7150    0.8980 C   0  0  2  0  0  3  0  0  0  0  0  0
    7.7310   -7.9500    1.8500 C   0  0  0  0  0  0  0  0  0  0  0  0
    6.9380   -7.9450    2.8360 O   0  0  0  0  0  1  0  0  0  0  0  0
    8.6280   -8.7920    1.5450 O   0  0  0  0  0  0  0  0  0  0  0  0
    7.5120   -5.4250    1.7260 C   0  0  0  0  0  2  0  0  0  0  0  0
    8.3530   -4.2590    1.2500 C   0  0  0  0  0  0  0  0  0  0  0  0
    8.4480   -3.0860    2.0110 C   0  0  0  0  0  3  0  0  0  0  0  0
    9.2300   -2.0160    1.5720 C   0  0  0  0  0  3  0  0  0  0  0  0
    9.9280   -2.1080    0.3680 C   0  0  0  0  0  3  0  0  0  0  0  0
    9.8450   -3.2720   -0.3930 C   0  0  0  0  0  3  0  0  0  0  0  0
    9.0620   -4.3420    0.0450 C   0  0  0  0  0  3  0  0  0  0  0  0
  1  6  2  0  0  0  0
  1  2  1  0  0  0  0
  2  3  2  0  0  0  0
  3  4  1  0  0  0  0
  4  9  1  0  0  0  0
  5  7  1  0  0  0  0
  5  4  2  0  0  0  0
  6  5  1  0  0  0  0
  7  8  2  0  0  0  0
  8  9  1  0  0  0  0
  8 10  1  0  0  0  0
  9 16  1  0  0  0  0
 10 15  1  0  0  0  0
 11 10  2  0  0  0  0
 11 12  1  0  0  0  0
 12 13  2  0  0  0  0
 13 14  1  0  0  0  0
 15 14  2  0  0  0  0
 16 21  1  0  0  0  0
 17 16  1  0  0  0  0
 17 18  1  0  0  0  0
 18 19  1  0  0  0  0
 19 20  1  0  0  0  0
 21 20  1  0  0  0  0
 22 23  2  0  0  0  0
 23  1  1  0  0  0  0
 24 23  1  0  0  0  0
 24 26  1  0  0  0  0
 25 24  1  0  0  0  0
 26 30  1  1  0  0  0
 26 27  1  0  0  0  0
 27 28  1  0  0  0  0
 29 27  2  0  0  0  0
 31 30  1  0  0  0  0
 31 32  1  0  0  0  0
 33 32  2  0  0  0  0
 34 33  1  0  0  0  0
 35 36  1  0  0  0  0
 35 34  2  0  0  0  0
 36 31  2  0  0  0  0
M  END
>  <minimizedAffinity>
-7.47558594

$$$$

 OpenBabel09122220553D

 36 40  0  0  1  0  0  0  0  0999 V2000
    8.5340   -4.2360    0.5830 C   0  0  0  0  0  0  0  0  0  0  0  0
    8.0640   -5.3610   -0.1000 C   0  0  0  0  0  3  0  0  0  0  0  0
    6.9610   -6.0810    0.3710 C   0  0  0  0  0  3  0  0  0  0  0  0
    6.3660   -5.6410    1.5640 C   0  0  0  0  0  0  0  0  0  0  0  0
    6.8390   -4.5380    2.2630 C   0  0  0  0  0  0  0  0  0  0  0  0
    7.9440   -3.8220    1.7840 C   0  0  0  0  0  3  0  0  0  0  0  0
    6.0940   -4.3220    3.3860 N   0  0  0  0  0  0  0  0  0  0  0  0
    5.1300   -5.2350    3.3940 C   0  0  0  0  0  0  0  0  0  0  0  0
    5.3020   -6.1100    2.3280 N   0  0  0  0  0  0  0  0  0  0  0  0
    4.0920   -5.2630    4.4340 C   0  0  0  0  0  0  0  0  0  0  0  0
    2.8800   -4.6070    4.2280 C   0  0  0  0  0  3  0  0  0  0  0  0
    1.8920   -4.6810    5.2070 C   0  0  0  0  0  3  0  0  0  0  0  0
    2.1360   -5.4170    6.3580 C   0  0  0  0  0  3  0  0  0  0  0  0
    3.3610   -6.0500    6.4800 C   0  0  0  0  0  3  0  0  0  0  0  0
    4.3390   -5.9880    5.5480 N   0  0  0  0  0  0  0  0  0  0  0  0
    4.6060   -7.3590    2.0230 C   0  0  0  0  0  3  0  0  0  0  0  0
    3.6360   -7.8510    3.1120 C   0  0  0  0  0  2  0  0  0  0  0  0
    3.0260   -9.2030    2.7460 C   0  0  0  0  0  2  0  0  0  0  0  0
    2.3850   -9.1730    1.3620 C   0  0  0  0  0  2  0  0  0  0  0  0
    3.3850   -8.7510    0.2900 C   0  0  0  0  0  2  0  0  0  0  0  0
    4.0190   -7.3960    0.6040 C   0  0  0  0  0  2  0  0  0  0  0  0
   10.3080   -3.9430   -0.8940 O   0  0  0  0  0  0  0  0  0  0  0  0
    9.7260   -3.5110    0.0980 C   0  0  0  0  0  0  0  0  0  0  0  0
   10.1460   -2.3940    0.7590 N   0  0  0  0  0  0  0  0  0  0  0  0
   10.9050   -1.8660    0.3330 H   0  0  0  0  0  0  0  0  0  0  0  0
    9.7240   -1.8090    2.0580 C   0  0  2  0  0  3  0  0  0  0  0  0
    9.5260   -0.2610    2.0110 C   0  0  0  0  0  0  0  0  0  0  0  0
    9.3370    0.3000    3.1290 O   0  0  0  0  0  1  0  0  0  0  0  0
    9.5340    0.2460    0.8490 O   0  0  0  0  0  0  0  0  0  0  0  0
   10.6680   -2.1810    3.2140 C   0  0  0  0  0  2  0  0  0  0  0  0
   10.0400   -2.2070    4.5910 C   0  0  0  0  0  0  0  0  0  0  0  0
   10.7400   -1.7290    5.7070 C   0  0  0  0  0  3  0  0  0  0  0  0
   10.1540   -1.7480    6.9750 C   0  0  0  0  0  3  0  0  0  0  0  0
    8.8620   -2.2440    7.1400 C   0  0  0  0  0  3  0  0  0  0  0  0
    8.1550   -2.7180    6.0360 C   0  0  0  0  0  3  0  0  0  0  0  0
    8.7400   -2.6990    4.7690 C   0  0  0  0  0  3  0  0  0  0  0  0
  1  6  1  0  0  0  0
  2  3  1  0  0  0  0
  2  1  2  0  0  0  0
  3  4  2  0  0  0  0
  4  5  1  0  0  0  0
  4  9  1  0  0  0  0
  5  7  1  0  0  0  0
  6  5  2  0  0  0  0
  7  8  2  0  0  0  0
  8 10  1  0  0  0  0
  9  8  1  0  0  0  0
 10 15  1  0  0  0  0
 11 10  2  0  0  0  0
 11 12  1  0  0  0  0
 12 13  2  0  0  0  0
 13 14  1  0  0  0  0
 15 14  2  0  0  0  0
 16  9  1  0  0  0  0
 16 17  1  0  0  0  0
 18 17  1  0  0  0  0
 19 18  1  0  0  0  0
 20 21  1  0  0  0  0
 20 19  1  0  0  0  0
 21 16  1  0  0  0  0
 22 23  2  0  0  0  0
 23  1  1  0  0  0  0
 23 24  1  0  0  0  0
 24 26  1  0  0  0  0
 25 24  1  0  0  0  0
 26 30  1  1  0  0  0
 27 26  1  0  0  0  0
 27 28  1  0  0  0  0
 29 27  2  0  0  0  0
 30 31  1  0  0  0  0
 31 36  2  0  0  0  0
 31 32  1  0  0  0  0
 32 33  2  0  0  0  0
 33 34  1  0  0  0  0
 35 34  2  0  0  0  0
 36 35  1  0  0  0  0
M  END
>  <minimizedAffinity>
-7.33253336

$$$$

 OpenBabel09122220553D

 36 40  0  0  1  0  0  0  0  0999 V2000
    6.2290   -3.5380    6.4410 C   0  0  0  0  0  0  0  0  0  0  0  0
    6.8730   -2.5020    7.1240 C   0  0  0  0  0  3  0  0  0  0  0  0
    7.8550   -1.7270    6.4980 C   0  0  0  0  0  3  0  0  0  0  0  0
    8.1810   -2.0480    5.1720 C   0  0  0  0  0  0  0  0  0  0  0  0
    7.5640   -3.0900    4.4910 C   0  0  0  0  0  0  0  0  0  0  0  0
    6.5810   -3.8620    5.1250 C   0  0  0  0  0  3  0  0  0  0  0  0
    8.0600   -3.1980    3.2230 N   0  0  0  0  0  0  0  0  0  0  0  0
    8.9450   -2.2210    3.0680 C   0  0  0  0  0  0  0  0  0  0  0  0
    9.1010   -1.5330    4.2650 N   0  0  0  0  0  0  0  0  0  0  0  0
    9.6350   -1.9910    1.7910 C   0  0  0  0  0  0  0  0  0  0  0  0
   10.5870   -2.9030    1.3380 C   0  0  0  0  0  3  0  0  0  0  0  0
   11.1990   -2.6910    0.1050 C   0  0  0  0  0  3  0  0  0  0  0  0
   10.8370   -1.5820   -0.6470 C   0  0  0  0  0  3  0  0  0  0  0  0
    9.8730   -0.7320   -0.1320 C   0  0  0  0  0  3  0  0  0  0  0  0
    9.2690   -0.9110    1.0650 N   0  0  0  0  0  0  0  0  0  0  0  0
   10.0730   -0.5040    4.6310 C   0  0  0  0  0  3  0  0  0  0  0  0
    9.8460    0.8740    3.9820 C   0  0  0  0  0  2  0  0  0  0  0  0
   10.9580    1.8540    4.3500 C   0  0  0  0  0  2  0  0  0  0  0  0
   11.1490    1.9430    5.8610 C   0  0  0  0  0  2  0  0  0  0  0  0
   11.4430    0.5760    6.4710 C   0  0  0  0  0  2  0  0  0  0  0  0
   10.3530   -0.4430    6.1400 C   0  0  0  0  0  2  0  0  0  0  0  0
    5.6230   -5.2710    7.8700 O   0  0  0  0  0  0  0  0  0  0  0  0
    5.2260   -4.3770    7.1270 C   0  0  0  0  0  0  0  0  0  0  0  0
    3.8990   -4.1410    6.9170 N   0  0  0  0  0  0  0  0  0  0  0  0
    3.2420   -4.6700    7.4870 H   0  0  0  0  0  0  0  0  0  0  0  0
    3.2030   -3.2630    5.9400 C   0  0  2  0  0  3  0  0  0  0  0  0
    2.2750   -2.1990    6.6070 C   0  0  0  0  0  0  0  0  0  0  0  0
    1.7050   -1.3960    5.8130 O   0  0  0  0  0  0  0  0  0  0  0  0
    2.2380   -2.2380    7.8740 O   0  0  0  0  0  1  0  0  0  0  0  0
    2.4160   -4.0540    4.8820 C   0  0  0  0  0  2  0  0  0  0  0  0
    3.2380   -4.9770    4.0080 C   0  0  0  0  0  0  0  0  0  0  0  0
    3.2080   -6.3650    4.2020 C   0  0  0  0  0  3  0  0  0  0  0  0
    3.9620   -7.2130    3.3880 C   0  0  0  0  0  3  0  0  0  0  0  0
    4.7530   -6.6830    2.3700 C   0  0  0  0  0  3  0  0  0  0  0  0
    4.7860   -5.3050    2.1640 C   0  0  0  0  0  3  0  0  0  0  0  0
    4.0330   -4.4570    2.9780 C   0  0  0  0  0  3  0  0  0  0  0  0
  1  2  1  0  0  0  0
  1 23  1  0  0  0  0
  3  2  2  0  0  0  0
  4  3  1  0  0  0  0
  5  6  1  0  0  0  0
  5  4  2  0  0  0  0
  6  1  2  0  0  0  0
  7  5  1  0  0  0  0
  8  7  2  0  0  0  0
  8  9  1  0  0  0  0
  9 16  1  0  0  0  0
  9  4  1  0  0  0  0
 10  8  1  0  0  0  0
 11 10  1  0  0  0  0
 12 11  2  0  0  0  0
 13 14  2  0  0  0  0
 13 12  1  0  0  0  0
 14 15  1  0  0  0  0
 15 10  2  0  0  0  0
 16 21  1  0  0  0  0
 17 18  1  0  0  0  0
 17 16  1  0  0  0  0
 18 19  1  0  0  0  0
 19 20  1  0  0  0  0
 21 20  1  0  0  0  0
 23 22  2  0  0  0  0
 24 23  1  0  0  0  0
 24 25  1  0  0  0  0
 26 30  1  6  0  0  0
 26 27  1  0  0  0  0
 26 24  1  0  0  0  0
 27 29  1  0  0  0  0
 28 27  2  0  0  0  0
 31 32  1  0  0  0  0
 31 30  1  0  0  0  0
 33 32  2  0  0  0  0
 34 33  1  0  0  0  0
 35 34  2  0  0  0  0
 35 36  1  0  0  0  0
 36 31  2  0  0  0  0
M  END
>  <minimizedAffinity>
-6.99591732

$$$$
