
 OpenBabel09122222393D

 36 40  0  0  1  0  0  0  0  0999 V2000
    4.5810   -6.5680    1.2850 C   0  0  0  0  0  0  0  0  0  0  0  0
    3.9970   -7.5840    2.0480 C   0  0  0  0  0  3  0  0  0  0  0  0
    3.4370   -7.3120    3.3000 C   0  0  0  0  0  3  0  0  0  0  0  0
    3.5070   -5.9900    3.7650 C   0  0  0  0  0  0  0  0  0  0  0  0
    4.1050   -4.9780    3.0260 C   0  0  0  0  0  0  0  0  0  0  0  0
    4.6640   -5.2580    1.7720 C   0  0  0  0  0  3  0  0  0  0  0  0
    4.0470   -3.7910    3.6980 N   0  0  0  0  0  0  0  0  0  0  0  0
    3.3860   -4.0160    4.8270 C   0  0  0  0  0  0  0  0  0  0  0  0
    3.0960   -5.3700    4.9400 N   0  0  0  0  0  0  0  0  0  0  0  0
    3.0760   -2.9370    5.7760 C   0  0  0  0  0  0  0  0  0  0  0  0
    2.0490   -2.0370    5.4990 C   0  0  0  0  0  3  0  0  0  0  0  0
    1.7420   -1.0490    6.4300 C   0  0  0  0  0  3  0  0  0  0  0  0
    2.4590   -0.9930    7.6180 C   0  0  0  0  0  3  0  0  0  0  0  0
    3.4540   -1.9330    7.8230 C   0  0  0  0  0  3  0  0  0  0  0  0
    3.7770   -2.8980    6.9320 N   0  0  0  0  0  0  0  0  0  0  0  0
    2.5430   -6.1160    6.0700 C   0  0  0  0  0  3  0  0  0  0  0  0
    1.1050   -6.6310    5.8740 C   0  0  0  0  0  2  0  0  0  0  0  0
    0.5820   -7.3160    7.1360 C   0  0  0  0  0  2  0  0  0  0  0  0
    1.5340   -8.4060    7.6180 C   0  0  0  0  0  2  0  0  0  0  0  0
    2.9340   -7.8550    7.8730 C   0  0  0  0  0  2  0  0  0  0  0  0
    3.5090   -7.1660    6.6360 C   0  0  0  0  0  2  0  0  0  0  0  0
    4.4780   -7.1590   -0.9630 O   0  0  0  0  0  0  0  0  0  0  0  0
    5.2080   -6.8760   -0.0160 C   0  0  0  0  0  0  0  0  0  0  0  0
    6.5670   -6.8420   -0.1300 N   0  0  0  0  0  0  0  0  0  0  0  0
    6.9530   -6.9560   -1.0650 H   0  0  0  0  0  0  0  0  0  0  0  0
    7.6320   -6.7150    0.8980 C   0  0  2  0  0  3  0  0  0  0  0  0
    7.7310   -7.9500    1.8500 C   0  0  0  0  0  0  0  0  0  0  0  0
    6.9380   -7.9450    2.8360 O   0  0  0  0  0  1  0  0  0  0  0  0
    8.6280   -8.7920    1.5450 O   0  0  0  0  0  0  0  0  0  0  0  0
    7.5120   -5.4250    1.7260 C   0  0  0  0  0  2  0  0  0  0  0  0
    8.3530   -4.2590    1.2500 C   0  0  0  0  0  0  0  0  0  0  0  0
    8.4480   -3.0860    2.0110 C   0  0  0  0  0  3  0  0  0  0  0  0
    9.2300   -2.0160    1.5720 C   0  0  0  0  0  3  0  0  0  0  0  0
    9.9280   -2.1080    0.3680 C   0  0  0  0  0  3  0  0  0  0  0  0
    9.8450   -3.2720   -0.3930 C   0  0  0  0  0  3  0  0  0  0  0  0
    9.0620   -4.3420    0.0450 C   0  0  0  0  0  3  0  0  0  0  0  0
  1  6  2  0  0  0  0
  1  2  1  0  0  0  0
  2  3  2  0  0  0  0
  3  4  1  0  0  0  0
  4  9  1  0  0  0  0
  5  7  1  0  0  0  0
  5  4  2  0  0  0  0
  6  5  1  0  0  0  0
  7  8  2  0  0  0  0
  8  9  1  0  0  0  0
  8 10  1  0  0  0  0
  9 16  1  0  0  0  0
 10 15  1  0  0  0  0
 11 10  2  0  0  0  0
 11 12  1  0  0  0  0
 12 13  2  0  0  0  0
 13 14  1  0  0  0  0
 15 14  2  0  0  0  0
 16 21  1  0  0  0  0
 17 16  1  0  0  0  0
 17 18  1  0  0  0  0
 18 19  1  0  0  0  0
 19 20  1  0  0  0  0
 21 20  1  0  0  0  0
 22 23  2  0  0  0  0
 23  1  1  0  0  0  0
 24 23  1  0  0  0  0
 24 26  1  0  0  0  0
 25 24  1  0  0  0  0
 26 30  1  1  0  0  0
 26 27  1  0  0  0  0
 27 28  1  0  0  0  0
 29 27  2  0  0  0  0
 31 30  1  0  0  0  0
 31 32  1  0  0  0  0
 33 32  2  0  0  0  0
 34 33  1  0  0  0  0
 35 36  1  0  0  0  0
 35 34  2  0  0  0  0
 36 31  2  0  0  0  0
M  END
>  <minimizedAffinity>
-7.47558594

$$$$
