REMARK  Name = 
REMARK  7 active torsions:
REMARK  status: ('A' for Active; 'I' for Inactive)
REMARK    1  A    between atoms: C_2  and  C_4
REMARK    2  A    between atoms: C_4  and  C_5
REMARK    3  A    between atoms: C_4  and  N_12
REMARK    4  A    between atoms: C_5  and  C_6
REMARK    5  A    between atoms: N_12  and  C_13
REMARK    6  A    between atoms: C_13  and  C_14
REMARK    7  A    between atoms: C_21  and  C_23
REMARK                            x       y       z     vdW  Elec       q    Type
REMARK                         _______ _______ _______ _____ _____    ______ ____
ROOT
ATOM      1  N   UNL     1       2.261   1.527  -2.110  0.00  0.00    -0.285 N 
ATOM      2  C   UNL     1       0.984   1.610  -2.666  0.00  0.00    +0.249 C 
ATOM      3  O   UNL     1       0.074   0.806  -2.485  0.00  0.00    -0.270 OA
ENDROOT
BRANCH   2   4
ATOM      4  C   UNL     1       0.632   2.800  -3.460  0.00  0.00    +0.055 A 
ATOM      5  C   UNL     1       0.310   3.980  -2.771  0.00  0.00    +0.016 A 
ATOM      6  C   UNL     1      -0.040   5.127  -3.483  0.00  0.00    +0.021 A 
ATOM      7  C   UNL     1      -0.084   5.087  -4.876  0.00  0.00    +0.042 A 
ATOM      8 CL   UNL     1      -0.506   6.506  -5.754  0.00  0.00    -0.083 Cl
ATOM      9  C   UNL     1       0.202   3.908  -5.564  0.00  0.00    +0.040 A 
ATOM     10  C   UNL     1       0.549   2.754  -4.855  0.00  0.00    +0.054 A 
ATOM     11 CL   UNL     1       0.867   1.324  -5.766  0.00  0.00    -0.083 Cl
ENDBRANCH   2   4
BRANCH   1  12
ATOM     12  C   UNL     1       2.593   0.330  -1.262  0.00  0.00    +0.127 C 
BRANCH  12  14
ATOM     13  O   UNL     1       2.103  -2.032  -1.362  0.00  0.00    -0.548 OA
ATOM     14  C   UNL     1       2.592  -1.053  -1.997  0.00  0.00    +0.062 C 
ATOM     15  O   UNL     1       3.212  -1.066  -3.105  0.00  0.00    -0.548 OA
ENDBRANCH  12  14
BRANCH  12  16
ATOM     16  C   UNL     1       1.780   0.286   0.047  0.00  0.00    +0.063 C 
BRANCH  16  17
ATOM     17  C   UNL     1       1.922   1.540   0.891  0.00  0.00    -0.045 A 
ATOM     18  C   UNL     1       0.860   2.447   0.997  0.00  0.00    +0.004 A 
ATOM     19  C   UNL     1       0.996   3.610   1.755  0.00  0.00    +0.000 A 
ATOM     20  C   UNL     1       2.195   3.876   2.416  0.00  0.00    +0.000 A 
ATOM     21  C   UNL     1       3.256   2.977   2.322  0.00  0.00    +0.000 A 
ATOM     22  C   UNL     1       3.120   1.813   1.564  0.00  0.00    +0.004 A 
ENDBRANCH  16  17
ENDBRANCH  12  16
ENDBRANCH   1  12
BRANCH   1  23
ATOM     23  C   UNL     1       3.265   2.593  -2.166  0.00  0.00    +0.144 C 
BRANCH  23  24
ATOM     24  C   UNL     1       3.779   2.935  -3.546  0.00  0.00    -0.029 A 
ATOM     25  C   UNL     1       4.238   1.937  -4.415  0.00  0.00    +0.005 A 
ATOM     26  C   UNL     1       4.711   2.258  -5.689  0.00  0.00    +0.002 A 
ATOM     27  C   UNL     1       4.741   3.587  -6.108  0.00  0.00    +0.020 A 
ATOM     28  C   UNL     1       4.305   4.588  -5.245  0.00  0.00    +0.041 A 
ATOM     29 CL   UNL     1       4.333   6.232  -5.757  0.00  0.00    -0.084 Cl
ATOM     30  C   UNL     1       3.837   4.272  -3.969  0.00  0.00    +0.025 A 
ENDBRANCH  23  24
ENDBRANCH   1  23
TORSDOF 7
