
 OpenBabel09082221153D

 43 48  0  0  0  0  0  0  0  0999 V2000
    5.5410   -5.0120   -0.7230 C   0  0  0  0  0  0  0  0  0  0  0  0
    5.8450   -6.0620   -1.5830 C   0  0  0  0  0  3  0  0  0  0  0  0
    5.2840   -6.1010   -2.8640 C   0  0  0  0  0  3  0  0  0  0  0  0
    4.4190   -5.0920   -3.3170 C   0  0  0  0  0  0  0  0  0  0  0  0
    4.0760   -4.0490   -2.4280 C   0  0  0  0  0  0  0  0  0  0  0  0
    4.6600   -4.0140   -1.1500 C   0  0  0  0  0  3  0  0  0  0  0  0
    3.1350   -2.9640   -2.7630 C   0  0  0  0  0  3  0  0  0  0  0  0
    2.0140   -3.1740   -3.4770 C   0  0  0  0  0  0  0  0  0  0  0  0
    1.5710   -4.5070   -4.0050 C   0  0  0  0  0  2  0  0  0  0  0  0
    2.5430   -4.9930   -4.9840 N   0  0  0  0  0  0  0  0  0  0  0  0
    3.8860   -5.1790   -4.6940 C   0  0  0  0  0  0  0  0  0  0  0  0
    4.5410   -5.3820   -5.9110 C   0  0  0  0  0  0  0  0  0  0  0  0
    3.5280   -5.4390   -6.9320 C   0  0  0  0  0  0  0  0  0  0  0  0
    3.5560   -5.6520   -8.3300 C   0  0  0  0  0  3  0  0  0  0  0  0
    2.3720   -5.6230   -9.0720 C   0  0  0  0  0  3  0  0  0  0  0  0
    1.1580   -5.3780   -8.4350 C   0  0  0  0  0  0  0  0  0  0  0  0
    1.0860   -5.2180   -7.0470 C   0  0  0  0  0  3  0  0  0  0  0  0
    2.2920   -5.2200   -6.3200 C   0  0  0  0  0  0  0  0  0  0  0  0
   -0.0650   -5.3750   -9.2580 C   0  0  0  0  0  0  0  0  0  0  0  0
   -0.5180   -6.4210   -9.6970 O   0  0  0  0  0  0  0  0  0  0  0  0
   -0.6020   -4.1430   -9.6630 N   0  0  0  0  0  0  0  0  0  0  0  0
   -0.6490   -2.7340   -8.8070 S   0  0  0  0  0  0  0  0  0  0  0  0
   -1.3150   -1.7610   -9.6390 O   0  0  0  0  0  0  0  0  0  0  0  0
   -1.1350   -3.0450   -7.4850 O   0  0  0  0  0  0  0  0  0  0  0  0
    0.9760   -2.3260   -8.7210 N   0  0  0  0  0  0  0  0  0  0  0  0
    1.6220   -1.9030   -9.9740 C   0  0  0  0  0  1  0  0  0  0  0  0
    1.4290   -1.5950   -7.5120 C   0  0  0  0  0  2  0  0  0  0  0  0
    0.8230   -0.1980   -7.3930 C   0  0  0  0  0  2  0  0  0  0  0  0
    1.4240    0.6400   -6.2560 C   0  0  0  0  0  2  0  0  0  0  0  0
    1.0290    0.1900   -4.8500 C   0  0  0  0  0  2  0  0  0  0  0  0
    1.7440   -0.9920   -4.4200 N   0  0  0  0  0  0  0  0  0  0  0  0
    1.1170   -2.0370   -3.7870 C   0  0  0  0  0  0  0  0  0  0  0  0
   -0.0800   -2.0990   -3.5450 O   0  0  0  0  0  0  0  0  0  0  0  0
   -1.4530   -4.2570  -10.2080 H   0  0  0  0  0  0  0  0  0  0  0  0
    2.7480   -1.0300   -4.5530 H   0  0  0  0  0  0  0  0  0  0  0  0
    6.0400   -5.4920   -6.1150 C   0  0  0  0  0  3  0  0  0  0  0  0
    6.8330   -4.5600   -5.1840 C   0  0  0  0  0  2  0  0  0  0  0  0
    8.3360   -4.6670   -5.4330 C   0  0  0  0  0  2  0  0  0  0  0  0
    8.8240   -6.1090   -5.3280 C   0  0  0  0  0  2  0  0  0  0  0  0
    8.0460   -7.0350   -6.2600 C   0  0  0  0  0  2  0  0  0  0  0  0
    6.5410   -6.9440   -6.0160 C   0  0  0  0  0  2  0  0  0  0  0  0
    6.5860   -3.5800    0.8610 C   0  0  0  0  0  1  0  0  0  0  0  0
    6.0200   -4.8460    0.5460 O   0  0  0  0  0  0  0  0  0  0  0  0
  1 43  1  0  0  0  0
  2  1  2  0  0  0  0
  3  2  1  0  0  0  0
  4  3  2  0  0  0  0
  4  5  1  0  0  0  0
  5  6  2  0  0  0  0
  6  1  1  0  0  0  0
  7  5  1  0  0  0  0
  8  7  2  0  0  0  0
  9  8  1  0  0  0  0
 10 11  1  0  0  0  0
 10  9  1  0  0  0  0
 11  4  1  0  0  0  0
 12 11  2  0  0  0  0
 13 18  1  0  0  0  0
 13 12  1  0  0  0  0
 14 13  2  0  0  0  0
 15 16  2  0  0  0  0
 15 14  1  0  0  0  0
 16 17  1  0  0  0  0
 17 18  2  0  0  0  0
 18 10  1  0  0  0  0
 19 16  1  0  0  0  0
 20 19  2  0  0  0  0
 21 19  1  0  0  0  0
 21 22  1  0  0  0  0
 22 25  1  0  0  0  0
 22 24  2  0  0  0  0
 23 22  2  0  0  0  0
 25 27  1  0  0  0  0
 26 25  1  0  0  0  0
 27 28  1  0  0  0  0
 28 29  1  0  0  0  0
 29 30  1  0  0  0  0
 30 31  1  0  0  0  0
 31 32  1  0  0  0  0
 32 33  2  0  0  0  0
 32  8  1  0  0  0  0
 34 21  1  0  0  0  0
 35 31  1  0  0  0  0
 36 41  1  0  0  0  0
 36 12  1  0  0  0  0
 36 37  1  0  0  0  0
 38 39  1  0  0  0  0
 38 37  1  0  0  0  0
 40 41  1  0  0  0  0
 40 39  1  0  0  0  0
 43 42  1  0  0  0  0
M  END
>  <minimizedAffinity>
-5.23306274

$$$$

 OpenBabel09082221153D

 43 48  0  0  0  0  0  0  0  0999 V2000
    2.6950   -4.1600  -10.1930 C   0  0  0  0  0  0  0  0  0  0  0  0
    4.0440   -4.2520   -9.8680 C   0  0  0  0  0  3  0  0  0  0  0  0
    4.4370   -4.3250   -8.5270 C   0  0  0  0  0  3  0  0  0  0  0  0
    3.4940   -4.3170   -7.4860 C   0  0  0  0  0  0  0  0  0  0  0  0
    2.1280   -4.1800   -7.8150 C   0  0  0  0  0  0  0  0  0  0  0  0
    1.7470   -4.1250   -9.1670 C   0  0  0  0  0  3  0  0  0  0  0  0
    1.0490   -4.1010   -6.8130 C   0  0  0  0  0  3  0  0  0  0  0  0
    1.1820   -3.4240   -5.6580 C   0  0  0  0  0  0  0  0  0  0  0  0
    2.4080   -2.6630   -5.2480 C   0  0  0  0  0  2  0  0  0  0  0  0
    3.5260   -3.5910   -5.0820 N   0  0  0  0  0  0  0  0  0  0  0  0
    3.9760   -4.4280   -6.0920 C   0  0  0  0  0  0  0  0  0  0  0  0
    4.8530   -5.3420   -5.5040 C   0  0  0  0  0  0  0  0  0  0  0  0
    5.0150   -4.9470   -4.1290 C   0  0  0  0  0  0  0  0  0  0  0  0
    5.7850   -5.4430   -3.0510 C   0  0  0  0  0  3  0  0  0  0  0  0
    5.7060   -4.8410   -1.7920 C   0  0  0  0  0  3  0  0  0  0  0  0
    4.8620   -3.7510   -1.5930 C   0  0  0  0  0  0  0  0  0  0  0  0
    4.1280   -3.1990   -2.6500 C   0  0  0  0  0  3  0  0  0  0  0  0
    4.1970   -3.8370   -3.9030 C   0  0  0  0  0  0  0  0  0  0  0  0
    4.8270   -3.1400   -0.2530 C   0  0  0  0  0  0  0  0  0  0  0  0
    5.7670   -2.4710    0.1480 O   0  0  0  0  0  0  0  0  0  0  0  0
    3.7740   -3.4730    0.6130 N   0  0  0  0  0  0  0  0  0  0  0  0
    2.1960   -3.7540    0.2200 S   0  0  0  0  0  0  0  0  0  0  0  0
    1.5030   -4.0400    1.4520 O   0  0  0  0  0  0  0  0  0  0  0  0
    1.7690   -2.6840   -0.6470 O   0  0  0  0  0  0  0  0  0  0  0  0
    2.3070   -5.1760   -0.6620 N   0  0  0  0  0  0  0  0  0  0  0  0
    2.6590   -6.3950    0.0830 C   0  0  0  0  0  1  0  0  0  0  0  0
    1.3180   -5.3780   -1.7500 C   0  0  0  0  0  2  0  0  0  0  0  0
   -0.1150   -5.5210   -1.2400 C   0  0  0  0  0  2  0  0  0  0  0  0
   -1.1210   -5.9190   -2.3290 C   0  0  0  0  0  2  0  0  0  0  0  0
   -1.4370   -4.8190   -3.3420 C   0  0  0  0  0  2  0  0  0  0  0  0
   -0.3820   -4.6370   -4.3160 N   0  0  0  0  0  0  0  0  0  0  0  0
    0.0610   -3.3920   -4.6910 C   0  0  0  0  0  0  0  0  0  0  0  0
   -0.3510   -2.3320   -4.2420 O   0  0  0  0  0  0  0  0  0  0  0  0
    3.8370   -2.9810    1.5010 H   0  0  0  0  0  0  0  0  0  0  0  0
    0.0110   -5.4550   -4.7670 H   0  0  0  0  0  0  0  0  0  0  0  0
    5.4890   -6.5390   -6.1830 C   0  0  0  0  0  3  0  0  0  0  0  0
    7.0250   -6.4760   -6.1720 C   0  0  0  0  0  2  0  0  0  0  0  0
    7.6400   -7.6750   -6.8910 C   0  0  0  0  0  2  0  0  0  0  0  0
    7.1300   -8.9960   -6.3210 C   0  0  0  0  0  2  0  0  0  0  0  0
    5.6050   -9.0660   -6.3420 C   0  0  0  0  0  2  0  0  0  0  0  0
    4.9770   -7.8760   -5.6190 C   0  0  0  0  0  2  0  0  0  0  0  0
    1.3150   -2.9910  -11.7360 C   0  0  0  0  0  1  0  0  0  0  0  0
    2.1740   -4.0890  -11.4550 O   0  0  0  0  0  0  0  0  0  0  0  0
  1  2  2  0  0  0  0
  1  6  1  0  0  0  0
  2  3  1  0  0  0  0
  3  4  2  0  0  0  0
  4 11  1  0  0  0  0
  5  4  1  0  0  0  0
  5  7  1  0  0  0  0
  6  5  2  0  0  0  0
  7  8  2  0  0  0  0
  8  9  1  0  0  0  0
  8 32  1  0  0  0  0
  9 10  1  0  0  0  0
 10 18  1  0  0  0  0
 11 12  2  0  0  0  0
 11 10  1  0  0  0  0
 12 13  1  0  0  0  0
 13 18  2  0  0  0  0
 13 14  1  0  0  0  0
 14 15  2  0  0  0  0
 15 16  1  0  0  0  0
 16 19  1  0  0  0  0
 17 16  2  0  0  0  0
 18 17  1  0  0  0  0
 19 20  2  0  0  0  0
 19 21  1  0  0  0  0
 21 34  1  0  0  0  0
 22 21  1  0  0  0  0
 22 23  2  0  0  0  0
 24 22  2  0  0  0  0
 25 26  1  0  0  0  0
 25 22  1  0  0  0  0
 27 28  1  0  0  0  0
 27 25  1  0  0  0  0
 29 28  1  0  0  0  0
 30 29  1  0  0  0  0
 31 30  1  0  0  0  0
 32 31  1  0  0  0  0
 32 33  2  0  0  0  0
 35 31  1  0  0  0  0
 36 37  1  0  0  0  0
 36 41  1  0  0  0  0
 36 12  1  0  0  0  0
 38 39  1  0  0  0  0
 38 37  1  0  0  0  0
 40 39  1  0  0  0  0
 40 41  1  0  0  0  0
 42 43  1  0  0  0  0
 43  1  1  0  0  0  0
M  END
>  <minimizedAffinity>
-5.17966509

$$$$

 OpenBabel09082221153D

 43 48  0  0  0  0  0  0  0  0999 V2000
    4.6950   -4.4070    0.5490 C   0  0  0  0  0  0  0  0  0  0  0  0
    5.1290   -5.5700   -0.0780 C   0  0  0  0  0  3  0  0  0  0  0  0
    4.7890   -5.8150   -1.4120 C   0  0  0  0  0  3  0  0  0  0  0  0
    4.0170   -4.9030   -2.1500 C   0  0  0  0  0  0  0  0  0  0  0  0
    3.5390   -3.7430   -1.5010 C   0  0  0  0  0  0  0  0  0  0  0  0
    3.9040   -3.5030   -0.1650 C   0  0  0  0  0  3  0  0  0  0  0  0
    2.6750   -2.7400   -2.1480 C   0  0  0  0  0  3  0  0  0  0  0  0
    1.6860   -3.0760   -2.9970 C   0  0  0  0  0  0  0  0  0  0  0  0
    1.3270   -4.4820   -3.3790 C   0  0  0  0  0  2  0  0  0  0  0  0
    2.4440   -5.0940   -4.0980 N   0  0  0  0  0  0  0  0  0  0  0  0
    3.7190   -5.2090   -3.5660 C   0  0  0  0  0  0  0  0  0  0  0  0
    4.5650   -5.5830   -4.6130 C   0  0  0  0  0  0  0  0  0  0  0  0
    3.7330   -5.8140   -5.7660 C   0  0  0  0  0  0  0  0  0  0  0  0
    3.9910   -6.2380   -7.0900 C   0  0  0  0  0  3  0  0  0  0  0  0
    2.9460   -6.3440   -8.0120 C   0  0  0  0  0  3  0  0  0  0  0  0
    1.6450   -6.0270   -7.6300 C   0  0  0  0  0  0  0  0  0  0  0  0
    1.3460   -5.6580   -6.3130 C   0  0  0  0  0  3  0  0  0  0  0  0
    2.4140   -5.5270   -5.4060 C   0  0  0  0  0  0  0  0  0  0  0  0
    0.5750   -6.1720   -8.6320 C   0  0  0  0  0  0  0  0  0  0  0  0
    0.1930   -7.2810   -8.9740 O   0  0  0  0  0  0  0  0  0  0  0  0
    0.1210   -5.0270   -9.3050 N   0  0  0  0  0  0  0  0  0  0  0  0
   -0.0560   -3.5040   -8.6950 S   0  0  0  0  0  0  0  0  0  0  0  0
   -0.5680   -2.6830   -9.7650 O   0  0  0  0  0  0  0  0  0  0  0  0
   -0.7560   -3.6190   -7.4390 O   0  0  0  0  0  0  0  0  0  0  0  0
    1.5350   -3.0590   -8.4070 N   0  0  0  0  0  0  0  0  0  0  0  0
    2.3820   -2.8200   -9.5860 C   0  0  0  0  0  1  0  0  0  0  0  0
    1.7870   -2.1430   -7.2670 C   0  0  0  0  0  2  0  0  0  0  0  0
    1.1790   -0.7560   -7.4650 C   0  0  0  0  0  2  0  0  0  0  0  0
    1.5900    0.2570   -6.3870 C   0  0  0  0  0  2  0  0  0  0  0  0
    0.9650    0.0200   -5.0130 C   0  0  0  0  0  2  0  0  0  0  0  0
    1.5910   -1.0700   -4.2950 N   0  0  0  0  0  0  0  0  0  0  0  0
    0.8600   -2.0170   -3.6200 C   0  0  0  0  0  0  0  0  0  0  0  0
   -0.3610   -2.0630   -3.5720 O   0  0  0  0  0  0  0  0  0  0  0  0
   -0.6290   -5.2380   -9.9580 H   0  0  0  0  0  0  0  0  0  0  0  0
    2.6030   -1.1080   -4.2530 H   0  0  0  0  0  0  0  0  0  0  0  0
    6.0750   -5.6960   -4.5480 C   0  0  0  0  0  3  0  0  0  0  0  0
    6.5650   -7.1460   -4.6920 C   0  0  0  0  0  2  0  0  0  0  0  0
    8.0860   -7.2360   -4.5900 C   0  0  0  0  0  2  0  0  0  0  0  0
    8.7740   -6.3120   -5.5910 C   0  0  0  0  0  2  0  0  0  0  0  0
    8.2980   -4.8680   -5.4430 C   0  0  0  0  0  2  0  0  0  0  0  0
    6.7780   -4.7630   -5.5510 C   0  0  0  0  0  2  0  0  0  0  0  0
    5.8800   -2.9750    2.0300 C   0  0  0  0  0  1  0  0  0  0  0  0
    4.9590   -4.0410    1.8400 O   0  0  0  0  0  0  0  0  0  0  0  0
  1 43  1  0  0  0  0
  2  1  1  0  0  0  0
  3  2  2  0  0  0  0
  4  5  2  0  0  0  0
  4  3  1  0  0  0  0
  5  6  1  0  0  0  0
  6  1  2  0  0  0  0
  7  5  1  0  0  0  0
  8  7  2  0  0  0  0
  9  8  1  0  0  0  0
 10 11  1  0  0  0  0
 10  9  1  0  0  0  0
 11  4  1  0  0  0  0
 12 36  1  0  0  0  0
 12 11  2  0  0  0  0
 13 18  1  0  0  0  0
 13 12  1  0  0  0  0
 14 13  2  0  0  0  0
 15 16  2  0  0  0  0
 15 14  1  0  0  0  0
 16 17  1  0  0  0  0
 17 18  2  0  0  0  0
 18 10  1  0  0  0  0
 19 16  1  0  0  0  0
 20 19  2  0  0  0  0
 21 22  1  0  0  0  0
 21 19  1  0  0  0  0
 22 25  1  0  0  0  0
 22 24  2  0  0  0  0
 23 22  2  0  0  0  0
 25 27  1  0  0  0  0
 26 25  1  0  0  0  0
 28 27  1  0  0  0  0
 28 29  1  0  0  0  0
 29 30  1  0  0  0  0
 30 31  1  0  0  0  0
 31 35  1  0  0  0  0
 31 32  1  0  0  0  0
 32 33  2  0  0  0  0
 32  8  1  0  0  0  0
 34 21  1  0  0  0  0
 37 38  1  0  0  0  0
 37 36  1  0  0  0  0
 39 40  1  0  0  0  0
 39 38  1  0  0  0  0
 41 40  1  0  0  0  0
 41 36  1  0  0  0  0
 43 42  1  0  0  0  0
M  END
>  <minimizedAffinity>
-5.00819445

$$$$

 OpenBabel09082221153D

 43 48  0  0  0  0  0  0  0  0999 V2000
    8.4510   -7.0380   -6.1950 C   0  0  0  0  0  0  0  0  0  0  0  0
    8.3080   -5.8780   -5.4400 C   0  0  0  0  0  3  0  0  0  0  0  0
    7.0860   -5.1970   -5.4290 C   0  0  0  0  0  3  0  0  0  0  0  0
    5.9810   -5.6620   -6.1600 C   0  0  0  0  0  0  0  0  0  0  0  0
    6.1390   -6.8140   -6.9610 C   0  0  0  0  0  0  0  0  0  0  0  0
    7.3670   -7.4980   -6.9490 C   0  0  0  0  0  3  0  0  0  0  0  0
    5.0750   -7.3680   -7.8180 C   0  0  0  0  0  3  0  0  0  0  0  0
    4.2330   -6.5880   -8.5210 C   0  0  0  0  0  0  0  0  0  0  0  0
    4.2710   -5.0880   -8.5410 C   0  0  0  0  0  2  0  0  0  0  0  0
    3.9740   -4.5740   -7.2050 N   0  0  0  0  0  0  0  0  0  0  0  0
    4.7100   -4.9090   -6.0800 C   0  0  0  0  0  0  0  0  0  0  0  0
    3.9880   -4.4630   -4.9710 C   0  0  0  0  0  0  0  0  0  0  0  0
    2.8530   -3.7320   -5.4730 C   0  0  0  0  0  0  0  0  0  0  0  0
    1.7940   -3.0240   -4.8590 C   0  0  0  0  0  3  0  0  0  0  0  0
    0.8000   -2.4260   -5.6390 C   0  0  0  0  0  3  0  0  0  0  0  0
    0.8490   -2.5280   -7.0270 C   0  0  0  0  0  0  0  0  0  0  0  0
    1.9120   -3.1730   -7.6700 C   0  0  0  0  0  3  0  0  0  0  0  0
    2.8860   -3.7960   -6.8680 C   0  0  0  0  0  0  0  0  0  0  0  0
   -0.2110   -1.8650   -7.8060 C   0  0  0  0  0  0  0  0  0  0  0  0
   -0.2350   -0.6470   -7.9080 O   0  0  0  0  0  0  0  0  0  0  0  0
   -1.2790   -2.6380   -8.2870 N   0  0  0  0  0  0  0  0  0  0  0  0
   -1.2260   -4.1870   -8.8530 S   0  0  0  0  0  0  0  0  0  0  0  0
   -2.5710   -4.5340   -9.2470 O   0  0  0  0  0  0  0  0  0  0  0  0
   -0.1290   -4.2710   -9.7850 O   0  0  0  0  0  0  0  0  0  0  0  0
   -0.8470   -5.0500   -7.4650 N   0  0  0  0  0  0  0  0  0  0  0  0
   -1.8900   -5.1360   -6.4310 C   0  0  0  0  0  1  0  0  0  0  0  0
   -0.0370   -6.2810   -7.6330 C   0  0  0  0  0  2  0  0  0  0  0  0
   -0.7630   -7.3780   -8.4090 C   0  0  0  0  0  2  0  0  0  0  0  0
   -0.0170   -8.7190   -8.4270 C   0  0  0  0  0  2  0  0  0  0  0  0
    1.2430   -8.7400   -9.2930 C   0  0  0  0  0  2  0  0  0  0  0  0
    2.3620   -8.0710   -8.6650 N   0  0  0  0  0  0  0  0  0  0  0  0
    3.1800   -7.2090   -9.3560 C   0  0  0  0  0  0  0  0  0  0  0  0
    3.0450   -6.8980  -10.5310 O   0  0  0  0  0  0  0  0  0  0  0  0
   -1.9410   -2.0850   -8.8260 H   0  0  0  0  0  0  0  0  0  0  0  0
    2.5750   -8.2800   -7.6970 H   0  0  0  0  0  0  0  0  0  0  0  0
    4.3250   -4.7240   -3.5160 C   0  0  0  0  0  3  0  0  0  0  0  0
    4.5900   -3.4290   -2.7300 C   0  0  0  0  0  2  0  0  0  0  0  0
    4.9590   -3.7210   -1.2780 C   0  0  0  0  0  2  0  0  0  0  0  0
    3.9070   -4.5870   -0.5910 C   0  0  0  0  0  2  0  0  0  0  0  0
    3.6510   -5.8800   -1.3630 C   0  0  0  0  0  2  0  0  0  0  0  0
    3.2720   -5.6010   -2.8170 C   0  0  0  0  0  2  0  0  0  0  0  0
    9.7500   -8.5510   -7.4880 C   0  0  0  0  0  1  0  0  0  0  0  0
    9.5800   -7.8030   -6.2910 O   0  0  0  0  0  0  0  0  0  0  0  0
  1  2  1  0  0  0  0
  2  3  2  0  0  0  0
  4 11  1  0  0  0  0
  4  3  1  0  0  0  0
  5  6  1  0  0  0  0
  5  4  2  0  0  0  0
  6  1  2  0  0  0  0
  7  5  1  0  0  0  0
  8  7  2  0  0  0  0
  9  8  1  0  0  0  0
  9 10  1  0  0  0  0
 10 18  1  0  0  0  0
 10 11  1  0  0  0  0
 11 12  2  0  0  0  0
 12 36  1  0  0  0  0
 13 12  1  0  0  0  0
 13 14  1  0  0  0  0
 15 14  2  0  0  0  0
 16 15  1  0  0  0  0
 17 16  2  0  0  0  0
 17 18  1  0  0  0  0
 18 13  2  0  0  0  0
 19 16  1  0  0  0  0
 20 19  2  0  0  0  0
 21 19  1  0  0  0  0
 22 21  1  0  0  0  0
 22 25  1  0  0  0  0
 23 22  2  0  0  0  0
 24 22  2  0  0  0  0
 25 26  1  0  0  0  0
 27 25  1  0  0  0  0
 28 27  1  0  0  0  0
 29 28  1  0  0  0  0
 30 31  1  0  0  0  0
 30 29  1  0  0  0  0
 31 35  1  0  0  0  0
 32 31  1  0  0  0  0
 32  8  1  0  0  0  0
 33 32  2  0  0  0  0
 34 21  1  0  0  0  0
 36 41  1  0  0  0  0
 36 37  1  0  0  0  0
 37 38  1  0  0  0  0
 38 39  1  0  0  0  0
 40 39  1  0  0  0  0
 41 40  1  0  0  0  0
 42 43  1  0  0  0  0
 43  1  1  0  0  0  0
M  END
>  <minimizedAffinity>
-4.97666359

$$$$

 OpenBabel09082221153D

 43 48  0  0  0  0  0  0  0  0999 V2000
    8.4480   -7.6180   -6.6510 C   0  0  0  0  0  0  0  0  0  0  0  0
    8.6640   -6.8250   -5.5290 C   0  0  0  0  0  3  0  0  0  0  0  0
    7.6180   -6.0630   -4.9990 C   0  0  0  0  0  3  0  0  0  0  0  0
    6.3350   -6.0830   -5.5690 C   0  0  0  0  0  0  0  0  0  0  0  0
    6.1270   -6.8550   -6.7340 C   0  0  0  0  0  0  0  0  0  0  0  0
    7.1830   -7.6280   -7.2450 C   0  0  0  0  0  3  0  0  0  0  0  0
    4.8440   -6.9140   -7.4580 C   0  0  0  0  0  3  0  0  0  0  0  0
    4.0600   -5.8340   -7.6320 C   0  0  0  0  0  0  0  0  0  0  0  0
    4.3820   -4.4540   -7.1380 C   0  0  0  0  0  2  0  0  0  0  0  0
    4.4250   -4.4560   -5.6760 N   0  0  0  0  0  0  0  0  0  0  0  0
    5.2660   -5.2770   -4.9400 C   0  0  0  0  0  0  0  0  0  0  0  0
    4.8460   -5.2050   -3.6110 C   0  0  0  0  0  0  0  0  0  0  0  0
    3.8040   -4.2130   -3.5500 C   0  0  0  0  0  0  0  0  0  0  0  0
    3.0230   -3.6740   -2.5010 C   0  0  0  0  0  3  0  0  0  0  0  0
    2.0450   -2.7140   -2.7710 C   0  0  0  0  0  3  0  0  0  0  0  0
    1.8320   -2.2860   -4.0790 C   0  0  0  0  0  0  0  0  0  0  0  0
    2.6240   -2.7550   -5.1340 C   0  0  0  0  0  3  0  0  0  0  0  0
    3.5830   -3.7450   -4.8470 C   0  0  0  0  0  0  0  0  0  0  0  0
    0.8020   -1.2580   -4.3110 C   0  0  0  0  0  0  0  0  0  0  0  0
    0.9960   -0.1000   -3.9750 O   0  0  0  0  0  0  0  0  0  0  0  0
   -0.4620   -1.6610   -4.7700 N   0  0  0  0  0  0  0  0  0  0  0  0
   -0.8070   -2.8740   -5.8340 S   0  0  0  0  0  0  0  0  0  0  0  0
   -2.2410   -2.8870   -6.0010 O   0  0  0  0  0  0  0  0  0  0  0  0
    0.0760   -2.7240   -6.9640 O   0  0  0  0  0  0  0  0  0  0  0  0
   -0.3680   -4.2370   -4.9610 N   0  0  0  0  0  0  0  0  0  0  0  0
   -1.2130   -4.5900   -3.8090 C   0  0  0  0  0  1  0  0  0  0  0  0
    0.1480   -5.3970   -5.7290 C   0  0  0  0  0  2  0  0  0  0  0  0
   -0.8990   -6.0250   -6.6470 C   0  0  0  0  0  2  0  0  0  0  0  0
   -0.4400   -7.3350   -7.3010 C   0  0  0  0  0  2  0  0  0  0  0  0
    0.6230   -7.1700   -8.3880 C   0  0  0  0  0  2  0  0  0  0  0  0
    1.9420   -6.9240   -7.8440 N   0  0  0  0  0  0  0  0  0  0  0  0
    2.7790   -5.9650   -8.3620 C   0  0  0  0  0  0  0  0  0  0  0  0
    2.5060   -5.2170   -9.2900 O   0  0  0  0  0  0  0  0  0  0  0  0
   -1.0870   -0.8730   -4.9140 H   0  0  0  0  0  0  0  0  0  0  0  0
    2.2740   -7.5080   -7.0860 H   0  0  0  0  0  0  0  0  0  0  0  0
    5.3720   -6.0370   -2.4570 C   0  0  0  0  0  3  0  0  0  0  0  0
    6.0400   -5.1810   -1.3690 C   0  0  0  0  0  2  0  0  0  0  0  0
    6.5900   -6.0450   -0.2360 C   0  0  0  0  0  2  0  0  0  0  0  0
    5.5170   -6.9570    0.3500 C   0  0  0  0  0  2  0  0  0  0  0  0
    4.8600   -7.8170   -0.7270 C   0  0  0  0  0  2  0  0  0  0  0  0
    4.2980   -6.9640   -1.8630 C   0  0  0  0  0  2  0  0  0  0  0  0
   10.7430   -8.0960   -7.0470 C   0  0  0  0  0  1  0  0  0  0  0  0
    9.3750   -8.4140   -7.2650 O   0  0  0  0  0  0  0  0  0  0  0  0
  1  2  1  0  0  0  0
  2  3  2  0  0  0  0
  4  3  1  0  0  0  0
  4 11  1  0  0  0  0
  5  4  2  0  0  0  0
  6  5  1  0  0  0  0
  6  1  2  0  0  0  0
  7  5  1  0  0  0  0
  8  7  2  0  0  0  0
  8  9  1  0  0  0  0
  9 10  1  0  0  0  0
 10 11  1  0  0  0  0
 10 18  1  0  0  0  0
 11 12  2  0  0  0  0
 12 13  1  0  0  0  0
 12 36  1  0  0  0  0
 13 14  1  0  0  0  0
 15 14  2  0  0  0  0
 16 15  1  0  0  0  0
 17 18  1  0  0  0  0
 17 16  2  0  0  0  0
 18 13  2  0  0  0  0
 19 16  1  0  0  0  0
 19 20  2  0  0  0  0
 21 19  1  0  0  0  0
 22 25  1  0  0  0  0
 22 21  1  0  0  0  0
 23 22  2  0  0  0  0
 24 22  2  0  0  0  0
 25 26  1  0  0  0  0
 27 25  1  0  0  0  0
 28 27  1  0  0  0  0
 29 28  1  0  0  0  0
 30 31  1  0  0  0  0
 30 29  1  0  0  0  0
 31 35  1  0  0  0  0
 32 31  1  0  0  0  0
 32  8  1  0  0  0  0
 33 32  2  0  0  0  0
 34 21  1  0  0  0  0
 36 41  1  0  0  0  0
 36 37  1  0  0  0  0
 37 38  1  0  0  0  0
 38 39  1  0  0  0  0
 40 39  1  0  0  0  0
 41 40  1  0  0  0  0
 43 42  1  0  0  0  0
 43  1  1  0  0  0  0
M  END
>  <minimizedAffinity>
-4.93877125

$$$$

 OpenBabel09082221153D

 43 48  0  0  0  0  0  0  0  0999 V2000
    6.3340   -5.2430    0.6640 C   0  0  0  0  0  0  0  0  0  0  0  0
    5.2540   -4.4600    1.0560 C   0  0  0  0  0  3  0  0  0  0  0  0
    4.3190   -4.0310    0.1080 C   0  0  0  0  0  3  0  0  0  0  0  0
    4.4370   -4.3800   -1.2470 C   0  0  0  0  0  0  0  0  0  0  0  0
    5.5570   -5.1390   -1.6530 C   0  0  0  0  0  0  0  0  0  0  0  0
    6.4790   -5.5770   -0.6860 C   0  0  0  0  0  3  0  0  0  0  0  0
    5.8250   -5.5200   -3.0510 C   0  0  0  0  0  3  0  0  0  0  0  0
    5.5950   -4.6890   -4.0850 C   0  0  0  0  0  0  0  0  0  0  0  0
    5.0630   -3.2920   -3.9580 C   0  0  0  0  0  2  0  0  0  0  0  0
    3.7080   -3.3330   -3.4090 N   0  0  0  0  0  0  0  0  0  0  0  0
    3.3970   -3.9180   -2.1920 C   0  0  0  0  0  0  0  0  0  0  0  0
    2.0050   -4.0100   -2.1270 C   0  0  0  0  0  0  0  0  0  0  0  0
    1.4830   -3.3410   -3.2900 C   0  0  0  0  0  0  0  0  0  0  0  0
    0.1770   -3.0730   -3.7630 C   0  0  0  0  0  3  0  0  0  0  0  0
   -0.0100   -2.4070   -4.9770 C   0  0  0  0  0  3  0  0  0  0  0  0
    1.0920   -2.0070   -5.7300 C   0  0  0  0  0  0  0  0  0  0  0  0
    2.3980   -2.2070   -5.2660 C   0  0  0  0  0  3  0  0  0  0  0  0
    2.5670   -2.9070   -4.0560 C   0  0  0  0  0  0  0  0  0  0  0  0
    0.8430   -1.2920   -6.9930 C   0  0  0  0  0  0  0  0  0  0  0  0
    0.4460   -0.1370   -6.9840 O   0  0  0  0  0  0  0  0  0  0  0  0
    0.9110   -2.0090   -8.1990 N   0  0  0  0  0  0  0  0  0  0  0  0
    1.9480   -3.2320   -8.5860 S   0  0  0  0  0  0  0  0  0  0  0  0
    1.6380   -3.6300   -9.9380 O   0  0  0  0  0  0  0  0  0  0  0  0
    3.2760   -2.8080   -8.2180 O   0  0  0  0  0  0  0  0  0  0  0  0
    1.4460   -4.4530   -7.5520 N   0  0  0  0  0  0  0  0  0  0  0  0
    0.1350   -5.0620   -7.8300 C   0  0  0  0  0  1  0  0  0  0  0  0
    2.4800   -5.4010   -7.0690 C   0  0  0  0  0  2  0  0  0  0  0  0
    3.0770   -6.2580   -8.1840 C   0  0  0  0  0  2  0  0  0  0  0  0
    4.0050   -7.3700   -7.6770 C   0  0  0  0  0  2  0  0  0  0  0  0
    5.3490   -6.8850   -7.1330 C   0  0  0  0  0  2  0  0  0  0  0  0
    5.2400   -6.3070   -5.8100 N   0  0  0  0  0  0  0  0  0  0  0  0
    5.8770   -5.1390   -5.4670 C   0  0  0  0  0  0  0  0  0  0  0  0
    6.5630   -4.4630   -6.2190 O   0  0  0  0  0  0  0  0  0  0  0  0
    0.7420   -1.4160   -9.0080 H   0  0  0  0  0  0  0  0  0  0  0  0
    4.7120   -6.8050   -5.1030 H   0  0  0  0  0  0  0  0  0  0  0  0
    1.2020   -4.7060   -1.0460 C   0  0  0  0  0  3  0  0  0  0  0  0
    0.3400   -3.7290   -0.2290 C   0  0  0  0  0  2  0  0  0  0  0  0
   -0.4330   -4.4500    0.8730 C   0  0  0  0  0  2  0  0  0  0  0  0
   -1.2660   -5.6010    0.3170 C   0  0  0  0  0  2  0  0  0  0  0  0
   -0.4110   -6.5800   -0.4850 C   0  0  0  0  0  2  0  0  0  0  0  0
    0.3620   -5.8710   -1.5960 C   0  0  0  0  0  2  0  0  0  0  0  0
    7.5690   -7.1310    1.4120 C   0  0  0  0  0  1  0  0  0  0  0  0
    7.3130   -5.7340    1.4820 O   0  0  0  0  0  0  0  0  0  0  0  0
  1  2  1  0  0  0  0
  1 43  1  0  0  0  0
  3  2  2  0  0  0  0
  4  3  1  0  0  0  0
  5  4  2  0  0  0  0
  5  6  1  0  0  0  0
  6  1  2  0  0  0  0
  7  5  1  0  0  0  0
  8  9  1  0  0  0  0
  8  7  2  0  0  0  0
  9 10  1  0  0  0  0
 10 11  1  0  0  0  0
 11 12  2  0  0  0  0
 11  4  1  0  0  0  0
 12 36  1  0  0  0  0
 13 12  1  0  0  0  0
 14 13  1  0  0  0  0
 15 14  2  0  0  0  0
 16 17  2  0  0  0  0
 16 15  1  0  0  0  0
 17 18  1  0  0  0  0
 18 10  1  0  0  0  0
 18 13  2  0  0  0  0
 19 20  2  0  0  0  0
 19 16  1  0  0  0  0
 21 19  1  0  0  0  0
 22 24  2  0  0  0  0
 22 21  1  0  0  0  0
 22 25  1  0  0  0  0
 23 22  2  0  0  0  0
 25 27  1  0  0  0  0
 26 25  1  0  0  0  0
 28 29  1  0  0  0  0
 28 27  1  0  0  0  0
 29 30  1  0  0  0  0
 30 31  1  0  0  0  0
 31 32  1  0  0  0  0
 31 35  1  0  0  0  0
 32  8  1  0  0  0  0
 33 32  2  0  0  0  0
 34 21  1  0  0  0  0
 36 37  1  0  0  0  0
 37 38  1  0  0  0  0
 39 38  1  0  0  0  0
 40 39  1  0  0  0  0
 41 36  1  0  0  0  0
 41 40  1  0  0  0  0
 42 43  1  0  0  0  0
M  END
>  <minimizedAffinity>
-4.9138546

$$$$

 OpenBabel09082221153D

 43 48  0  0  0  0  0  0  0  0999 V2000
    5.9660   -5.2320    0.8990 C   0  0  0  0  0  0  0  0  0  0  0  0
    4.6660   -4.7510    1.0140 C   0  0  0  0  0  3  0  0  0  0  0  0
    3.8790   -4.5810   -0.1300 C   0  0  0  0  0  3  0  0  0  0  0  0
    4.3670   -4.8960   -1.4080 C   0  0  0  0  0  0  0  0  0  0  0  0
    5.7020   -5.3420   -1.5290 C   0  0  0  0  0  0  0  0  0  0  0  0
    6.4750   -5.5240   -0.3690 C   0  0  0  0  0  3  0  0  0  0  0  0
    6.3490   -5.6490   -2.8180 C   0  0  0  0  0  3  0  0  0  0  0  0
    6.1450   -4.9110   -3.9240 C   0  0  0  0  0  0  0  0  0  0  0  0
    5.2650   -3.6970   -3.9930 C   0  0  0  0  0  2  0  0  0  0  0  0
    3.8790   -4.0820   -3.7330 N   0  0  0  0  0  0  0  0  0  0  0  0
    3.4720   -4.7220   -2.5720 C   0  0  0  0  0  0  0  0  0  0  0  0
    2.1660   -5.1680   -2.7890 C   0  0  0  0  0  0  0  0  0  0  0  0
    1.7550   -4.6620   -4.0730 C   0  0  0  0  0  0  0  0  0  0  0  0
    0.5550   -4.7410   -4.8190 C   0  0  0  0  0  3  0  0  0  0  0  0
    0.4710   -4.1520   -6.0830 C   0  0  0  0  0  3  0  0  0  0  0  0
    1.5730   -3.4870   -6.6160 C   0  0  0  0  0  0  0  0  0  0  0  0
    2.7560   -3.3410   -5.8830 C   0  0  0  0  0  3  0  0  0  0  0  0
    2.8330   -3.9680   -4.6250 C   0  0  0  0  0  0  0  0  0  0  0  0
    1.4290   -2.8660   -7.9440 C   0  0  0  0  0  0  0  0  0  0  0  0
    0.7620   -1.8520   -8.0850 O   0  0  0  0  0  0  0  0  0  0  0  0
    1.9300   -3.5470   -9.0650 N   0  0  0  0  0  0  0  0  0  0  0  0
    3.2990   -4.4640   -9.1570 S   0  0  0  0  0  0  0  0  0  0  0  0
    3.3940   -4.9350  -10.5180 O   0  0  0  0  0  0  0  0  0  0  0  0
    4.3670   -3.7110   -8.5500 O   0  0  0  0  0  0  0  0  0  0  0  0
    2.9090   -5.7680   -8.1770 N   0  0  0  0  0  0  0  0  0  0  0  0
    1.8830   -6.6950   -8.6810 C   0  0  0  0  0  1  0  0  0  0  0  0
    4.0190   -6.4150   -7.4370 C   0  0  0  0  0  2  0  0  0  0  0  0
    5.0360   -7.0960   -8.3510 C   0  0  0  0  0  2  0  0  0  0  0  0
    6.0830   -7.9290   -7.5990 C   0  0  0  0  0  2  0  0  0  0  0  0
    7.1140   -7.1110   -6.8210 C   0  0  0  0  0  2  0  0  0  0  0  0
    6.5830   -6.5740   -5.5860 N   0  0  0  0  0  0  0  0  0  0  0  0
    6.8190   -5.2800   -5.1900 C   0  0  0  0  0  0  0  0  0  0  0  0
    7.4580   -4.4530   -5.8240 O   0  0  0  0  0  0  0  0  0  0  0  0
    1.7950   -3.0210   -9.9250 H   0  0  0  0  0  0  0  0  0  0  0  0
    6.0580   -7.1870   -4.9730 H   0  0  0  0  0  0  0  0  0  0  0  0
    1.3510   -6.0420   -1.8560 C   0  0  0  0  0  3  0  0  0  0  0  0
    0.1190   -5.3140   -1.2920 C   0  0  0  0  0  2  0  0  0  0  0  0
   -0.6650   -6.2050   -0.3310 C   0  0  0  0  0  2  0  0  0  0  0  0
   -1.0480   -7.5330   -0.9770 C   0  0  0  0  0  2  0  0  0  0  0  0
    0.1740   -8.2630   -1.5280 C   0  0  0  0  0  2  0  0  0  0  0  0
    0.9640   -7.3860   -2.4980 C   0  0  0  0  0  2  0  0  0  0  0  0
    7.4080   -6.7500    2.0250 C   0  0  0  0  0  1  0  0  0  0  0  0
    6.8380   -5.4500    1.9290 O   0  0  0  0  0  0  0  0  0  0  0  0
  1  2  1  0  0  0  0
  1 43  1  0  0  0  0
  3  2  2  0  0  0  0
  4  3  1  0  0  0  0
  5  4  2  0  0  0  0
  5  6  1  0  0  0  0
  6  1  2  0  0  0  0
  7  5  1  0  0  0  0
  8  7  2  0  0  0  0
  9  8  1  0  0  0  0
  9 10  1  0  0  0  0
 10 11  1  0  0  0  0
 11  4  1  0  0  0  0
 12 11  2  0  0  0  0
 12 36  1  0  0  0  0
 13 12  1  0  0  0  0
 14 13  2  0  0  0  0
 15 14  1  0  0  0  0
 16 15  2  0  0  0  0
 16 17  1  0  0  0  0
 17 18  2  0  0  0  0
 18 13  1  0  0  0  0
 18 10  1  0  0  0  0
 19 16  1  0  0  0  0
 20 19  2  0  0  0  0
 21 19  1  0  0  0  0
 22 21  1  0  0  0  0
 22 24  2  0  0  0  0
 22 25  1  0  0  0  0
 23 22  2  0  0  0  0
 25 27  1  0  0  0  0
 26 25  1  0  0  0  0
 28 29  1  0  0  0  0
 28 27  1  0  0  0  0
 29 30  1  0  0  0  0
 30 31  1  0  0  0  0
 31 32  1  0  0  0  0
 31 35  1  0  0  0  0
 32  8  1  0  0  0  0
 33 32  2  0  0  0  0
 34 21  1  0  0  0  0
 36 37  1  0  0  0  0
 37 38  1  0  0  0  0
 39 38  1  0  0  0  0
 40 39  1  0  0  0  0
 41 36  1  0  0  0  0
 41 40  1  0  0  0  0
 43 42  1  0  0  0  0
M  END
>  <minimizedAffinity>
-4.90888882

$$$$

 OpenBabel09082221153D

 43 48  0  0  0  0  0  0  0  0999 V2000
    3.5980   -5.7320  -12.6630 C   0  0  0  0  0  0  0  0  0  0  0  0
    4.5190   -5.6630  -11.6230 C   0  0  0  0  0  3  0  0  0  0  0  0
    4.2090   -4.9480  -10.4610 C   0  0  0  0  0  3  0  0  0  0  0  0
    2.9750   -4.2970  -10.3090 C   0  0  0  0  0  0  0  0  0  0  0  0
    2.0580   -4.3300  -11.3820 C   0  0  0  0  0  0  0  0  0  0  0  0
    2.3760   -5.0670  -12.5370 C   0  0  0  0  0  3  0  0  0  0  0  0
    0.7550   -3.6400  -11.3690 C   0  0  0  0  0  3  0  0  0  0  0  0
    0.5900   -2.4180  -10.8290 C   0  0  0  0  0  0  0  0  0  0  0  0
    1.6820   -1.6060  -10.1970 C   0  0  0  0  0  2  0  0  0  0  0  0
    2.1830   -2.2990   -9.0100 N   0  0  0  0  0  0  0  0  0  0  0  0
    2.7000   -3.5840   -9.0420 C   0  0  0  0  0  0  0  0  0  0  0  0
    2.8180   -4.0090   -7.7170 C   0  0  0  0  0  0  0  0  0  0  0  0
    2.4750   -2.8870   -6.8820 C   0  0  0  0  0  0  0  0  0  0  0  0
    2.4380   -2.6820   -5.4830 C   0  0  0  0  0  3  0  0  0  0  0  0
    2.0250   -1.4530   -4.9610 C   0  0  0  0  0  3  0  0  0  0  0  0
    1.6440   -0.4250   -5.8190 C   0  0  0  0  0  0  0  0  0  0  0  0
    1.7210   -0.5740   -7.2090 C   0  0  0  0  0  3  0  0  0  0  0  0
    2.1090   -1.8290   -7.7170 C   0  0  0  0  0  0  0  0  0  0  0  0
    1.2330    0.8570   -5.2220 C   0  0  0  0  0  0  0  0  0  0  0  0
    2.0630    1.6000   -4.7190 O   0  0  0  0  0  0  0  0  0  0  0  0
   -0.1370    1.1340   -5.0930 N   0  0  0  0  0  0  0  0  0  0  0  0
   -1.3480    0.7320   -6.1380 S   0  0  0  0  0  0  0  0  0  0  0  0
   -2.5730    1.2500   -5.5770 O   0  0  0  0  0  0  0  0  0  0  0  0
   -0.9180    1.1030   -7.4640 O   0  0  0  0  0  0  0  0  0  0  0  0
   -1.3780   -0.9400   -6.0080 N   0  0  0  0  0  0  0  0  0  0  0  0
   -1.8690   -1.4990   -4.7390 C   0  0  0  0  0  1  0  0  0  0  0  0
   -1.7690   -1.7070   -7.2170 C   0  0  0  0  0  2  0  0  0  0  0  0
   -3.2190   -1.4710   -7.6350 C   0  0  0  0  0  2  0  0  0  0  0  0
   -3.6940   -2.3970   -8.7640 C   0  0  0  0  0  2  0  0  0  0  0  0
   -3.0960   -2.0920  -10.1370 C   0  0  0  0  0  2  0  0  0  0  0  0
   -1.7310   -2.5550  -10.2670 N   0  0  0  0  0  0  0  0  0  0  0  0
   -0.7480   -1.7840  -10.8400 C   0  0  0  0  0  0  0  0  0  0  0  0
   -0.9010   -0.6490  -11.2670 O   0  0  0  0  0  0  0  0  0  0  0  0
   -0.3060    2.0510   -4.6870 H   0  0  0  0  0  0  0  0  0  0  0  0
   -1.5040   -3.4950   -9.9650 H   0  0  0  0  0  0  0  0  0  0  0  0
    3.2080   -5.3980   -7.2520 C   0  0  0  0  0  3  0  0  0  0  0  0
    4.5990   -5.4330   -6.5970 C   0  0  0  0  0  2  0  0  0  0  0  0
    4.9810   -6.8480   -6.1680 C   0  0  0  0  0  2  0  0  0  0  0  0
    3.9210   -7.4680   -5.2620 C   0  0  0  0  0  2  0  0  0  0  0  0
    2.5410   -7.4460   -5.9150 C   0  0  0  0  0  2  0  0  0  0  0  0
    2.1430   -6.0340   -6.3420 C   0  0  0  0  0  2  0  0  0  0  0  0
    4.8390   -5.9710  -14.6770 C   0  0  0  0  0  1  0  0  0  0  0  0
    3.7670   -6.3980  -13.8460 O   0  0  0  0  0  0  0  0  0  0  0  0
  1  6  2  0  0  0  0
  1  2  1  0  0  0  0
  2  3  2  0  0  0  0
  3  4  1  0  0  0  0
  4 11  1  0  0  0  0
  5  7  1  0  0  0  0
  5  4  2  0  0  0  0
  6  5  1  0  0  0  0
  7  8  2  0  0  0  0
  8  9  1  0  0  0  0
  9 10  1  0  0  0  0
 10 18  1  0  0  0  0
 11 10  1  0  0  0  0
 11 12  2  0  0  0  0
 12 36  1  0  0  0  0
 12 13  1  0  0  0  0
 13 14  1  0  0  0  0
 14 15  2  0  0  0  0
 16 19  1  0  0  0  0
 16 15  1  0  0  0  0
 17 16  2  0  0  0  0
 18 17  1  0  0  0  0
 18 13  2  0  0  0  0
 19 21  1  0  0  0  0
 19 20  2  0  0  0  0
 21 34  1  0  0  0  0
 22 25  1  0  0  0  0
 22 23  2  0  0  0  0
 22 21  1  0  0  0  0
 24 22  2  0  0  0  0
 25 26  1  0  0  0  0
 27 25  1  0  0  0  0
 28 27  1  0  0  0  0
 29 28  1  0  0  0  0
 30 29  1  0  0  0  0
 31 30  1  0  0  0  0
 31 35  1  0  0  0  0
 32  8  1  0  0  0  0
 32 31  1  0  0  0  0
 33 32  2  0  0  0  0
 36 37  1  0  0  0  0
 36 41  1  0  0  0  0
 37 38  1  0  0  0  0
 38 39  1  0  0  0  0
 40 39  1  0  0  0  0
 41 40  1  0  0  0  0
 42 43  1  0  0  0  0
 43  1  1  0  0  0  0
M  END
>  <minimizedAffinity>
-4.89926624

$$$$

 OpenBabel09082221153D

 43 48  0  0  0  0  0  0  0  0999 V2000
   -0.2620   -0.7210   -2.7160 C   0  0  0  0  0  0  0  0  0  0  0  0
    0.2850   -0.4670   -3.9700 C   0  0  0  0  0  3  0  0  0  0  0  0
    1.3150   -1.2770   -4.4600 C   0  0  0  0  0  3  0  0  0  0  0  0
    1.8130   -2.3600   -3.7160 C   0  0  0  0  0  0  0  0  0  0  0  0
    1.2870   -2.5900   -2.4260 C   0  0  0  0  0  0  0  0  0  0  0  0
    0.2410   -1.7780   -1.9540 C   0  0  0  0  0  3  0  0  0  0  0  0
    1.7640   -3.6560   -1.5260 C   0  0  0  0  0  3  0  0  0  0  0  0
    3.0650   -3.9840   -1.4180 C   0  0  0  0  0  0  0  0  0  0  0  0
    4.1810   -3.3170   -2.1670 C   0  0  0  0  0  2  0  0  0  0  0  0
    4.0180   -3.5550   -3.6010 N   0  0  0  0  0  0  0  0  0  0  0  0
    2.8810   -3.1940   -4.3070 C   0  0  0  0  0  0  0  0  0  0  0  0
    2.9660   -3.8100   -5.5580 C   0  0  0  0  0  0  0  0  0  0  0  0
    4.2540   -4.4500   -5.6270 C   0  0  0  0  0  0  0  0  0  0  0  0
    4.9290   -5.1880   -6.6270 C   0  0  0  0  0  3  0  0  0  0  0  0
    6.1980   -5.7170   -6.3770 C   0  0  0  0  0  3  0  0  0  0  0  0
    6.8030   -5.5210   -5.1380 C   0  0  0  0  0  0  0  0  0  0  0  0
    6.1880   -4.7490   -4.1450 C   0  0  0  0  0  3  0  0  0  0  0  0
    4.8970   -4.2500   -4.4030 C   0  0  0  0  0  0  0  0  0  0  0  0
    8.1480   -6.0830   -4.9290 C   0  0  0  0  0  0  0  0  0  0  0  0
    9.1210   -5.5780   -5.4690 O   0  0  0  0  0  0  0  0  0  0  0  0
    8.2730   -7.2970   -4.2350 N   0  0  0  0  0  0  0  0  0  0  0  0
    7.3770   -7.8210   -2.9530 S   0  0  0  0  0  0  0  0  0  0  0  0
    7.8950   -9.1170   -2.5830 O   0  0  0  0  0  0  0  0  0  0  0  0
    7.3130   -6.7420   -1.9990 O   0  0  0  0  0  0  0  0  0  0  0  0
    5.8680   -8.0400   -3.6500 N   0  0  0  0  0  0  0  0  0  0  0  0
    5.7290   -9.1560   -4.5980 C   0  0  0  0  0  1  0  0  0  0  0  0
    4.6830   -7.8070   -2.7880 C   0  0  0  0  0  2  0  0  0  0  0  0
    4.5670   -8.8100   -1.6420 C   0  0  0  0  0  2  0  0  0  0  0  0
    3.2520   -8.7020   -0.8580 C   0  0  0  0  0  2  0  0  0  0  0  0
    3.1310   -7.4600    0.0250 C   0  0  0  0  0  2  0  0  0  0  0  0
    2.8330   -6.2640   -0.7330 N   0  0  0  0  0  0  0  0  0  0  0  0
    3.4750   -5.0710   -0.5010 C   0  0  0  0  0  0  0  0  0  0  0  0
    4.3590   -4.8950    0.3250 O   0  0  0  0  0  0  0  0  0  0  0  0
    9.2440   -7.5820   -4.1320 H   0  0  0  0  0  0  0  0  0  0  0  0
    2.0960   -6.2970   -1.4280 H   0  0  0  0  0  0  0  0  0  0  0  0
    1.8900   -3.8230   -6.6260 C   0  0  0  0  0  3  0  0  0  0  0  0
    2.2910   -3.0230   -7.8770 C   0  0  0  0  0  2  0  0  0  0  0  0
    1.1780   -3.0240   -8.9230 C   0  0  0  0  0  2  0  0  0  0  0  0
    0.7420   -4.4420   -9.2810 C   0  0  0  0  0  2  0  0  0  0  0  0
    0.3320   -5.2350   -8.0420 C   0  0  0  0  0  2  0  0  0  0  0  0
    1.4400   -5.2490   -6.9910 C   0  0  0  0  0  2  0  0  0  0  0  0
   -0.9430    0.7060   -0.9410 C   0  0  0  0  0  1  0  0  0  0  0  0
   -1.2710   -0.0160   -2.1200 O   0  0  0  0  0  0  0  0  0  0  0  0
  1 43  1  0  0  0  0
  1  6  1  0  0  0  0
  2  1  2  0  0  0  0
  3  2  1  0  0  0  0
  3  4  2  0  0  0  0
  4  5  1  0  0  0  0
  5  6  2  0  0  0  0
  5  7  1  0  0  0  0
  7  8  2  0  0  0  0
  8 32  1  0  0  0  0
  9  8  1  0  0  0  0
 10  9  1  0  0  0  0
 11  4  1  0  0  0  0
 11 10  1  0  0  0  0
 12 11  2  0  0  0  0
 13 12  1  0  0  0  0
 13 18  1  0  0  0  0
 14 15  1  0  0  0  0
 14 13  2  0  0  0  0
 15 16  2  0  0  0  0
 16 19  1  0  0  0  0
 16 17  1  0  0  0  0
 18 17  2  0  0  0  0
 18 10  1  0  0  0  0
 19 21  1  0  0  0  0
 20 19  2  0  0  0  0
 21 34  1  0  0  0  0
 21 22  1  0  0  0  0
 22 23  2  0  0  0  0
 22 24  2  0  0  0  0
 25 22  1  0  0  0  0
 25 27  1  0  0  0  0
 26 25  1  0  0  0  0
 27 28  1  0  0  0  0
 28 29  1  0  0  0  0
 29 30  1  0  0  0  0
 31 32  1  0  0  0  0
 31 30  1  0  0  0  0
 32 33  2  0  0  0  0
 35 31  1  0  0  0  0
 36 12  1  0  0  0  0
 37 36  1  0  0  0  0
 38 37  1  0  0  0  0
 39 38  1  0  0  0  0
 39 40  1  0  0  0  0
 40 41  1  0  0  0  0
 41 36  1  0  0  0  0
 43 42  1  0  0  0  0
M  END
>  <minimizedAffinity>
-4.86326933

$$$$

 OpenBabel09082221153D

 43 48  0  0  0  0  0  0  0  0999 V2000
    1.0830    1.3180   -5.0900 C   0  0  0  0  0  0  0  0  0  0  0  0
    0.8320   -0.0500   -5.1250 C   0  0  0  0  0  3  0  0  0  0  0  0
    0.6150   -0.6890   -6.3500 C   0  0  0  0  0  3  0  0  0  0  0  0
    0.6520    0.0180   -7.5630 C   0  0  0  0  0  0  0  0  0  0  0  0
    0.8630    1.4140   -7.5240 C   0  0  0  0  0  0  0  0  0  0  0  0
    1.0970    2.0400   -6.2870 C   0  0  0  0  0  3  0  0  0  0  0  0
    0.8670    2.2750   -8.7200 C   0  0  0  0  0  3  0  0  0  0  0  0
    0.0090    2.0980   -9.7420 C   0  0  0  0  0  0  0  0  0  0  0  0
   -1.0500    1.0370   -9.7970 C   0  0  0  0  0  2  0  0  0  0  0  0
   -0.4200   -0.2830   -9.8140 N   0  0  0  0  0  0  0  0  0  0  0  0
    0.4440   -0.7260   -8.8240 C   0  0  0  0  0  0  0  0  0  0  0  0
    1.0480   -1.8910   -9.3030 C   0  0  0  0  0  0  0  0  0  0  0  0
    0.4230   -2.2040  -10.5620 C   0  0  0  0  0  0  0  0  0  0  0  0
    0.5730   -3.2570  -11.4940 C   0  0  0  0  0  3  0  0  0  0  0  0
   -0.1810   -3.2690  -12.6710 C   0  0  0  0  0  3  0  0  0  0  0  0
   -1.0820   -2.2390  -12.9310 C   0  0  0  0  0  0  0  0  0  0  0  0
   -1.2960   -1.2120  -12.0050 C   0  0  0  0  0  3  0  0  0  0  0  0
   -0.5060   -1.1990  -10.8400 C   0  0  0  0  0  0  0  0  0  0  0  0
   -1.8680   -2.3060  -14.1750 C   0  0  0  0  0  0  0  0  0  0  0  0
   -2.7760   -3.1150  -14.2920 O   0  0  0  0  0  0  0  0  0  0  0  0
   -1.4510   -1.5440  -15.2780 N   0  0  0  0  0  0  0  0  0  0  0  0
   -0.7810   -0.0360  -15.2650 S   0  0  0  0  0  0  0  0  0  0  0  0
   -0.5430    0.3270  -16.6410 O   0  0  0  0  0  0  0  0  0  0  0  0
   -1.5900    0.7900  -14.4030 O   0  0  0  0  0  0  0  0  0  0  0  0
    0.7010   -0.3210  -14.5340 N   0  0  0  0  0  0  0  0  0  0  0  0
    1.6880   -1.0890  -15.3100 C   0  0  0  0  0  1  0  0  0  0  0  0
    1.2730    0.7740  -13.7120 C   0  0  0  0  0  2  0  0  0  0  0  0
    1.6410    2.0100  -14.5310 C   0  0  0  0  0  2  0  0  0  0  0  0
    2.4070    3.0730  -13.7310 C   0  0  0  0  0  2  0  0  0  0  0  0
    1.5670    3.8280  -12.7000 C   0  0  0  0  0  2  0  0  0  0  0  0
    1.3130    3.0470  -11.5090 N   0  0  0  0  0  0  0  0  0  0  0  0
    0.0730    2.9940  -10.9190 C   0  0  0  0  0  0  0  0  0  0  0  0
   -0.9290    3.5590  -11.3320 O   0  0  0  0  0  0  0  0  0  0  0  0
   -2.0740   -1.6500  -16.0750 H   0  0  0  0  0  0  0  0  0  0  0  0
    2.0860    2.5580  -11.0710 H   0  0  0  0  0  0  0  0  0  0  0  0
    2.1690   -2.6600   -8.6320 C   0  0  0  0  0  3  0  0  0  0  0  0
    1.6730   -3.9370   -7.9340 C   0  0  0  0  0  2  0  0  0  0  0  0
    2.8160   -4.6750   -7.2390 C   0  0  0  0  0  2  0  0  0  0  0  0
    3.9630   -4.9720   -8.2010 C   0  0  0  0  0  2  0  0  0  0  0  0
    4.4660   -3.7030   -8.8860 C   0  0  0  0  0  2  0  0  0  0  0  0
    3.3340   -2.9590   -9.5920 C   0  0  0  0  0  2  0  0  0  0  0  0
    1.6150    3.4420   -4.1650 C   0  0  0  0  0  1  0  0  0  0  0  0
    1.3180    2.0650   -3.9700 O   0  0  0  0  0  0  0  0  0  0  0  0
  1 43  1  0  0  0  0
  2  1  1  0  0  0  0
  3  2  2  0  0  0  0
  4  5  2  0  0  0  0
  4  3  1  0  0  0  0
  5  6  1  0  0  0  0
  6  1  2  0  0  0  0
  7  5  1  0  0  0  0
  8  7  2  0  0  0  0
  9  8  1  0  0  0  0
 10  9  1  0  0  0  0
 10 11  1  0  0  0  0
 11  4  1  0  0  0  0
 12 11  2  0  0  0  0
 12 36  1  0  0  0  0
 13 12  1  0  0  0  0
 14 13  2  0  0  0  0
 15 14  1  0  0  0  0
 16 15  2  0  0  0  0
 16 17  1  0  0  0  0
 17 18  2  0  0  0  0
 18 13  1  0  0  0  0
 18 10  1  0  0  0  0
 19 16  1  0  0  0  0
 20 19  2  0  0  0  0
 21 22  1  0  0  0  0
 21 19  1  0  0  0  0
 22 25  1  0  0  0  0
 22 24  2  0  0  0  0
 23 22  2  0  0  0  0
 25 27  1  0  0  0  0
 26 25  1  0  0  0  0
 28 29  1  0  0  0  0
 28 27  1  0  0  0  0
 29 30  1  0  0  0  0
 30 31  1  0  0  0  0
 31 35  1  0  0  0  0
 31 32  1  0  0  0  0
 32  8  1  0  0  0  0
 33 32  2  0  0  0  0
 34 21  1  0  0  0  0
 36 37  1  0  0  0  0
 37 38  1  0  0  0  0
 39 38  1  0  0  0  0
 40 39  1  0  0  0  0
 41 40  1  0  0  0  0
 41 36  1  0  0  0  0
 42 43  1  0  0  0  0
M  END
>  <minimizedAffinity>
-4.84820509

$$$$
