
 OpenBabel09092210413D

 43 48  0  0  0  0  0  0  0  0999 V2000
    8.4480   -7.6180   -6.6510 C   0  0  0  0  0  0  0  0  0  0  0  0
    8.6640   -6.8250   -5.5290 C   0  0  0  0  0  3  0  0  0  0  0  0
    7.6180   -6.0630   -4.9990 C   0  0  0  0  0  3  0  0  0  0  0  0
    6.3350   -6.0830   -5.5690 C   0  0  0  0  0  0  0  0  0  0  0  0
    6.1270   -6.8550   -6.7340 C   0  0  0  0  0  0  0  0  0  0  0  0
    7.1830   -7.6280   -7.2450 C   0  0  0  0  0  3  0  0  0  0  0  0
    4.8440   -6.9140   -7.4580 C   0  0  0  0  0  3  0  0  0  0  0  0
    4.0600   -5.8340   -7.6320 C   0  0  0  0  0  0  0  0  0  0  0  0
    4.3820   -4.4540   -7.1380 C   0  0  0  0  0  2  0  0  0  0  0  0
    4.4250   -4.4560   -5.6760 N   0  0  0  0  0  0  0  0  0  0  0  0
    5.2660   -5.2770   -4.9400 C   0  0  0  0  0  0  0  0  0  0  0  0
    4.8460   -5.2050   -3.6110 C   0  0  0  0  0  0  0  0  0  0  0  0
    3.8040   -4.2130   -3.5500 C   0  0  0  0  0  0  0  0  0  0  0  0
    3.0230   -3.6740   -2.5010 C   0  0  0  0  0  3  0  0  0  0  0  0
    2.0450   -2.7140   -2.7710 C   0  0  0  0  0  3  0  0  0  0  0  0
    1.8320   -2.2860   -4.0790 C   0  0  0  0  0  0  0  0  0  0  0  0
    2.6240   -2.7550   -5.1340 C   0  0  0  0  0  3  0  0  0  0  0  0
    3.5830   -3.7450   -4.8470 C   0  0  0  0  0  0  0  0  0  0  0  0
    0.8020   -1.2580   -4.3110 C   0  0  0  0  0  0  0  0  0  0  0  0
    0.9960   -0.1000   -3.9750 O   0  0  0  0  0  0  0  0  0  0  0  0
   -0.4620   -1.6610   -4.7700 N   0  0  0  0  0  0  0  0  0  0  0  0
   -0.8070   -2.8740   -5.8340 S   0  0  0  0  0  0  0  0  0  0  0  0
   -2.2410   -2.8870   -6.0010 O   0  0  0  0  0  0  0  0  0  0  0  0
    0.0760   -2.7240   -6.9640 O   0  0  0  0  0  0  0  0  0  0  0  0
   -0.3680   -4.2370   -4.9610 N   0  0  0  0  0  0  0  0  0  0  0  0
   -1.2130   -4.5900   -3.8090 C   0  0  0  0  0  1  0  0  0  0  0  0
    0.1480   -5.3970   -5.7290 C   0  0  0  0  0  2  0  0  0  0  0  0
   -0.8990   -6.0250   -6.6470 C   0  0  0  0  0  2  0  0  0  0  0  0
   -0.4400   -7.3350   -7.3010 C   0  0  0  0  0  2  0  0  0  0  0  0
    0.6230   -7.1700   -8.3880 C   0  0  0  0  0  2  0  0  0  0  0  0
    1.9420   -6.9240   -7.8440 N   0  0  0  0  0  0  0  0  0  0  0  0
    2.7790   -5.9650   -8.3620 C   0  0  0  0  0  0  0  0  0  0  0  0
    2.5060   -5.2170   -9.2900 O   0  0  0  0  0  0  0  0  0  0  0  0
   -1.0870   -0.8730   -4.9140 H   0  0  0  0  0  0  0  0  0  0  0  0
    2.2740   -7.5080   -7.0860 H   0  0  0  0  0  0  0  0  0  0  0  0
    5.3720   -6.0370   -2.4570 C   0  0  0  0  0  3  0  0  0  0  0  0
    6.0400   -5.1810   -1.3690 C   0  0  0  0  0  2  0  0  0  0  0  0
    6.5900   -6.0450   -0.2360 C   0  0  0  0  0  2  0  0  0  0  0  0
    5.5170   -6.9570    0.3500 C   0  0  0  0  0  2  0  0  0  0  0  0
    4.8600   -7.8170   -0.7270 C   0  0  0  0  0  2  0  0  0  0  0  0
    4.2980   -6.9640   -1.8630 C   0  0  0  0  0  2  0  0  0  0  0  0
   10.7430   -8.0960   -7.0470 C   0  0  0  0  0  1  0  0  0  0  0  0
    9.3750   -8.4140   -7.2650 O   0  0  0  0  0  0  0  0  0  0  0  0
  1  2  1  0  0  0  0
  2  3  2  0  0  0  0
  4  3  1  0  0  0  0
  4 11  1  0  0  0  0
  5  4  2  0  0  0  0
  6  5  1  0  0  0  0
  6  1  2  0  0  0  0
  7  5  1  0  0  0  0
  8  7  2  0  0  0  0
  8  9  1  0  0  0  0
  9 10  1  0  0  0  0
 10 11  1  0  0  0  0
 10 18  1  0  0  0  0
 11 12  2  0  0  0  0
 12 13  1  0  0  0  0
 12 36  1  0  0  0  0
 13 14  1  0  0  0  0
 15 14  2  0  0  0  0
 16 15  1  0  0  0  0
 17 18  1  0  0  0  0
 17 16  2  0  0  0  0
 18 13  2  0  0  0  0
 19 16  1  0  0  0  0
 19 20  2  0  0  0  0
 21 19  1  0  0  0  0
 22 25  1  0  0  0  0
 22 21  1  0  0  0  0
 23 22  2  0  0  0  0
 24 22  2  0  0  0  0
 25 26  1  0  0  0  0
 27 25  1  0  0  0  0
 28 27  1  0  0  0  0
 29 28  1  0  0  0  0
 30 31  1  0  0  0  0
 30 29  1  0  0  0  0
 31 35  1  0  0  0  0
 32 31  1  0  0  0  0
 32  8  1  0  0  0  0
 33 32  2  0  0  0  0
 34 21  1  0  0  0  0
 36 41  1  0  0  0  0
 36 37  1  0  0  0  0
 37 38  1  0  0  0  0
 38 39  1  0  0  0  0
 40 39  1  0  0  0  0
 41 40  1  0  0  0  0
 43 42  1  0  0  0  0
 43  1  1  0  0  0  0
M  END
>  <minimizedAffinity>
-4.93877125

$$$$
