REMARK  Name = 
REMARK  4 active torsions:
REMARK  status: ('A' for Active; 'I' for Inactive)
REMARK    1  A    between atoms: C_1  and  O_2
REMARK    2  A    between atoms: O_2  and  C_3
REMARK    3  A    between atoms: C_14  and  C_15
REMARK    4  A    between atoms: N_33  and  C_34
REMARK                            x       y       z     vdW  Elec       q    Type
REMARK                         _______ _______ _______ _____ _____    ______ ____
ROOT
ATOM      1  C   UNL     1       0.205  -0.089  -4.095  0.00  0.00    +0.121 A 
ATOM      2  C   UNL     1       1.189  -0.874  -3.503  0.00  0.00    +0.046 A 
ATOM      3  C   UNL     1       2.250  -1.363  -4.272  0.00  0.00    +0.014 A 
ATOM      4  C   UNL     1       2.357  -1.073  -5.642  0.00  0.00    +0.006 A 
ATOM      5  C   UNL     1       1.335  -0.313  -6.252  0.00  0.00    -0.012 A 
ATOM      6  C   UNL     1       0.284   0.186  -5.463  0.00  0.00    +0.054 A 
ATOM      7  C   UNL     1       1.302   0.010  -7.690  0.00  0.00    +0.019 C 
ATOM      8  C   UNL     1       1.671  -0.871  -8.638  0.00  0.00    +0.034 C 
ATOM      9  C   UNL     1       2.140  -2.271  -8.370  0.00  0.00    +0.162 C 
ATOM     10  N   UNL     1       3.392  -2.231  -7.615  0.00  0.00    -0.335 N 
ATOM     11  C   UNL     1       3.521  -1.597  -6.389  0.00  0.00    +0.054 A 
ATOM     12  C   UNL     1       4.887  -1.529  -6.107  0.00  0.00    -0.011 A 
ATOM     13  C   UNL     1       5.569  -2.259  -7.144  0.00  0.00    +0.004 A 
ATOM     14  C   UNL     1       6.926  -2.573  -7.391  0.00  0.00    +0.011 A 
ATOM     15  C   UNL     1       7.286  -3.297  -8.531  0.00  0.00    +0.014 A 
ATOM     16  C   UNL     1       6.307  -3.709  -9.432  0.00  0.00    +0.040 A 
ATOM     17  C   UNL     1       4.950  -3.464  -9.191  0.00  0.00    +0.039 A 
ATOM     18  C   UNL     1       4.609  -2.707  -8.054  0.00  0.00    +0.051 A 
ATOM     19  C   UNL     1       6.734  -4.485 -10.609  0.00  0.00    +0.264 C 
ATOM     20  O   UNL     1       7.095  -5.646 -10.488  0.00  0.00    -0.269 OA
ATOM     21  N   UNL     1       6.876  -3.823 -11.839  0.00  0.00    -0.171 N 
ATOM     22  S   UNL     1       5.945  -2.599 -12.437  0.00  0.00    +0.114 S 
ATOM     23  O   UNL     1       6.475  -2.269 -13.738  0.00  0.00    -0.138 OA
ATOM     24  O   UNL     1       4.565  -2.981 -12.267  0.00  0.00    -0.138 OA
ATOM     25  N   UNL     1       6.309  -1.342 -11.388  0.00  0.00    -0.167 NA
ATOM     26  C   UNL     1       7.662  -0.771 -11.479  0.00  0.00    +0.133 C 
ATOM     27  C   UNL     1       5.236  -0.354 -11.116  0.00  0.00    +0.110 C 
ATOM     28  C   UNL     1       4.845   0.463 -12.346  0.00  0.00    +0.019 C 
ATOM     29  C   UNL     1       3.877   1.614 -12.040  0.00  0.00    +0.020 C 
ATOM     30  C   UNL     1       2.452   1.179 -11.697  0.00  0.00    +0.104 C 
ATOM     31  N   UNL     1       2.336   0.660 -10.351  0.00  0.00    -0.312 N 
ATOM     32  C   UNL     1       1.623  -0.479 -10.065  0.00  0.00    +0.242 C 
ATOM     33  O   UNL     1       1.047  -1.176 -10.888  0.00  0.00    -0.270 OA
ATOM     34  H   UNL     1       7.155  -4.455 -12.585  0.00  0.00    +0.178 HD
ATOM     35  H   UNL     1       2.758   1.179  -9.590  0.00  0.00    +0.149 HD
ENDROOT
BRANCH  12  36
ATOM     36  C   UNL     1       5.527  -0.800  -4.942  0.00  0.00    +0.022 C 
ATOM     37  C   UNL     1       6.224  -1.755  -3.959  0.00  0.00    +0.008 C 
ATOM     38  C   UNL     1       6.831  -0.999  -2.779  0.00  0.00    +0.001 C 
ATOM     39  C   UNL     1       7.771   0.110  -3.243  0.00  0.00    +0.000 C 
ATOM     40  C   UNL     1       7.078   1.067  -4.210  0.00  0.00    +0.001 C 
ATOM     41  C   UNL     1       6.473   0.324  -5.400  0.00  0.00    +0.008 C 
ENDBRANCH  12  36
BRANCH   1  43
ATOM     42  C   UNL     1      -1.020   0.183  -2.076  0.00  0.00    +0.277 C 
ATOM     43  O   UNL     1      -0.878   0.457  -3.464  0.00  0.00    -0.495 OA
ENDBRANCH   1  43
TORSDOF 2
