
 OpenBabel09092210413D

 43 48  0  0  0  0  0  0  0  0999 V2000
    8.4510   -7.0320   -6.2100 C   0  0  0  0  0  0  0  0  0  0  0  0
    8.3320   -5.8780   -5.4420 C   0  0  0  0  0  3  0  0  0  0  0  0
    7.1240   -5.1720   -5.4230 C   0  0  0  0  0  3  0  0  0  0  0  0
    6.0100   -5.6060   -6.1600 C   0  0  0  0  0  0  0  0  0  0  0  0
    6.1450   -6.7520   -6.9740 C   0  0  0  0  0  0  0  0  0  0  0  0
    7.3590   -7.4610   -6.9700 C   0  0  0  0  0  3  0  0  0  0  0  0
    5.0700   -7.2740   -7.8380 C   0  0  0  0  0  3  0  0  0  0  0  0
    4.2450   -6.4690   -8.5320 C   0  0  0  0  0  0  0  0  0  0  0  0
    4.3130   -4.9700   -8.5350 C   0  0  0  0  0  2  0  0  0  0  0  0
    4.0260   -4.4650   -7.1930 N   0  0  0  0  0  0  0  0  0  0  0  0
    4.7550   -4.8280   -6.0710 C   0  0  0  0  0  0  0  0  0  0  0  0
    4.0420   -4.3800   -4.9580 C   0  0  0  0  0  0  0  0  0  0  0  0
    2.9220   -3.6200   -5.4520 C   0  0  0  0  0  0  0  0  0  0  0  0
    1.8770   -2.8980   -4.8300 C   0  0  0  0  0  3  0  0  0  0  0  0
    0.8970   -2.2700   -5.6030 C   0  0  0  0  0  3  0  0  0  0  0  0
    0.9440   -2.3570   -6.9920 C   0  0  0  0  0  0  0  0  0  0  0  0
    1.9930   -3.0170   -7.6420 C   0  0  0  0  0  3  0  0  0  0  0  0
    2.9550   -3.6690   -6.8470 C   0  0  0  0  0  0  0  0  0  0  0  0
   -0.1020   -1.6640   -7.7640 C   0  0  0  0  0  0  0  0  0  0  0  0
   -0.1010   -0.4450   -7.8520 O   0  0  0  0  0  0  0  0  0  0  0  0
   -1.1860   -2.4090   -8.2550 N   0  0  0  0  0  0  0  0  0  0  0  0
   -1.1640   -3.9530   -8.8380 S   0  0  0  0  0  0  0  0  0  0  0  0
   -2.5150   -4.2670   -9.2360 O   0  0  0  0  0  0  0  0  0  0  0  0
   -0.0690   -4.0490   -9.7700 O   0  0  0  0  0  0  0  0  0  0  0  0
   -0.8040   -4.8390   -7.4600 N   0  0  0  0  0  0  0  0  0  0  0  0
   -1.8480   -4.9160   -6.4270 C   0  0  0  0  0  1  0  0  0  0  0  0
   -0.0180   -6.0850   -7.6420 C   0  0  0  0  0  2  0  0  0  0  0  0
   -0.7670   -7.1570   -8.4300 C   0  0  0  0  0  2  0  0  0  0  0  0
   -0.0480   -8.5130   -8.4630 C   0  0  0  0  0  2  0  0  0  0  0  0
    1.2110   -8.5500   -9.3290 C   0  0  0  0  0  2  0  0  0  0  0  0
    2.3440   -7.9110   -8.6940 N   0  0  0  0  0  0  0  0  0  0  0  0
    3.1790   -7.0590   -9.3740 C   0  0  0  0  0  0  0  0  0  0  0  0
    3.0520   -6.7320  -10.5450 O   0  0  0  0  0  0  0  0  0  0  0  0
   -1.8360   -1.8370   -8.7870 H   0  0  0  0  0  0  0  0  0  0  0  0
    2.5520   -8.1350   -7.7280 H   0  0  0  0  0  0  0  0  0  0  0  0
    4.3730   -4.6640   -3.5060 C   0  0  0  0  0  3  0  0  0  0  0  0
    4.6880   -3.3860   -2.7110 C   0  0  0  0  0  2  0  0  0  0  0  0
    5.0500   -3.7030   -1.2620 C   0  0  0  0  0  2  0  0  0  0  0  0
    3.9680   -4.5350   -0.5790 C   0  0  0  0  0  2  0  0  0  0  0  0
    3.6610   -5.8100   -1.3600 C   0  0  0  0  0  2  0  0  0  0  0  0
    3.2890   -5.5060   -2.8100 C   0  0  0  0  0  2  0  0  0  0  0  0
    9.7050   -8.5790   -7.5080 C   0  0  0  0  0  1  0  0  0  0  0  0
    9.5640   -7.8190   -6.3150 O   0  0  0  0  0  0  0  0  0  0  0  0
  1  2  1  0  0  0  0
  2  3  2  0  0  0  0
  4 11  1  0  0  0  0
  4  3  1  0  0  0  0
  5  6  1  0  0  0  0
  5  4  2  0  0  0  0
  6  1  2  0  0  0  0
  7  5  1  0  0  0  0
  8  7  2  0  0  0  0
  9  8  1  0  0  0  0
  9 10  1  0  0  0  0
 10 18  1  0  0  0  0
 10 11  1  0  0  0  0
 11 12  2  0  0  0  0
 12 36  1  0  0  0  0
 13 12  1  0  0  0  0
 13 14  1  0  0  0  0
 15 14  2  0  0  0  0
 16 15  1  0  0  0  0
 17 16  2  0  0  0  0
 17 18  1  0  0  0  0
 18 13  2  0  0  0  0
 19 16  1  0  0  0  0
 20 19  2  0  0  0  0
 21 19  1  0  0  0  0
 22 21  1  0  0  0  0
 22 25  1  0  0  0  0
 23 22  2  0  0  0  0
 24 22  2  0  0  0  0
 25 26  1  0  0  0  0
 27 25  1  0  0  0  0
 28 27  1  0  0  0  0
 29 28  1  0  0  0  0
 30 31  1  0  0  0  0
 30 29  1  0  0  0  0
 31 35  1  0  0  0  0
 32 31  1  0  0  0  0
 32  8  1  0  0  0  0
 33 32  2  0  0  0  0
 34 21  1  0  0  0  0
 36 41  1  0  0  0  0
 36 37  1  0  0  0  0
 37 38  1  0  0  0  0
 38 39  1  0  0  0  0
 40 39  1  0  0  0  0
 41 40  1  0  0  0  0
 42 43  1  0  0  0  0
 43  1  1  0  0  0  0
M  END
>  <minimizedAffinity>
-4.98505354

$$$$
