
 OpenBabel09082221313D

 43 48  0  0  0  0  0  0  0  0999 V2000
    5.5410   -5.0130   -0.7240 C   0  0  0  0  0  0  0  0  0  0  0  0
    5.8450   -6.0630   -1.5840 C   0  0  0  0  0  3  0  0  0  0  0  0
    5.2850   -6.1020   -2.8650 C   0  0  0  0  0  3  0  0  0  0  0  0
    4.4190   -5.0930   -3.3180 C   0  0  0  0  0  0  0  0  0  0  0  0
    4.0760   -4.0500   -2.4290 C   0  0  0  0  0  0  0  0  0  0  0  0
    4.6610   -4.0150   -1.1510 C   0  0  0  0  0  3  0  0  0  0  0  0
    3.1360   -2.9650   -2.7630 C   0  0  0  0  0  3  0  0  0  0  0  0
    2.0150   -3.1740   -3.4770 C   0  0  0  0  0  0  0  0  0  0  0  0
    1.5710   -4.5070   -4.0050 C   0  0  0  0  0  2  0  0  0  0  0  0
    2.5430   -4.9930   -4.9840 N   0  0  0  0  0  0  0  0  0  0  0  0
    3.8860   -5.1800   -4.6950 C   0  0  0  0  0  0  0  0  0  0  0  0
    4.5410   -5.3820   -5.9110 C   0  0  0  0  0  0  0  0  0  0  0  0
    3.5270   -5.4390   -6.9320 C   0  0  0  0  0  0  0  0  0  0  0  0
    3.5550   -5.6520   -8.3300 C   0  0  0  0  0  3  0  0  0  0  0  0
    2.3710   -5.6230   -9.0720 C   0  0  0  0  0  3  0  0  0  0  0  0
    1.1570   -5.3780   -8.4350 C   0  0  0  0  0  0  0  0  0  0  0  0
    1.0850   -5.2180   -7.0470 C   0  0  0  0  0  3  0  0  0  0  0  0
    2.2910   -5.2200   -6.3200 C   0  0  0  0  0  0  0  0  0  0  0  0
   -0.0660   -5.3750   -9.2570 C   0  0  0  0  0  0  0  0  0  0  0  0
   -0.5200   -6.4210   -9.6970 O   0  0  0  0  0  0  0  0  0  0  0  0
   -0.6030   -4.1430   -9.6630 N   0  0  0  0  0  0  0  0  0  0  0  0
   -0.6490   -2.7340   -8.8060 S   0  0  0  0  0  0  0  0  0  0  0  0
   -1.3160   -1.7610   -9.6380 O   0  0  0  0  0  0  0  0  0  0  0  0
   -1.1350   -3.0450   -7.4850 O   0  0  0  0  0  0  0  0  0  0  0  0
    0.9750   -2.3260   -8.7210 N   0  0  0  0  0  0  0  0  0  0  0  0
    1.6210   -1.9030   -9.9740 C   0  0  0  0  0  1  0  0  0  0  0  0
    1.4280   -1.5950   -7.5120 C   0  0  0  0  0  2  0  0  0  0  0  0
    0.8220   -0.1980   -7.3920 C   0  0  0  0  0  2  0  0  0  0  0  0
    1.4240    0.6400   -6.2560 C   0  0  0  0  0  2  0  0  0  0  0  0
    1.0290    0.1900   -4.8490 C   0  0  0  0  0  2  0  0  0  0  0  0
    1.7440   -0.9930   -4.4200 N   0  0  0  0  0  0  0  0  0  0  0  0
    1.1170   -2.0380   -3.7870 C   0  0  0  0  0  0  0  0  0  0  0  0
   -0.0800   -2.1000   -3.5440 O   0  0  0  0  0  0  0  0  0  0  0  0
   -1.4550   -4.2570  -10.2070 H   0  0  0  0  0  0  0  0  0  0  0  0
    2.7480   -1.0300   -4.5530 H   0  0  0  0  0  0  0  0  0  0  0  0
    6.0390   -5.4930   -6.1160 C   0  0  0  0  0  3  0  0  0  0  0  0
    6.8330   -4.5610   -5.1850 C   0  0  0  0  0  2  0  0  0  0  0  0
    8.3350   -4.6680   -5.4340 C   0  0  0  0  0  2  0  0  0  0  0  0
    8.8230   -6.1100   -5.3300 C   0  0  0  0  0  2  0  0  0  0  0  0
    8.0450   -7.0360   -6.2620 C   0  0  0  0  0  2  0  0  0  0  0  0
    6.5400   -6.9450   -6.0170 C   0  0  0  0  0  2  0  0  0  0  0  0
    6.5850   -3.5810    0.8600 C   0  0  0  0  0  1  0  0  0  0  0  0
    6.0210   -4.8470    0.5460 O   0  0  0  0  0  0  0  0  0  0  0  0
  1 43  1  0  0  0  0
  2  1  2  0  0  0  0
  3  2  1  0  0  0  0
  4  3  2  0  0  0  0
  4  5  1  0  0  0  0
  5  6  2  0  0  0  0
  6  1  1  0  0  0  0
  7  5  1  0  0  0  0
  8  7  2  0  0  0  0
  9  8  1  0  0  0  0
 10 11  1  0  0  0  0
 10  9  1  0  0  0  0
 11  4  1  0  0  0  0
 12 11  2  0  0  0  0
 13 18  1  0  0  0  0
 13 12  1  0  0  0  0
 14 13  2  0  0  0  0
 15 16  2  0  0  0  0
 15 14  1  0  0  0  0
 16 17  1  0  0  0  0
 17 18  2  0  0  0  0
 18 10  1  0  0  0  0
 19 16  1  0  0  0  0
 20 19  2  0  0  0  0
 21 19  1  0  0  0  0
 21 22  1  0  0  0  0
 22 25  1  0  0  0  0
 22 24  2  0  0  0  0
 23 22  2  0  0  0  0
 25 27  1  0  0  0  0
 26 25  1  0  0  0  0
 27 28  1  0  0  0  0
 28 29  1  0  0  0  0
 29 30  1  0  0  0  0
 30 31  1  0  0  0  0
 31 32  1  0  0  0  0
 32 33  2  0  0  0  0
 32  8  1  0  0  0  0
 34 21  1  0  0  0  0
 35 31  1  0  0  0  0
 36 41  1  0  0  0  0
 36 12  1  0  0  0  0
 36 37  1  0  0  0  0
 38 39  1  0  0  0  0
 38 37  1  0  0  0  0
 40 41  1  0  0  0  0
 40 39  1  0  0  0  0
 43 42  1  0  0  0  0
M  END
>  <minimizedAffinity>
-5.23771095

$$$$

 OpenBabel09082221313D

 43 48  0  0  0  0  0  0  0  0999 V2000
    2.6940   -4.1440  -10.1940 C   0  0  0  0  0  0  0  0  0  0  0  0
    4.0420   -4.2390   -9.8670 C   0  0  0  0  0  3  0  0  0  0  0  0
    4.4340   -4.3130   -8.5270 C   0  0  0  0  0  3  0  0  0  0  0  0
    3.4910   -4.3040   -7.4860 C   0  0  0  0  0  0  0  0  0  0  0  0
    2.1250   -4.1630   -7.8150 C   0  0  0  0  0  0  0  0  0  0  0  0
    1.7450   -4.1070   -9.1670 C   0  0  0  0  0  3  0  0  0  0  0  0
    1.0460   -4.0820   -6.8140 C   0  0  0  0  0  3  0  0  0  0  0  0
    1.1800   -3.4060   -5.6590 C   0  0  0  0  0  0  0  0  0  0  0  0
    2.4080   -2.6480   -5.2480 C   0  0  0  0  0  2  0  0  0  0  0  0
    3.5240   -3.5790   -5.0820 N   0  0  0  0  0  0  0  0  0  0  0  0
    3.9720   -4.4160   -6.0920 C   0  0  0  0  0  0  0  0  0  0  0  0
    4.8460   -5.3330   -5.5040 C   0  0  0  0  0  0  0  0  0  0  0  0
    5.0090   -4.9380   -4.1280 C   0  0  0  0  0  0  0  0  0  0  0  0
    5.7770   -5.4370   -3.0500 C   0  0  0  0  0  3  0  0  0  0  0  0
    5.6990   -4.8350   -1.7910 C   0  0  0  0  0  3  0  0  0  0  0  0
    4.8580   -3.7430   -1.5930 C   0  0  0  0  0  0  0  0  0  0  0  0
    4.1260   -3.1900   -2.6490 C   0  0  0  0  0  3  0  0  0  0  0  0
    4.1940   -3.8270   -3.9030 C   0  0  0  0  0  0  0  0  0  0  0  0
    4.8230   -3.1320   -0.2520 C   0  0  0  0  0  0  0  0  0  0  0  0
    5.7650   -2.4660    0.1490 O   0  0  0  0  0  0  0  0  0  0  0  0
    3.7690   -3.4640    0.6140 N   0  0  0  0  0  0  0  0  0  0  0  0
    2.1910   -3.7410    0.2190 S   0  0  0  0  0  0  0  0  0  0  0  0
    1.4970   -4.0260    1.4510 O   0  0  0  0  0  0  0  0  0  0  0  0
    1.7660   -2.6700   -0.6480 O   0  0  0  0  0  0  0  0  0  0  0  0
    2.2990   -5.1630   -0.6630 N   0  0  0  0  0  0  0  0  0  0  0  0
    2.6480   -6.3830    0.0820 C   0  0  0  0  0  1  0  0  0  0  0  0
    1.3100   -5.3630   -1.7510 C   0  0  0  0  0  2  0  0  0  0  0  0
   -0.1240   -5.5020   -1.2420 C   0  0  0  0  0  2  0  0  0  0  0  0
   -1.1300   -5.8980   -2.3310 C   0  0  0  0  0  2  0  0  0  0  0  0
   -1.4430   -4.7960   -3.3450 C   0  0  0  0  0  2  0  0  0  0  0  0
   -0.3870   -4.6170   -4.3180 N   0  0  0  0  0  0  0  0  0  0  0  0
    0.0590   -3.3720   -4.6920 C   0  0  0  0  0  0  0  0  0  0  0  0
   -0.3510   -2.3120   -4.2430 O   0  0  0  0  0  0  0  0  0  0  0  0
    3.8330   -2.9730    1.5020 H   0  0  0  0  0  0  0  0  0  0  0  0
    0.0040   -5.4350   -4.7690 H   0  0  0  0  0  0  0  0  0  0  0  0
    5.4800   -6.5310   -6.1830 C   0  0  0  0  0  3  0  0  0  0  0  0
    7.0170   -6.4710   -6.1720 C   0  0  0  0  0  2  0  0  0  0  0  0
    7.6290   -7.6710   -6.8910 C   0  0  0  0  0  2  0  0  0  0  0  0
    7.1160   -8.9910   -6.3220 C   0  0  0  0  0  2  0  0  0  0  0  0
    5.5910   -9.0580   -6.3420 C   0  0  0  0  0  2  0  0  0  0  0  0
    4.9660   -7.8670   -5.6190 C   0  0  0  0  0  2  0  0  0  0  0  0
    1.3110   -2.9750  -11.7340 C   0  0  0  0  0  1  0  0  0  0  0  0
    2.1730   -4.0710  -11.4560 O   0  0  0  0  0  0  0  0  0  0  0  0
  1  2  2  0  0  0  0
  1  6  1  0  0  0  0
  2  3  1  0  0  0  0
  3  4  2  0  0  0  0
  4 11  1  0  0  0  0
  5  4  1  0  0  0  0
  5  7  1  0  0  0  0
  6  5  2  0  0  0  0
  7  8  2  0  0  0  0
  8  9  1  0  0  0  0
  8 32  1  0  0  0  0
  9 10  1  0  0  0  0
 10 18  1  0  0  0  0
 11 12  2  0  0  0  0
 11 10  1  0  0  0  0
 12 13  1  0  0  0  0
 13 18  2  0  0  0  0
 13 14  1  0  0  0  0
 14 15  2  0  0  0  0
 15 16  1  0  0  0  0
 16 19  1  0  0  0  0
 17 16  2  0  0  0  0
 18 17  1  0  0  0  0
 19 20  2  0  0  0  0
 19 21  1  0  0  0  0
 21 34  1  0  0  0  0
 22 21  1  0  0  0  0
 22 23  2  0  0  0  0
 24 22  2  0  0  0  0
 25 26  1  0  0  0  0
 25 22  1  0  0  0  0
 27 28  1  0  0  0  0
 27 25  1  0  0  0  0
 29 28  1  0  0  0  0
 30 29  1  0  0  0  0
 31 30  1  0  0  0  0
 32 31  1  0  0  0  0
 32 33  2  0  0  0  0
 35 31  1  0  0  0  0
 36 37  1  0  0  0  0
 36 41  1  0  0  0  0
 36 12  1  0  0  0  0
 38 39  1  0  0  0  0
 38 37  1  0  0  0  0
 40 39  1  0  0  0  0
 40 41  1  0  0  0  0
 42 43  1  0  0  0  0
 43  1  1  0  0  0  0
M  END
>  <minimizedAffinity>
-5.18702221

$$$$

 OpenBabel09082221313D

 43 48  0  0  0  0  0  0  0  0999 V2000
    8.7790   -7.8410   -6.9260 C   0  0  0  0  0  0  0  0  0  0  0  0
    9.0230   -7.0430   -5.8130 C   0  0  0  0  0  3  0  0  0  0  0  0
    7.9870   -6.2880   -5.2540 C   0  0  0  0  0  3  0  0  0  0  0  0
    6.6870   -6.3190   -5.7850 C   0  0  0  0  0  0  0  0  0  0  0  0
    6.4500   -7.0950   -6.9400 C   0  0  0  0  0  0  0  0  0  0  0  0
    7.4960   -7.8620   -7.4820 C   0  0  0  0  0  3  0  0  0  0  0  0
    5.1460   -7.1660   -7.6260 C   0  0  0  0  0  3  0  0  0  0  0  0
    4.3500   -6.0920   -7.7770 C   0  0  0  0  0  0  0  0  0  0  0  0
    4.6760   -4.7090   -7.2960 C   0  0  0  0  0  2  0  0  0  0  0  0
    4.7630   -4.7070   -5.8360 N   0  0  0  0  0  0  0  0  0  0  0  0
    5.6320   -5.5190   -5.1250 C   0  0  0  0  0  0  0  0  0  0  0  0
    5.2520   -5.4470   -3.7840 C   0  0  0  0  0  0  0  0  0  0  0  0
    4.2060   -4.4620   -3.6940 C   0  0  0  0  0  0  0  0  0  0  0  0
    3.4530   -3.9270   -2.6220 C   0  0  0  0  0  3  0  0  0  0  0  0
    2.4590   -2.9750   -2.8650 C   0  0  0  0  0  3  0  0  0  0  0  0
    2.2040   -2.5510   -4.1670 C   0  0  0  0  0  0  0  0  0  0  0  0
    2.9660   -3.0180   -5.2440 C   0  0  0  0  0  3  0  0  0  0  0  0
    3.9420   -4.0000   -4.9850 C   0  0  0  0  0  0  0  0  0  0  0  0
    1.1600   -1.5320   -4.3700 C   0  0  0  0  0  0  0  0  0  0  0  0
    1.3550   -0.3710   -4.0430 O   0  0  0  0  0  0  0  0  0  0  0  0
   -0.1150   -1.9460   -4.7890 N   0  0  0  0  0  0  0  0  0  0  0  0
   -0.4830   -3.1640   -5.8390 S   0  0  0  0  0  0  0  0  0  0  0  0
   -1.9210   -3.1880   -5.9630 O   0  0  0  0  0  0  0  0  0  0  0  0
    0.3640   -3.0100   -6.9960 O   0  0  0  0  0  0  0  0  0  0  0  0
   -0.0080   -4.5210   -4.9770 N   0  0  0  0  0  0  0  0  0  0  0  0
   -0.8150   -4.8770   -3.7990 C   0  0  0  0  0  1  0  0  0  0  0  0
    0.4940   -5.6790   -5.7580 C   0  0  0  0  0  2  0  0  0  0  0  0
   -0.5760   -6.3170   -6.6420 C   0  0  0  0  0  2  0  0  0  0  0  0
   -0.1270   -7.6250   -7.3070 C   0  0  0  0  0  2  0  0  0  0  0  0
    0.9010   -7.4560   -8.4250 C   0  0  0  0  0  2  0  0  0  0  0  0
    2.2340   -7.1980   -7.9230 N   0  0  0  0  0  0  0  0  0  0  0  0
    3.0480   -6.2340   -8.4680 C   0  0  0  0  0  0  0  0  0  0  0  0
    2.7420   -5.4910   -9.3890 O   0  0  0  0  0  0  0  0  0  0  0  0
   -0.7500   -1.1620   -4.9160 H   0  0  0  0  0  0  0  0  0  0  0  0
    2.5930   -7.7780   -7.1740 H   0  0  0  0  0  0  0  0  0  0  0  0
    5.8190   -6.2720   -2.6450 C   0  0  0  0  0  3  0  0  0  0  0  0
    6.2350   -5.4100   -1.4410 C   0  0  0  0  0  2  0  0  0  0  0  0
    6.8330   -6.2610   -0.3230 C   0  0  0  0  0  2  0  0  0  0  0  0
    5.8910   -7.3870    0.0940 C   0  0  0  0  0  2  0  0  0  0  0  0
    5.4870   -8.2520   -1.0980 C   0  0  0  0  0  2  0  0  0  0  0  0
    4.8790   -7.4140   -2.2210 C   0  0  0  0  0  2  0  0  0  0  0  0
   11.0570   -8.2460   -7.4700 C   0  0  0  0  0  1  0  0  0  0  0  0
    9.6920   -8.6310   -7.5670 O   0  0  0  0  0  0  0  0  0  0  0  0
  1  2  1  0  0  0  0
  2  3  2  0  0  0  0
  4  3  1  0  0  0  0
  4 11  1  0  0  0  0
  5  4  2  0  0  0  0
  6  5  1  0  0  0  0
  6  1  2  0  0  0  0
  7  5  1  0  0  0  0
  8  7  2  0  0  0  0
  8  9  1  0  0  0  0
  9 10  1  0  0  0  0
 10 11  1  0  0  0  0
 10 18  1  0  0  0  0
 11 12  2  0  0  0  0
 12 13  1  0  0  0  0
 12 36  1  0  0  0  0
 13 14  1  0  0  0  0
 15 14  2  0  0  0  0
 16 15  1  0  0  0  0
 17 18  1  0  0  0  0
 17 16  2  0  0  0  0
 18 13  2  0  0  0  0
 19 16  1  0  0  0  0
 19 20  2  0  0  0  0
 21 19  1  0  0  0  0
 22 25  1  0  0  0  0
 22 21  1  0  0  0  0
 23 22  2  0  0  0  0
 24 22  2  0  0  0  0
 25 26  1  0  0  0  0
 27 25  1  0  0  0  0
 28 27  1  0  0  0  0
 29 28  1  0  0  0  0
 30 31  1  0  0  0  0
 30 29  1  0  0  0  0
 31 35  1  0  0  0  0
 32 31  1  0  0  0  0
 32  8  1  0  0  0  0
 33 32  2  0  0  0  0
 34 21  1  0  0  0  0
 36 41  1  0  0  0  0
 36 37  1  0  0  0  0
 37 38  1  0  0  0  0
 38 39  1  0  0  0  0
 40 39  1  0  0  0  0
 41 40  1  0  0  0  0
 43 42  1  0  0  0  0
 43  1  1  0  0  0  0
M  END
>  <minimizedAffinity>
-5.02266121

$$$$

 OpenBabel09082221313D

 43 48  0  0  0  0  0  0  0  0999 V2000
    8.4510   -7.0320   -6.2100 C   0  0  0  0  0  0  0  0  0  0  0  0
    8.3320   -5.8780   -5.4420 C   0  0  0  0  0  3  0  0  0  0  0  0
    7.1240   -5.1720   -5.4230 C   0  0  0  0  0  3  0  0  0  0  0  0
    6.0100   -5.6060   -6.1600 C   0  0  0  0  0  0  0  0  0  0  0  0
    6.1450   -6.7520   -6.9740 C   0  0  0  0  0  0  0  0  0  0  0  0
    7.3590   -7.4610   -6.9700 C   0  0  0  0  0  3  0  0  0  0  0  0
    5.0700   -7.2740   -7.8380 C   0  0  0  0  0  3  0  0  0  0  0  0
    4.2450   -6.4690   -8.5320 C   0  0  0  0  0  0  0  0  0  0  0  0
    4.3130   -4.9700   -8.5350 C   0  0  0  0  0  2  0  0  0  0  0  0
    4.0260   -4.4650   -7.1930 N   0  0  0  0  0  0  0  0  0  0  0  0
    4.7550   -4.8280   -6.0710 C   0  0  0  0  0  0  0  0  0  0  0  0
    4.0420   -4.3800   -4.9580 C   0  0  0  0  0  0  0  0  0  0  0  0
    2.9220   -3.6200   -5.4520 C   0  0  0  0  0  0  0  0  0  0  0  0
    1.8770   -2.8980   -4.8300 C   0  0  0  0  0  3  0  0  0  0  0  0
    0.8970   -2.2700   -5.6030 C   0  0  0  0  0  3  0  0  0  0  0  0
    0.9440   -2.3570   -6.9920 C   0  0  0  0  0  0  0  0  0  0  0  0
    1.9930   -3.0170   -7.6420 C   0  0  0  0  0  3  0  0  0  0  0  0
    2.9550   -3.6690   -6.8470 C   0  0  0  0  0  0  0  0  0  0  0  0
   -0.1020   -1.6640   -7.7640 C   0  0  0  0  0  0  0  0  0  0  0  0
   -0.1010   -0.4450   -7.8520 O   0  0  0  0  0  0  0  0  0  0  0  0
   -1.1860   -2.4090   -8.2550 N   0  0  0  0  0  0  0  0  0  0  0  0
   -1.1640   -3.9530   -8.8380 S   0  0  0  0  0  0  0  0  0  0  0  0
   -2.5150   -4.2670   -9.2360 O   0  0  0  0  0  0  0  0  0  0  0  0
   -0.0690   -4.0490   -9.7700 O   0  0  0  0  0  0  0  0  0  0  0  0
   -0.8040   -4.8390   -7.4600 N   0  0  0  0  0  0  0  0  0  0  0  0
   -1.8480   -4.9160   -6.4270 C   0  0  0  0  0  1  0  0  0  0  0  0
   -0.0180   -6.0850   -7.6420 C   0  0  0  0  0  2  0  0  0  0  0  0
   -0.7670   -7.1570   -8.4300 C   0  0  0  0  0  2  0  0  0  0  0  0
   -0.0480   -8.5130   -8.4630 C   0  0  0  0  0  2  0  0  0  0  0  0
    1.2110   -8.5500   -9.3290 C   0  0  0  0  0  2  0  0  0  0  0  0
    2.3440   -7.9110   -8.6940 N   0  0  0  0  0  0  0  0  0  0  0  0
    3.1790   -7.0590   -9.3740 C   0  0  0  0  0  0  0  0  0  0  0  0
    3.0520   -6.7320  -10.5450 O   0  0  0  0  0  0  0  0  0  0  0  0
   -1.8360   -1.8370   -8.7870 H   0  0  0  0  0  0  0  0  0  0  0  0
    2.5520   -8.1350   -7.7280 H   0  0  0  0  0  0  0  0  0  0  0  0
    4.3730   -4.6640   -3.5060 C   0  0  0  0  0  3  0  0  0  0  0  0
    4.6880   -3.3860   -2.7110 C   0  0  0  0  0  2  0  0  0  0  0  0
    5.0500   -3.7030   -1.2620 C   0  0  0  0  0  2  0  0  0  0  0  0
    3.9680   -4.5350   -0.5790 C   0  0  0  0  0  2  0  0  0  0  0  0
    3.6610   -5.8100   -1.3600 C   0  0  0  0  0  2  0  0  0  0  0  0
    3.2890   -5.5060   -2.8100 C   0  0  0  0  0  2  0  0  0  0  0  0
    9.7050   -8.5790   -7.5080 C   0  0  0  0  0  1  0  0  0  0  0  0
    9.5640   -7.8190   -6.3150 O   0  0  0  0  0  0  0  0  0  0  0  0
  1  2  1  0  0  0  0
  2  3  2  0  0  0  0
  4 11  1  0  0  0  0
  4  3  1  0  0  0  0
  5  6  1  0  0  0  0
  5  4  2  0  0  0  0
  6  1  2  0  0  0  0
  7  5  1  0  0  0  0
  8  7  2  0  0  0  0
  9  8  1  0  0  0  0
  9 10  1  0  0  0  0
 10 18  1  0  0  0  0
 10 11  1  0  0  0  0
 11 12  2  0  0  0  0
 12 36  1  0  0  0  0
 13 12  1  0  0  0  0
 13 14  1  0  0  0  0
 15 14  2  0  0  0  0
 16 15  1  0  0  0  0
 17 16  2  0  0  0  0
 17 18  1  0  0  0  0
 18 13  2  0  0  0  0
 19 16  1  0  0  0  0
 20 19  2  0  0  0  0
 21 19  1  0  0  0  0
 22 21  1  0  0  0  0
 22 25  1  0  0  0  0
 23 22  2  0  0  0  0
 24 22  2  0  0  0  0
 25 26  1  0  0  0  0
 27 25  1  0  0  0  0
 28 27  1  0  0  0  0
 29 28  1  0  0  0  0
 30 31  1  0  0  0  0
 30 29  1  0  0  0  0
 31 35  1  0  0  0  0
 32 31  1  0  0  0  0
 32  8  1  0  0  0  0
 33 32  2  0  0  0  0
 34 21  1  0  0  0  0
 36 41  1  0  0  0  0
 36 37  1  0  0  0  0
 37 38  1  0  0  0  0
 38 39  1  0  0  0  0
 40 39  1  0  0  0  0
 41 40  1  0  0  0  0
 42 43  1  0  0  0  0
 43  1  1  0  0  0  0
M  END
>  <minimizedAffinity>
-4.98505354

$$$$

 OpenBabel09082221313D

 43 48  0  0  0  0  0  0  0  0999 V2000
   -0.1870   -0.5180   -3.1120 C   0  0  0  0  0  0  0  0  0  0  0  0
    0.3970   -0.3190   -4.3590 C   0  0  0  0  0  3  0  0  0  0  0  0
    1.4170   -1.1710   -4.7960 C   0  0  0  0  0  3  0  0  0  0  0  0
    1.8680   -2.2410   -4.0060 C   0  0  0  0  0  0  0  0  0  0  0  0
    1.3050   -2.4160   -2.7230 C   0  0  0  0  0  0  0  0  0  0  0  0
    0.2690   -1.5620   -2.3040 C   0  0  0  0  0  3  0  0  0  0  0  0
    1.7310   -3.4630   -1.7770 C   0  0  0  0  0  3  0  0  0  0  0  0
    3.0200   -3.8200   -1.6260 C   0  0  0  0  0  0  0  0  0  0  0  0
    4.1710   -3.2070   -2.3670 C   0  0  0  0  0  2  0  0  0  0  0  0
    4.0370   -3.4880   -3.7970 N   0  0  0  0  0  0  0  0  0  0  0  0
    2.9280   -3.1210   -4.5430 C   0  0  0  0  0  0  0  0  0  0  0  0
    3.0270   -3.7800   -5.7710 C   0  0  0  0  0  0  0  0  0  0  0  0
    4.3000   -4.4540   -5.7870 C   0  0  0  0  0  0  0  0  0  0  0  0
    4.9790   -5.2420   -6.7450 C   0  0  0  0  0  3  0  0  0  0  0  0
    6.2280   -5.7940   -6.4460 C   0  0  0  0  0  3  0  0  0  0  0  0
    6.8060   -5.5730   -5.1990 C   0  0  0  0  0  0  0  0  0  0  0  0
    6.1880   -4.7540   -4.2470 C   0  0  0  0  0  3  0  0  0  0  0  0
    4.9170   -4.2310   -4.5540 C   0  0  0  0  0  0  0  0  0  0  0  0
    8.1310   -6.1620   -4.9380 C   0  0  0  0  0  0  0  0  0  0  0  0
    9.1300   -5.7000   -5.4700 O   0  0  0  0  0  0  0  0  0  0  0  0
    8.2070   -7.3560   -4.2030 N   0  0  0  0  0  0  0  0  0  0  0  0
    7.2660   -7.8150   -2.9270 S   0  0  0  0  0  0  0  0  0  0  0  0
    7.7410   -9.1100   -2.5040 O   0  0  0  0  0  0  0  0  0  0  0  0
    7.2070   -6.7040   -2.0100 O   0  0  0  0  0  0  0  0  0  0  0  0
    5.7690   -8.0170   -3.6560 N   0  0  0  0  0  0  0  0  0  0  0  0
    5.6240   -9.1600   -4.5710 C   0  0  0  0  0  1  0  0  0  0  0  0
    4.5700   -7.7270   -2.8320 C   0  0  0  0  0  2  0  0  0  0  0  0
    4.4000   -8.6880   -1.6570 C   0  0  0  0  0  2  0  0  0  0  0  0
    3.0690   -8.5210   -0.9110 C   0  0  0  0  0  2  0  0  0  0  0  0
    2.9600   -7.2480   -0.0720 C   0  0  0  0  0  2  0  0  0  0  0  0
    2.7120   -6.0700   -0.8750 N   0  0  0  0  0  0  0  0  0  0  0  0
    3.3790   -4.8880   -0.6650 C   0  0  0  0  0  0  0  0  0  0  0  0
    4.2470   -4.7070    0.1780 O   0  0  0  0  0  0  0  0  0  0  0  0
    9.1670   -7.6620   -4.0660 H   0  0  0  0  0  0  0  0  0  0  0  0
    1.9920   -6.1080   -1.5870 H   0  0  0  0  0  0  0  0  0  0  0  0
    1.9790   -3.8000   -6.8650 C   0  0  0  0  0  3  0  0  0  0  0  0
    2.4380   -3.0680   -8.1370 C   0  0  0  0  0  2  0  0  0  0  0  0
    1.3520   -3.0740   -9.2100 C   0  0  0  0  0  2  0  0  0  0  0  0
    0.8740   -4.4900   -9.5210 C   0  0  0  0  0  2  0  0  0  0  0  0
    0.4060   -5.2150   -8.2620 C   0  0  0  0  0  2  0  0  0  0  0  0
    1.4870   -5.2230   -7.1820 C   0  0  0  0  0  2  0  0  0  0  0  0
   -1.0130    0.6660   -1.2230 C   0  0  0  0  0  1  0  0  0  0  0  0
   -1.1920    0.2310   -2.5650 O   0  0  0  0  0  0  0  0  0  0  0  0
  1 43  1  0  0  0  0
  1  6  1  0  0  0  0
  2  1  2  0  0  0  0
  3  2  1  0  0  0  0
  3  4  2  0  0  0  0
  4  5  1  0  0  0  0
  5  6  2  0  0  0  0
  5  7  1  0  0  0  0
  7  8  2  0  0  0  0
  8 32  1  0  0  0  0
  9  8  1  0  0  0  0
 10  9  1  0  0  0  0
 11  4  1  0  0  0  0
 11 10  1  0  0  0  0
 12 11  2  0  0  0  0
 13 12  1  0  0  0  0
 13 18  1  0  0  0  0
 14 15  1  0  0  0  0
 14 13  2  0  0  0  0
 15 16  2  0  0  0  0
 16 19  1  0  0  0  0
 16 17  1  0  0  0  0
 18 17  2  0  0  0  0
 18 10  1  0  0  0  0
 19 21  1  0  0  0  0
 20 19  2  0  0  0  0
 21 34  1  0  0  0  0
 21 22  1  0  0  0  0
 22 23  2  0  0  0  0
 22 24  2  0  0  0  0
 25 22  1  0  0  0  0
 25 27  1  0  0  0  0
 26 25  1  0  0  0  0
 27 28  1  0  0  0  0
 28 29  1  0  0  0  0
 29 30  1  0  0  0  0
 31 32  1  0  0  0  0
 31 30  1  0  0  0  0
 32 33  2  0  0  0  0
 35 31  1  0  0  0  0
 36 12  1  0  0  0  0
 37 36  1  0  0  0  0
 38 37  1  0  0  0  0
 39 38  1  0  0  0  0
 39 40  1  0  0  0  0
 40 41  1  0  0  0  0
 41 36  1  0  0  0  0
 43 42  1  0  0  0  0
M  END
>  <minimizedAffinity>
-4.91707182

$$$$

 OpenBabel09082221313D

 43 48  0  0  0  0  0  0  0  0999 V2000
    3.5810   -5.7230  -12.6760 C   0  0  0  0  0  0  0  0  0  0  0  0
    4.5040   -5.6540  -11.6380 C   0  0  0  0  0  3  0  0  0  0  0  0
    4.1970   -4.9410  -10.4740 C   0  0  0  0  0  3  0  0  0  0  0  0
    2.9630   -4.2900  -10.3180 C   0  0  0  0  0  0  0  0  0  0  0  0
    2.0430   -4.3230  -11.3890 C   0  0  0  0  0  0  0  0  0  0  0  0
    2.3590   -5.0580  -12.5450 C   0  0  0  0  0  3  0  0  0  0  0  0
    0.7400   -3.6330  -11.3710 C   0  0  0  0  0  3  0  0  0  0  0  0
    0.5760   -2.4120  -10.8300 C   0  0  0  0  0  0  0  0  0  0  0  0
    1.6690   -1.6000  -10.2000 C   0  0  0  0  0  2  0  0  0  0  0  0
    2.1730   -2.2940   -9.0150 N   0  0  0  0  0  0  0  0  0  0  0  0
    2.6910   -3.5790   -9.0500 C   0  0  0  0  0  0  0  0  0  0  0  0
    2.8130   -4.0060   -7.7260 C   0  0  0  0  0  0  0  0  0  0  0  0
    2.4710   -2.8850   -6.8880 C   0  0  0  0  0  0  0  0  0  0  0  0
    2.4380   -2.6820   -5.4890 C   0  0  0  0  0  3  0  0  0  0  0  0
    2.0260   -1.4540   -4.9640 C   0  0  0  0  0  3  0  0  0  0  0  0
    1.6410   -0.4250   -5.8210 C   0  0  0  0  0  0  0  0  0  0  0  0
    1.7150   -0.5720   -7.2110 C   0  0  0  0  0  3  0  0  0  0  0  0
    2.1030   -1.8260   -7.7210 C   0  0  0  0  0  0  0  0  0  0  0  0
    1.2320    0.8570   -5.2210 C   0  0  0  0  0  0  0  0  0  0  0  0
    2.0630    1.6000   -4.7190 O   0  0  0  0  0  0  0  0  0  0  0  0
   -0.1380    1.1330   -5.0870 N   0  0  0  0  0  0  0  0  0  0  0  0
   -1.3520    0.7320   -6.1300 S   0  0  0  0  0  0  0  0  0  0  0  0
   -2.5750    1.2480   -5.5650 O   0  0  0  0  0  0  0  0  0  0  0  0
   -0.9260    1.1040   -7.4560 O   0  0  0  0  0  0  0  0  0  0  0  0
   -1.3800   -0.9400   -6.0020 N   0  0  0  0  0  0  0  0  0  0  0  0
   -1.8680   -1.5020   -4.7330 C   0  0  0  0  0  1  0  0  0  0  0  0
   -1.7740   -1.7060   -7.2110 C   0  0  0  0  0  2  0  0  0  0  0  0
   -3.2250   -1.4710   -7.6250 C   0  0  0  0  0  2  0  0  0  0  0  0
   -3.7030   -2.3950   -8.7530 C   0  0  0  0  0  2  0  0  0  0  0  0
   -3.1090   -2.0880  -10.1280 C   0  0  0  0  0  2  0  0  0  0  0  0
   -1.7440   -2.5510  -10.2620 N   0  0  0  0  0  0  0  0  0  0  0  0
   -0.7630   -1.7790  -10.8360 C   0  0  0  0  0  0  0  0  0  0  0  0
   -0.9180   -0.6430  -11.2620 O   0  0  0  0  0  0  0  0  0  0  0  0
   -0.3070    2.0500   -4.6810 H   0  0  0  0  0  0  0  0  0  0  0  0
   -1.5150   -3.4910   -9.9610 H   0  0  0  0  0  0  0  0  0  0  0  0
    3.2050   -5.3950   -7.2630 C   0  0  0  0  0  3  0  0  0  0  0  0
    4.5970   -5.4290   -6.6100 C   0  0  0  0  0  2  0  0  0  0  0  0
    4.9810   -6.8450   -6.1840 C   0  0  0  0  0  2  0  0  0  0  0  0
    3.9220   -7.4670   -5.2780 C   0  0  0  0  0  2  0  0  0  0  0  0
    2.5410   -7.4460   -5.9290 C   0  0  0  0  0  2  0  0  0  0  0  0
    2.1410   -6.0340   -6.3530 C   0  0  0  0  0  2  0  0  0  0  0  0
    3.9130   -5.5910  -15.0260 C   0  0  0  0  0  1  0  0  0  0  0  0
    3.7470   -6.3860  -13.8590 O   0  0  0  0  0  0  0  0  0  0  0  0
  1  6  2  0  0  0  0
  1  2  1  0  0  0  0
  2  3  2  0  0  0  0
  3  4  1  0  0  0  0
  4 11  1  0  0  0  0
  5  7  1  0  0  0  0
  5  4  2  0  0  0  0
  6  5  1  0  0  0  0
  7  8  2  0  0  0  0
  8  9  1  0  0  0  0
  9 10  1  0  0  0  0
 10 18  1  0  0  0  0
 11 10  1  0  0  0  0
 11 12  2  0  0  0  0
 12 36  1  0  0  0  0
 12 13  1  0  0  0  0
 13 14  1  0  0  0  0
 14 15  2  0  0  0  0
 16 19  1  0  0  0  0
 16 15  1  0  0  0  0
 17 16  2  0  0  0  0
 18 17  1  0  0  0  0
 18 13  2  0  0  0  0
 19 21  1  0  0  0  0
 19 20  2  0  0  0  0
 21 34  1  0  0  0  0
 22 25  1  0  0  0  0
 22 23  2  0  0  0  0
 22 21  1  0  0  0  0
 24 22  2  0  0  0  0
 25 26  1  0  0  0  0
 27 25  1  0  0  0  0
 28 27  1  0  0  0  0
 29 28  1  0  0  0  0
 30 29  1  0  0  0  0
 31 30  1  0  0  0  0
 31 35  1  0  0  0  0
 32  8  1  0  0  0  0
 32 31  1  0  0  0  0
 33 32  2  0  0  0  0
 36 37  1  0  0  0  0
 36 41  1  0  0  0  0
 37 38  1  0  0  0  0
 38 39  1  0  0  0  0
 40 39  1  0  0  0  0
 41 40  1  0  0  0  0
 42 43  1  0  0  0  0
 43  1  1  0  0  0  0
M  END
>  <minimizedAffinity>
-4.90611029

$$$$

 OpenBabel09082221313D

 43 48  0  0  0  0  0  0  0  0999 V2000
    6.4370   -4.3060    0.2470 C   0  0  0  0  0  0  0  0  0  0  0  0
    6.6870   -5.6330   -0.0870 C   0  0  0  0  0  3  0  0  0  0  0  0
    6.0400   -6.2120   -1.1830 C   0  0  0  0  0  3  0  0  0  0  0  0
    5.1400   -5.4800   -1.9740 C   0  0  0  0  0  0  0  0  0  0  0  0
    4.8530   -4.1460   -1.6090 C   0  0  0  0  0  0  0  0  0  0  0  0
    5.5230   -3.5720   -0.5150 C   0  0  0  0  0  3  0  0  0  0  0  0
    3.8860   -3.2920   -2.3230 C   0  0  0  0  0  3  0  0  0  0  0  0
    2.7200   -3.7630   -2.8010 C   0  0  0  0  0  0  0  0  0  0  0  0
    2.2490   -5.1810   -2.6640 C   0  0  0  0  0  2  0  0  0  0  0  0
    3.1540   -6.0690   -3.3930 N   0  0  0  0  0  0  0  0  0  0  0  0
    4.5140   -6.1450   -3.1380 C   0  0  0  0  0  0  0  0  0  0  0  0
    5.0860   -6.8730   -4.1840 C   0  0  0  0  0  0  0  0  0  0  0  0
    4.0050   -7.3430   -5.0100 C   0  0  0  0  0  0  0  0  0  0  0  0
    3.9380   -8.1450   -6.1740 C   0  0  0  0  0  3  0  0  0  0  0  0
    2.7060   -8.4120   -6.7770 C   0  0  0  0  0  3  0  0  0  0  0  0
    1.5370   -7.8850   -6.2340 C   0  0  0  0  0  0  0  0  0  0  0  0
    1.5590   -7.1340   -5.0530 C   0  0  0  0  0  3  0  0  0  0  0  0
    2.8120   -6.8490   -4.4770 C   0  0  0  0  0  0  0  0  0  0  0  0
    0.2610   -8.2090   -6.8950 C   0  0  0  0  0  0  0  0  0  0  0  0
   -0.2160   -9.3300   -6.8040 O   0  0  0  0  0  0  0  0  0  0  0  0
   -0.3100   -7.2640   -7.7620 N   0  0  0  0  0  0  0  0  0  0  0  0
   -0.3050   -5.6220   -7.6050 S   0  0  0  0  0  0  0  0  0  0  0  0
   -1.0320   -5.0920   -8.7330 O   0  0  0  0  0  0  0  0  0  0  0  0
   -0.6980   -5.3140   -6.2520 O   0  0  0  0  0  0  0  0  0  0  0  0
    1.3190   -5.2580   -7.8100 N   0  0  0  0  0  0  0  0  0  0  0  0
    1.8750   -5.4390   -9.1610 C   0  0  0  0  0  1  0  0  0  0  0  0
    1.8500   -4.0850   -7.0730 C   0  0  0  0  0  2  0  0  0  0  0  0
    1.2460   -2.7610   -7.5360 C   0  0  0  0  0  2  0  0  0  0  0  0
    1.9190   -1.5270   -6.9200 C   0  0  0  0  0  2  0  0  0  0  0  0
    1.6240   -1.3090   -5.4360 C   0  0  0  0  0  2  0  0  0  0  0  0
    2.3730   -2.2040   -4.5810 N   0  0  0  0  0  0  0  0  0  0  0  0
    1.7970   -2.8530   -3.5160 C   0  0  0  0  0  0  0  0  0  0  0  0
    0.6200   -2.7730   -3.1950 O   0  0  0  0  0  0  0  0  0  0  0  0
   -1.1960   -7.5820   -8.1470 H   0  0  0  0  0  0  0  0  0  0  0  0
    3.3660   -2.3210   -4.7480 H   0  0  0  0  0  0  0  0  0  0  0  0
    6.5670   -7.0990   -4.4150 C   0  0  0  0  0  3  0  0  0  0  0  0
    6.9780   -8.5670   -4.2160 C   0  0  0  0  0  2  0  0  0  0  0  0
    8.4790   -8.7610   -4.4220 C   0  0  0  0  0  2  0  0  0  0  0  0
    8.9350   -8.2310   -5.7780 C   0  0  0  0  0  2  0  0  0  0  0  0
    8.5390   -6.7700   -5.9730 C   0  0  0  0  0  2  0  0  0  0  0  0
    7.0380   -6.5630   -5.7780 C   0  0  0  0  0  2  0  0  0  0  0  0
    6.8210   -2.2060    1.2910 C   0  0  0  0  0  1  0  0  0  0  0  0
    7.0010   -3.6160    1.2830 O   0  0  0  0  0  0  0  0  0  0  0  0
  1 43  1  0  0  0  0
  2  1  1  0  0  0  0
  3  2  2  0  0  0  0
  4  5  2  0  0  0  0
  4  3  1  0  0  0  0
  5  6  1  0  0  0  0
  6  1  2  0  0  0  0
  7  5  1  0  0  0  0
  8  9  1  0  0  0  0
  8  7  2  0  0  0  0
 10 11  1  0  0  0  0
 10  9  1  0  0  0  0
 11  4  1  0  0  0  0
 12 11  2  0  0  0  0
 13 18  1  0  0  0  0
 13 12  1  0  0  0  0
 14 13  2  0  0  0  0
 15 16  2  0  0  0  0
 15 14  1  0  0  0  0
 16 17  1  0  0  0  0
 17 18  2  0  0  0  0
 18 10  1  0  0  0  0
 19 20  2  0  0  0  0
 19 16  1  0  0  0  0
 21 22  1  0  0  0  0
 21 19  1  0  0  0  0
 22 24  2  0  0  0  0
 23 22  2  0  0  0  0
 25 22  1  0  0  0  0
 25 27  1  0  0  0  0
 26 25  1  0  0  0  0
 28 27  1  0  0  0  0
 28 29  1  0  0  0  0
 29 30  1  0  0  0  0
 30 31  1  0  0  0  0
 31 32  1  0  0  0  0
 32 33  2  0  0  0  0
 32  8  1  0  0  0  0
 34 21  1  0  0  0  0
 35 31  1  0  0  0  0
 36 37  1  0  0  0  0
 36 12  1  0  0  0  0
 38 37  1  0  0  0  0
 39 38  1  0  0  0  0
 40 41  1  0  0  0  0
 40 39  1  0  0  0  0
 41 36  1  0  0  0  0
 43 42  1  0  0  0  0
M  END
>  <minimizedAffinity>
-4.78931952

$$$$

 OpenBabel09082221313D

 43 48  0  0  0  0  0  0  0  0999 V2000
    2.7970   -5.6750  -12.4610 C   0  0  0  0  0  0  0  0  0  0  0  0
    1.5950   -5.1580  -11.9910 C   0  0  0  0  0  3  0  0  0  0  0  0
    1.3970   -4.9870  -10.6160 C   0  0  0  0  0  3  0  0  0  0  0  0
    2.3960   -5.3190   -9.6860 C   0  0  0  0  0  0  0  0  0  0  0  0
    3.5990   -5.8850  -10.1610 C   0  0  0  0  0  0  0  0  0  0  0  0
    3.7900   -6.0340  -11.5450 C   0  0  0  0  0  3  0  0  0  0  0  0
    4.6980   -6.3270   -9.2840 C   0  0  0  0  0  3  0  0  0  0  0  0
    4.4820   -6.9460   -8.1090 C   0  0  0  0  0  0  0  0  0  0  0  0
    3.1280   -7.2770   -7.5520 C   0  0  0  0  0  2  0  0  0  0  0  0
    2.3960   -6.0400   -7.2810 N   0  0  0  0  0  0  0  0  0  0  0  0
    2.1320   -5.0840   -8.2490 C   0  0  0  0  0  0  0  0  0  0  0  0
    1.6690   -3.9470   -7.5850 C   0  0  0  0  0  0  0  0  0  0  0  0
    1.5410   -4.2940   -6.1930 C   0  0  0  0  0  0  0  0  0  0  0  0
    1.0960   -3.5960   -5.0460 C   0  0  0  0  0  3  0  0  0  0  0  0
    1.1150   -4.2150   -3.7930 C   0  0  0  0  0  3  0  0  0  0  0  0
    1.5770   -5.5230   -3.6690 C   0  0  0  0  0  0  0  0  0  0  0  0
    1.9720   -6.2620   -4.7900 C   0  0  0  0  0  3  0  0  0  0  0  0
    1.9750   -5.6130   -6.0390 C   0  0  0  0  0  0  0  0  0  0  0  0
    1.5610   -6.1370   -2.3300 C   0  0  0  0  0  0  0  0  0  0  0  0
    0.5050   -6.4740   -1.8160 O   0  0  0  0  0  0  0  0  0  0  0  0
    2.7540   -6.1780   -1.5910 N   0  0  0  0  0  0  0  0  0  0  0  0
    4.2840   -6.4150   -2.1620 S   0  0  0  0  0  0  0  0  0  0  0  0
    5.1640   -6.3920   -1.0190 O   0  0  0  0  0  0  0  0  0  0  0  0
    4.2440   -7.5490   -3.0510 O   0  0  0  0  0  0  0  0  0  0  0  0
    4.5420   -5.0170   -3.0520 N   0  0  0  0  0  0  0  0  0  0  0  0
    4.6880   -3.7640   -2.2940 C   0  0  0  0  0  1  0  0  0  0  0  0
    5.4180   -5.1260   -4.2450 C   0  0  0  0  0  2  0  0  0  0  0  0
    6.8660   -5.4640   -3.8990 C   0  0  0  0  0  2  0  0  0  0  0  0
    7.8200   -5.3920   -5.1000 C   0  0  0  0  0  2  0  0  0  0  0  0
    7.6500   -6.5160   -6.1220 C   0  0  0  0  0  2  0  0  0  0  0  0
    6.4920   -6.3280   -6.9700 N   0  0  0  0  0  0  0  0  0  0  0  0
    5.6320   -7.3560   -7.2710 C   0  0  0  0  0  0  0  0  0  0  0  0
    5.7250   -8.5010   -6.8510 O   0  0  0  0  0  0  0  0  0  0  0  0
    2.6330   -6.6400   -0.6930 H   0  0  0  0  0  0  0  0  0  0  0  0
    6.3370   -5.4200   -7.3890 H   0  0  0  0  0  0  0  0  0  0  0  0
    1.3830   -2.5960   -8.2110 C   0  0  0  0  0  3  0  0  0  0  0  0
   -0.1210   -2.3380   -8.3960 C   0  0  0  0  0  2  0  0  0  0  0  0
   -0.3800   -0.9860   -9.0580 C   0  0  0  0  0  2  0  0  0  0  0  0
    0.2940    0.1530   -8.2980 C   0  0  0  0  0  2  0  0  0  0  0  0
    1.7900   -0.0960   -8.1230 C   0  0  0  0  0  2  0  0  0  0  0  0
    2.0630   -1.4420   -7.4540 C   0  0  0  0  0  2  0  0  0  0  0  0
    4.5100   -5.9560  -14.0860 C   0  0  0  0  0  1  0  0  0  0  0  0
    3.1250   -5.8870  -13.7720 O   0  0  0  0  0  0  0  0  0  0  0  0
  1  2  2  0  0  0  0
  1  6  1  0  0  0  0
  2  3  1  0  0  0  0
  3  4  2  0  0  0  0
  4 11  1  0  0  0  0
  5  4  1  0  0  0  0
  5  7  1  0  0  0  0
  6  5  2  0  0  0  0
  7  8  2  0  0  0  0
  8  9  1  0  0  0  0
  8 32  1  0  0  0  0
  9 10  1  0  0  0  0
 10 18  1  0  0  0  0
 11 12  2  0  0  0  0
 11 10  1  0  0  0  0
 12 13  1  0  0  0  0
 13 18  2  0  0  0  0
 13 14  1  0  0  0  0
 14 15  2  0  0  0  0
 15 16  1  0  0  0  0
 16 19  1  0  0  0  0
 17 16  2  0  0  0  0
 18 17  1  0  0  0  0
 19 20  2  0  0  0  0
 19 21  1  0  0  0  0
 21 34  1  0  0  0  0
 22 21  1  0  0  0  0
 22 23  2  0  0  0  0
 24 22  2  0  0  0  0
 25 26  1  0  0  0  0
 25 22  1  0  0  0  0
 27 28  1  0  0  0  0
 27 25  1  0  0  0  0
 29 28  1  0  0  0  0
 30 29  1  0  0  0  0
 31 30  1  0  0  0  0
 32 31  1  0  0  0  0
 32 33  2  0  0  0  0
 35 31  1  0  0  0  0
 36 12  1  0  0  0  0
 36 41  1  0  0  0  0
 37 36  1  0  0  0  0
 38 37  1  0  0  0  0
 38 39  1  0  0  0  0
 39 40  1  0  0  0  0
 40 41  1  0  0  0  0
 42 43  1  0  0  0  0
 43  1  1  0  0  0  0
M  END
>  <minimizedAffinity>
-4.74063015

$$$$

 OpenBabel09082221313D

 43 48  0  0  0  0  0  0  0  0999 V2000
    1.1670   -2.2450  -11.2320 C   0  0  0  0  0  0  0  0  0  0  0  0
    0.0990   -1.8050  -10.4570 C   0  0  0  0  0  3  0  0  0  0  0  0
    0.0840   -2.0560   -9.0810 C   0  0  0  0  0  3  0  0  0  0  0  0
    1.1340   -2.7420   -8.4490 C   0  0  0  0  0  0  0  0  0  0  0  0
    2.1960   -3.2280   -9.2430 C   0  0  0  0  0  0  0  0  0  0  0  0
    2.2060   -2.9530  -10.6220 C   0  0  0  0  0  3  0  0  0  0  0  0
    3.3260   -4.0100   -8.7100 C   0  0  0  0  0  3  0  0  0  0  0  0
    3.1710   -4.9450   -7.7550 C   0  0  0  0  0  0  0  0  0  0  0  0
    1.8600   -5.3220   -7.1290 C   0  0  0  0  0  2  0  0  0  0  0  0
    1.3220   -4.1760   -6.3960 N   0  0  0  0  0  0  0  0  0  0  0  0
    1.0680   -2.9470   -6.9860 C   0  0  0  0  0  0  0  0  0  0  0  0
    0.8280   -2.0400   -5.9510 C   0  0  0  0  0  0  0  0  0  0  0  0
    0.8190   -2.7930   -4.7240 C   0  0  0  0  0  0  0  0  0  0  0  0
    0.5980   -2.4540   -3.3680 C   0  0  0  0  0  3  0  0  0  0  0  0
    0.6850   -3.4320   -2.3740 C   0  0  0  0  0  3  0  0  0  0  0  0
    0.9940   -4.7470   -2.7150 C   0  0  0  0  0  0  0  0  0  0  0  0
    1.1630   -5.1290   -4.0520 C   0  0  0  0  0  3  0  0  0  0  0  0
    1.1020   -4.1240   -5.0360 C   0  0  0  0  0  0  0  0  0  0  0  0
    1.0550   -5.7450   -1.6340 C   0  0  0  0  0  0  0  0  0  0  0  0
    0.0320   -6.1380   -1.0940 O   0  0  0  0  0  0  0  0  0  0  0  0
    2.3110   -6.1130   -1.1250 N   0  0  0  0  0  0  0  0  0  0  0  0
    3.7250   -6.2840   -1.9590 S   0  0  0  0  0  0  0  0  0  0  0  0
    4.7270   -6.6910   -1.0040 O   0  0  0  0  0  0  0  0  0  0  0  0
    3.4440   -7.0760   -3.1310 O   0  0  0  0  0  0  0  0  0  0  0  0
    4.0500   -4.7040   -2.4200 N   0  0  0  0  0  0  0  0  0  0  0  0
    4.4340   -3.7670   -1.3530 C   0  0  0  0  0  1  0  0  0  0  0  0
    4.7620   -4.5060   -3.7060 C   0  0  0  0  0  2  0  0  0  0  0  0
    6.1880   -5.0520   -3.6940 C   0  0  0  0  0  2  0  0  0  0  0  0
    6.9990   -4.6870   -4.9450 C   0  0  0  0  0  2  0  0  0  0  0  0
    6.5750   -5.4180   -6.2190 C   0  0  0  0  0  2  0  0  0  0  0  0
    5.3600   -4.8810   -6.7920 N   0  0  0  0  0  0  0  0  0  0  0  0
    4.3500   -5.6890   -7.2560 C   0  0  0  0  0  0  0  0  0  0  0  0
    4.3500   -6.9110   -7.2160 O   0  0  0  0  0  0  0  0  0  0  0  0
    2.2390   -6.8200   -0.3990 H   0  0  0  0  0  0  0  0  0  0  0  0
    5.2710   -3.8770   -6.8940 H   0  0  0  0  0  0  0  0  0  0  0  0
    0.6400   -0.5430   -6.0970 C   0  0  0  0  0  3  0  0  0  0  0  0
   -0.8350   -0.1210   -6.0030 C   0  0  0  0  0  2  0  0  0  0  0  0
   -0.9990    1.3860   -6.1850 C   0  0  0  0  0  2  0  0  0  0  0  0
   -0.1290    2.1710   -5.2070 C   0  0  0  0  0  2  0  0  0  0  0  0
    1.3380    1.7620   -5.3070 C   0  0  0  0  0  2  0  0  0  0  0  0
    1.5170    0.2570   -5.1180 C   0  0  0  0  0  2  0  0  0  0  0  0
    0.9380   -0.7960  -13.1030 C   0  0  0  0  0  1  0  0  0  0  0  0
    1.3130   -2.0640  -12.5790 O   0  0  0  0  0  0  0  0  0  0  0  0
  1  6  2  0  0  0  0
  1  2  1  0  0  0  0
  2  3  2  0  0  0  0
  3  4  1  0  0  0  0
  4 11  1  0  0  0  0
  5  7  1  0  0  0  0
  5  4  2  0  0  0  0
  6  5  1  0  0  0  0
  7  8  2  0  0  0  0
  8 32  1  0  0  0  0
  8  9  1  0  0  0  0
  9 10  1  0  0  0  0
 10 18  1  0  0  0  0
 11 10  1  0  0  0  0
 11 12  2  0  0  0  0
 12 13  1  0  0  0  0
 13 14  1  0  0  0  0
 14 15  2  0  0  0  0
 16 15  1  0  0  0  0
 16 19  1  0  0  0  0
 17 16  2  0  0  0  0
 18 13  2  0  0  0  0
 18 17  1  0  0  0  0
 19 21  1  0  0  0  0
 19 20  2  0  0  0  0
 21 34  1  0  0  0  0
 22 21  1  0  0  0  0
 22 23  2  0  0  0  0
 24 22  2  0  0  0  0
 25 22  1  0  0  0  0
 25 26  1  0  0  0  0
 27 28  1  0  0  0  0
 27 25  1  0  0  0  0
 29 28  1  0  0  0  0
 30 29  1  0  0  0  0
 31 30  1  0  0  0  0
 32 33  2  0  0  0  0
 32 31  1  0  0  0  0
 35 31  1  0  0  0  0
 36 37  1  0  0  0  0
 36 12  1  0  0  0  0
 36 41  1  0  0  0  0
 38 37  1  0  0  0  0
 38 39  1  0  0  0  0
 40 39  1  0  0  0  0
 40 41  1  0  0  0  0
 42 43  1  0  0  0  0
 43  1  1  0  0  0  0
M  END
>  <minimizedAffinity>
-4.73507643

$$$$

 OpenBabel09082221313D

 43 48  0  0  0  0  0  0  0  0999 V2000
   -0.4400    0.7210  -12.0350 C   0  0  0  0  0  0  0  0  0  0  0  0
    0.7670    0.0420  -12.1690 C   0  0  0  0  0  3  0  0  0  0  0  0
    1.2930   -0.6710  -11.0870 C   0  0  0  0  0  3  0  0  0  0  0  0
    0.6230   -0.7300   -9.8540 C   0  0  0  0  0  0  0  0  0  0  0  0
   -0.5800   -0.0050   -9.7040 C   0  0  0  0  0  0  0  0  0  0  0  0
   -1.1040    0.6930  -10.8060 C   0  0  0  0  0  3  0  0  0  0  0  0
   -1.3450    0.0600   -8.4460 C   0  0  0  0  0  3  0  0  0  0  0  0
   -0.7520    0.1500   -7.2420 C   0  0  0  0  0  0  0  0  0  0  0  0
    0.7310    0.2100   -7.0200 C   0  0  0  0  0  2  0  0  0  0  0  0
    1.3430   -1.0400   -7.4680 N   0  0  0  0  0  0  0  0  0  0  0  0
    1.2200   -1.5270   -8.7600 C   0  0  0  0  0  0  0  0  0  0  0  0
    1.6900   -2.8420   -8.7470 C   0  0  0  0  0  0  0  0  0  0  0  0
    2.2210   -3.0880   -7.4310 C   0  0  0  0  0  0  0  0  0  0  0  0
    2.8550   -4.1950   -6.8210 C   0  0  0  0  0  3  0  0  0  0  0  0
    3.2440   -4.1340   -5.4800 C   0  0  0  0  0  3  0  0  0  0  0  0
    3.0020   -2.9820   -4.7370 C   0  0  0  0  0  0  0  0  0  0  0  0
    2.4270   -1.8480   -5.3230 C   0  0  0  0  0  3  0  0  0  0  0  0
    2.0150   -1.9380   -6.6660 C   0  0  0  0  0  0  0  0  0  0  0  0
    3.4470   -2.9590   -3.3320 C   0  0  0  0  0  0  0  0  0  0  0  0
    4.6340   -2.8730   -3.0600 O   0  0  0  0  0  0  0  0  0  0  0  0
    2.5030   -3.2040   -2.3220 N   0  0  0  0  0  0  0  0  0  0  0  0
    0.9210   -2.7380   -2.2870 S   0  0  0  0  0  0  0  0  0  0  0  0
    0.3740   -3.2090   -1.0380 O   0  0  0  0  0  0  0  0  0  0  0  0
    0.8730   -1.3420   -2.6450 O   0  0  0  0  0  0  0  0  0  0  0  0
    0.2610   -3.6540   -3.5270 N   0  0  0  0  0  0  0  0  0  0  0  0
    0.1590   -5.1040   -3.3000 C   0  0  0  0  0  1  0  0  0  0  0  0
   -0.8730   -3.0620   -4.2780 C   0  0  0  0  0  2  0  0  0  0  0  0
   -2.1260   -2.8740   -3.4240 C   0  0  0  0  0  2  0  0  0  0  0  0
   -3.3610   -2.4430   -4.2270 C   0  0  0  0  0  2  0  0  0  0  0  0
   -3.3200   -1.0040   -4.7430 C   0  0  0  0  0  2  0  0  0  0  0  0
   -2.4580   -0.8490   -5.8950 N   0  0  0  0  0  0  0  0  0  0  0  0
   -1.5810    0.2020   -6.0160 C   0  0  0  0  0  0  0  0  0  0  0  0
   -1.4140    1.0810   -5.1830 O   0  0  0  0  0  0  0  0  0  0  0  0
    2.9120   -3.1460   -1.3930 H   0  0  0  0  0  0  0  0  0  0  0  0
   -2.5360   -1.5130   -6.6560 H   0  0  0  0  0  0  0  0  0  0  0  0
    1.6270   -3.8290   -9.8960 C   0  0  0  0  0  3  0  0  0  0  0  0
    3.0200   -4.2200  -10.4170 C   0  0  0  0  0  2  0  0  0  0  0  0
    2.9260   -5.1880  -11.5940 C   0  0  0  0  0  2  0  0  0  0  0  0
    2.0930   -6.4190  -11.2480 C   0  0  0  0  0  2  0  0  0  0  0  0
    0.7050   -6.0340  -10.7420 C   0  0  0  0  0  2  0  0  0  0  0  0
    0.7840   -5.0720   -9.5580 C   0  0  0  0  0  2  0  0  0  0  0  0
   -1.0330    2.8630  -12.8770 C   0  0  0  0  0  1  0  0  0  0  0  0
   -1.0680    1.4480  -13.0080 O   0  0  0  0  0  0  0  0  0  0  0  0
  1  6  1  0  0  0  0
  2  1  2  0  0  0  0
  2  3  1  0  0  0  0
  3  4  2  0  0  0  0
  4  5  1  0  0  0  0
  4 11  1  0  0  0  0
  5  7  1  0  0  0  0
  6  5  2  0  0  0  0
  7  8  2  0  0  0  0
  8  9  1  0  0  0  0
  8 32  1  0  0  0  0
 10  9  1  0  0  0  0
 10 18  1  0  0  0  0
 11 12  2  0  0  0  0
 11 10  1  0  0  0  0
 12 13  1  0  0  0  0
 13 14  2  0  0  0  0
 13 18  1  0  0  0  0
 14 15  1  0  0  0  0
 15 16  2  0  0  0  0
 16 19  1  0  0  0  0
 17 16  1  0  0  0  0
 18 17  2  0  0  0  0
 19 20  2  0  0  0  0
 19 21  1  0  0  0  0
 21 22  1  0  0  0  0
 21 34  1  0  0  0  0
 22 23  2  0  0  0  0
 24 22  2  0  0  0  0
 25 26  1  0  0  0  0
 25 22  1  0  0  0  0
 27 25  1  0  0  0  0
 27 28  1  0  0  0  0
 29 28  1  0  0  0  0
 30 29  1  0  0  0  0
 31 30  1  0  0  0  0
 32 31  1  0  0  0  0
 32 33  2  0  0  0  0
 35 31  1  0  0  0  0
 36 41  1  0  0  0  0
 36 12  1  0  0  0  0
 37 36  1  0  0  0  0
 38 39  1  0  0  0  0
 38 37  1  0  0  0  0
 39 40  1  0  0  0  0
 40 41  1  0  0  0  0
 43 42  1  0  0  0  0
 43  1  1  0  0  0  0
M  END
>  <minimizedAffinity>
-4.6840992

$$$$
