
 OpenBabel09092210413D

 43 48  0  0  0  0  0  0  0  0999 V2000
    2.6940   -4.1440  -10.1940 C   0  0  0  0  0  0  0  0  0  0  0  0
    4.0420   -4.2390   -9.8670 C   0  0  0  0  0  3  0  0  0  0  0  0
    4.4340   -4.3130   -8.5270 C   0  0  0  0  0  3  0  0  0  0  0  0
    3.4910   -4.3040   -7.4860 C   0  0  0  0  0  0  0  0  0  0  0  0
    2.1250   -4.1630   -7.8150 C   0  0  0  0  0  0  0  0  0  0  0  0
    1.7450   -4.1070   -9.1670 C   0  0  0  0  0  3  0  0  0  0  0  0
    1.0460   -4.0820   -6.8140 C   0  0  0  0  0  3  0  0  0  0  0  0
    1.1800   -3.4060   -5.6590 C   0  0  0  0  0  0  0  0  0  0  0  0
    2.4080   -2.6480   -5.2480 C   0  0  0  0  0  2  0  0  0  0  0  0
    3.5240   -3.5790   -5.0820 N   0  0  0  0  0  0  0  0  0  0  0  0
    3.9720   -4.4160   -6.0920 C   0  0  0  0  0  0  0  0  0  0  0  0
    4.8460   -5.3330   -5.5040 C   0  0  0  0  0  0  0  0  0  0  0  0
    5.0090   -4.9380   -4.1280 C   0  0  0  0  0  0  0  0  0  0  0  0
    5.7770   -5.4370   -3.0500 C   0  0  0  0  0  3  0  0  0  0  0  0
    5.6990   -4.8350   -1.7910 C   0  0  0  0  0  3  0  0  0  0  0  0
    4.8580   -3.7430   -1.5930 C   0  0  0  0  0  0  0  0  0  0  0  0
    4.1260   -3.1900   -2.6490 C   0  0  0  0  0  3  0  0  0  0  0  0
    4.1940   -3.8270   -3.9030 C   0  0  0  0  0  0  0  0  0  0  0  0
    4.8230   -3.1320   -0.2520 C   0  0  0  0  0  0  0  0  0  0  0  0
    5.7650   -2.4660    0.1490 O   0  0  0  0  0  0  0  0  0  0  0  0
    3.7690   -3.4640    0.6140 N   0  0  0  0  0  0  0  0  0  0  0  0
    2.1910   -3.7410    0.2190 S   0  0  0  0  0  0  0  0  0  0  0  0
    1.4970   -4.0260    1.4510 O   0  0  0  0  0  0  0  0  0  0  0  0
    1.7660   -2.6700   -0.6480 O   0  0  0  0  0  0  0  0  0  0  0  0
    2.2990   -5.1630   -0.6630 N   0  0  0  0  0  0  0  0  0  0  0  0
    2.6480   -6.3830    0.0820 C   0  0  0  0  0  1  0  0  0  0  0  0
    1.3100   -5.3630   -1.7510 C   0  0  0  0  0  2  0  0  0  0  0  0
   -0.1240   -5.5020   -1.2420 C   0  0  0  0  0  2  0  0  0  0  0  0
   -1.1300   -5.8980   -2.3310 C   0  0  0  0  0  2  0  0  0  0  0  0
   -1.4430   -4.7960   -3.3450 C   0  0  0  0  0  2  0  0  0  0  0  0
   -0.3870   -4.6170   -4.3180 N   0  0  0  0  0  0  0  0  0  0  0  0
    0.0590   -3.3720   -4.6920 C   0  0  0  0  0  0  0  0  0  0  0  0
   -0.3510   -2.3120   -4.2430 O   0  0  0  0  0  0  0  0  0  0  0  0
    3.8330   -2.9730    1.5020 H   0  0  0  0  0  0  0  0  0  0  0  0
    0.0040   -5.4350   -4.7690 H   0  0  0  0  0  0  0  0  0  0  0  0
    5.4800   -6.5310   -6.1830 C   0  0  0  0  0  3  0  0  0  0  0  0
    7.0170   -6.4710   -6.1720 C   0  0  0  0  0  2  0  0  0  0  0  0
    7.6290   -7.6710   -6.8910 C   0  0  0  0  0  2  0  0  0  0  0  0
    7.1160   -8.9910   -6.3220 C   0  0  0  0  0  2  0  0  0  0  0  0
    5.5910   -9.0580   -6.3420 C   0  0  0  0  0  2  0  0  0  0  0  0
    4.9660   -7.8670   -5.6190 C   0  0  0  0  0  2  0  0  0  0  0  0
    1.3110   -2.9750  -11.7340 C   0  0  0  0  0  1  0  0  0  0  0  0
    2.1730   -4.0710  -11.4560 O   0  0  0  0  0  0  0  0  0  0  0  0
  1  2  2  0  0  0  0
  1  6  1  0  0  0  0
  2  3  1  0  0  0  0
  3  4  2  0  0  0  0
  4 11  1  0  0  0  0
  5  4  1  0  0  0  0
  5  7  1  0  0  0  0
  6  5  2  0  0  0  0
  7  8  2  0  0  0  0
  8  9  1  0  0  0  0
  8 32  1  0  0  0  0
  9 10  1  0  0  0  0
 10 18  1  0  0  0  0
 11 12  2  0  0  0  0
 11 10  1  0  0  0  0
 12 13  1  0  0  0  0
 13 18  2  0  0  0  0
 13 14  1  0  0  0  0
 14 15  2  0  0  0  0
 15 16  1  0  0  0  0
 16 19  1  0  0  0  0
 17 16  2  0  0  0  0
 18 17  1  0  0  0  0
 19 20  2  0  0  0  0
 19 21  1  0  0  0  0
 21 34  1  0  0  0  0
 22 21  1  0  0  0  0
 22 23  2  0  0  0  0
 24 22  2  0  0  0  0
 25 26  1  0  0  0  0
 25 22  1  0  0  0  0
 27 28  1  0  0  0  0
 27 25  1  0  0  0  0
 29 28  1  0  0  0  0
 30 29  1  0  0  0  0
 31 30  1  0  0  0  0
 32 31  1  0  0  0  0
 32 33  2  0  0  0  0
 35 31  1  0  0  0  0
 36 37  1  0  0  0  0
 36 41  1  0  0  0  0
 36 12  1  0  0  0  0
 38 39  1  0  0  0  0
 38 37  1  0  0  0  0
 40 39  1  0  0  0  0
 40 41  1  0  0  0  0
 42 43  1  0  0  0  0
 43  1  1  0  0  0  0
M  END
>  <minimizedAffinity>
-5.18702221

$$$$
