REMARK  Name = 
REMARK  10 active torsions:
REMARK  status: ('A' for Active; 'I' for Inactive)
REMARK    1  A    between atoms: C_1  and  C_2
REMARK    2  A    between atoms: C_2  and  C_3
REMARK    3  A    between atoms: C_2  and  C_4
REMARK    4  A    between atoms: C_4  and  C_5
REMARK    5  A    between atoms: C_5  and  N_6
REMARK    6  A    between atoms: C_9  and  C_10
REMARK    7  A    between atoms: C_17  and  O_18
REMARK    8  A    between atoms: O_18  and  C_19
REMARK    9  A    between atoms: C_19  and  C_20
REMARK   10  A    between atoms: C_26  and  O_27
REMARK                            x       y       z     vdW  Elec       q    Type
REMARK                         _______ _______ _______ _____ _____    ______ ____
ROOT
ATOM      1  N   UNL     1       1.984  -4.470   7.324  0.00  0.00    -0.292 N 
ATOM      2  C   UNL     1       0.881  -4.318   6.512  0.00  0.00    +0.271 A 
ATOM      3  O   UNL     1      -0.274  -4.218   6.938  0.00  0.00    -0.267 OA
ATOM      4  C   UNL     1       1.099  -4.143   5.042  0.00  0.00    +0.170 A 
ATOM      5  C   UNL     1       2.317  -4.412   4.538  0.00  0.00    +0.148 A 
ATOM      6  C   UNL     1       3.408  -4.886   5.405  0.00  0.00    +0.060 A 
ATOM      7  C   UNL     1       4.625  -5.378   4.912  0.00  0.00    +0.016 A 
ATOM      8  C   UNL     1       5.643  -5.730   5.792  0.00  0.00    +0.021 A 
ATOM      9  C   UNL     1       5.412  -5.586   7.145  0.00  0.00    +0.113 A 
ATOM     10  N   UNL     1       4.242  -5.149   7.653  0.00  0.00    -0.237 NA
ATOM     11  C   UNL     1       3.249  -4.827   6.794  0.00  0.00    +0.147 A 
ENDROOT
BRANCH   4  12
ATOM     12  C   UNL     1      -0.044  -3.550   4.255  0.00  0.00    +0.308 C 
ATOM     13  N   UNL     1      -1.194  -3.310   4.839  0.00  0.00    -0.131 N 
ATOM     14  S   UNL     1      -2.486  -2.669   4.143  0.00  0.00    +0.141 S 
ATOM     15  O   UNL     1      -3.399  -3.712   3.720  0.00  0.00    -0.129 OA
ATOM     16  O   UNL     1      -2.973  -1.583   4.970  0.00  0.00    -0.129 OA
ATOM     17  C   UNL     1      -1.907  -1.916   2.660  0.00  0.00    +0.178 A 
ATOM     18  C   UNL     1      -2.672  -0.923   2.043  0.00  0.00    +0.080 A 
ATOM     19  C   UNL     1      -2.191  -0.341   0.876  0.00  0.00    +0.124 A 
ATOM     20  C   UNL     1      -0.963  -0.739   0.349  0.00  0.00    +0.050 A 
ATOM     21  C   UNL     1      -0.207  -1.728   0.988  0.00  0.00    +0.054 A 
ATOM     22  C   UNL     1      -0.666  -2.311   2.171  0.00  0.00    +0.148 A 
ATOM     23  N   UNL     1       0.143  -3.173   2.904  0.00  0.00    -0.200 N 
ATOM     24  H   UNL     1      -1.297  -3.573   5.815  0.00  0.00    +0.339 HD
ATOM     25  H   UNL     1       1.041  -3.450   2.504  0.00  0.00    +0.298 HD
BRANCH  19  26
ATOM     26  O   UNL     1      -2.817   0.712   0.276  0.00  0.00    -0.477 OA
BRANCH  26  27
ATOM     27  C   UNL     1      -4.149   0.422  -0.164  0.00  0.00    +0.346 C 
BRANCH  27  28
ATOM     28  C   UNL     1      -4.145  -0.025  -1.617  0.00  0.00    +0.104 C 
ATOM     29  N   UNL     1      -4.141  -0.396  -2.822  0.00  0.00    -0.193 NA
ENDBRANCH  27  28
ENDBRANCH  26  27
ENDBRANCH  19  26
ENDBRANCH   4  12
BRANCH   5  30
ATOM     30  O   UNL     1       2.604  -4.168   3.203  0.00  0.00    -0.505 OA
ATOM     31  H   UNL     1       3.566  -4.044   3.097  0.00  0.00    +0.292 HD
ENDBRANCH   5  30
BRANCH   1  32
ATOM     32  C   UNL     1       1.823  -4.348   8.776  0.00  0.00    +0.127 C 
BRANCH  32  33
ATOM     33  C   UNL     1       1.342  -2.953   9.222  0.00  0.00    +0.025 C 
BRANCH  33  35
ATOM     34  C   UNL     1       1.465  -0.449   9.027  0.00  0.00    +0.007 C 
ATOM     35  C   UNL     1       2.176  -1.766   8.702  0.00  0.00    -0.016 C 
ATOM     36  C   UNL     1       3.586  -1.751   9.289  0.00  0.00    +0.007 C 
ENDBRANCH  33  35
ENDBRANCH  32  33
ENDBRANCH   1  32
TORSDOF 8
