
 OpenBabel09132204463D

 36 39  0  0  1  0  0  0  0  0999 V2000
    3.1200   -1.3940    9.7540 N   0  0  0  0  0  0  0  0  0  0  0  0
    3.1000   -2.1480    8.6010 C   0  0  0  0  0  0  0  0  0  0  0  0
    3.3910   -1.7020    7.4860 O   0  0  0  0  0  0  0  0  0  0  0  0
    2.8280   -3.6150    8.7160 C   0  0  0  0  0  0  0  0  0  0  0  0
    2.3490   -4.0890    9.8800 C   0  0  0  0  0  0  0  0  0  0  0  0
    2.0780   -3.1870   11.0110 C   0  0  0  0  0  0  0  0  0  0  0  0
    1.3890   -3.5850   12.1660 C   0  0  0  0  0  3  0  0  0  0  0  0
    1.2430   -2.7020   13.2310 C   0  0  0  0  0  3  0  0  0  0  0  0
    1.7870   -1.4400   13.1080 C   0  0  0  0  0  3  0  0  0  0  0  0
    2.4250   -1.0140   11.9990 N   0  0  0  0  0  0  0  0  0  0  0  0
    2.5460   -1.8690   10.9590 C   0  0  0  0  0  0  0  0  0  0  0  0
    3.2390   -4.4720    7.5440 C   0  0  1  0  0  3  0  0  0  0  0  0
    2.5400   -5.5370    7.2270 N   0  0  0  0  0  0  0  0  0  0  0  0
    2.8400   -6.5280    6.0050 S   0  0  0  0  0  0  0  0  0  0  0  0
    3.5930   -7.6780    6.4640 O   0  0  0  0  0  0  0  0  0  0  0  0
    1.6170   -6.7260    5.2530 O   0  0  0  0  0  0  0  0  0  0  0  0
    3.9230   -5.6490    4.9300 C   0  0  0  0  0  0  0  0  0  0  0  0
    4.0400   -6.0400    3.5940 C   0  0  0  0  0  3  0  0  0  0  0  0
    4.8980   -5.3270    2.7650 C   0  0  0  0  0  0  0  0  0  0  0  0
    5.6130   -4.2390    3.2640 C   0  0  0  0  0  3  0  0  0  0  0  0
    5.4750   -3.8580    4.6040 C   0  0  0  0  0  3  0  0  0  0  0  0
    4.6030   -4.5510    5.4470 C   0  0  0  0  0  0  0  0  0  0  0  0
    4.3310   -4.0880    6.7300 N   0  0  0  0  0  0  0  0  0  0  0  0
    1.7500   -5.7810    7.8160 H   0  0  0  0  0  0  0  0  0  0  0  0
    4.8610   -3.2870    7.0770 H   0  0  0  0  0  0  0  0  0  0  0  0
    4.9830   -5.5680    1.4250 O   0  0  0  0  0  0  0  0  0  0  0  0
    5.2000   -6.9450    1.0950 C   0  0  0  0  0  2  0  0  0  0  0  0
    6.6240   -7.3560    1.4320 C   0  0  0  0  0  2  0  0  0  0  0  0
    7.8060   -7.6980    1.7120 N   0  0  0  0  0  1  0  0  0  0  0  0
    2.1780   -5.4510   10.0770 O   0  0  0  0  0  0  0  0  0  0  0  0
    2.2050   -5.6460   11.0320 H   0  0  0  0  0  0  0  0  0  0  0  0
    3.6670   -0.0340    9.7080 C   0  0  0  0  0  2  0  0  0  0  0  0
    5.1640    0.0350   10.0710 C   0  0  0  0  0  2  0  0  0  0  0  0
    4.4240    2.0980   11.3030 C   0  0  0  0  0  1  0  0  0  0  0  0
    5.5330    1.0520   11.1690 C   0  0  0  0  0  3  0  0  0  0  0  0
    5.7770    0.3790   12.5180 C   0  0  0  0  0  1  0  0  0  0  0  0
  1 11  1  0  0  0  0
  2  4  1  0  0  0  0
  2  1  1  0  0  0  0
  3  2  2  0  0  0  0
  4  5  2  0  0  0  0
  5 30  1  0  0  0  0
  5  6  1  0  0  0  0
  6  7  1  0  0  0  0
  7  8  2  0  0  0  0
  9  8  1  0  0  0  0
 10  9  2  0  0  0  0
 11  6  2  0  0  0  0
 11 10  1  0  0  0  0
 12  4  1  6  0  0  0
 13 12  1  0  0  0  0
 13 24  1  0  0  0  0
 14 15  2  0  0  0  0
 14 13  1  0  0  0  0
 16 14  2  0  0  0  0
 17 22  1  0  0  0  0
 17 14  1  0  0  0  0
 18 17  2  0  0  0  0
 19 20  2  0  0  0  0
 19 18  1  0  0  0  0
 20 21  1  0  0  0  0
 21 22  2  0  0  0  0
 22 23  1  0  0  0  0
 23 25  1  0  0  0  0
 23 12  1  0  0  0  0
 26 19  1  0  0  0  0
 27 26  1  0  0  0  0
 27 28  1  0  0  0  0
 28 29  1  0  0  0  0
 30 31  1  0  0  0  0
 32  1  1  0  0  0  0
 32 33  1  0  0  0  0
 33 35  1  0  0  0  0
 35 34  1  0  0  0  0
 35 36  1  0  0  0  0
M  END
>  <minimizedAffinity>
-6.7746501

$$$$
