
 OpenBabel09132204463D

 36 39  0  0  1  0  0  0  0  0999 V2000
    0.2050   -8.2630    8.0500 N   0  0  0  0  0  0  0  0  0  0  0  0
    1.2230   -8.5020    7.1530 C   0  0  0  0  0  0  0  0  0  0  0  0
    1.2330   -9.4550    6.3670 O   0  0  0  0  0  0  0  0  0  0  0  0
    2.3210   -7.4920    7.0380 C   0  0  0  0  0  0  0  0  0  0  0  0
    2.4230   -6.5440    7.9870 C   0  0  0  0  0  0  0  0  0  0  0  0
    1.4890   -6.5080    9.1240 C   0  0  0  0  0  0  0  0  0  0  0  0
    1.6700   -5.6820   10.2430 C   0  0  0  0  0  3  0  0  0  0  0  0
    0.7030   -5.6380   11.2420 C   0  0  0  0  0  3  0  0  0  0  0  0
   -0.4180   -6.4310   11.0970 C   0  0  0  0  0  3  0  0  0  0  0  0
   -0.6060   -7.2620   10.0520 N   0  0  0  0  0  0  0  0  0  0  0  0
    0.3460   -7.3150    9.0940 C   0  0  0  0  0  0  0  0  0  0  0  0
    3.1580   -7.5440    5.7830 C   0  0  1  0  0  3  0  0  0  0  0  0
    3.3680   -8.6880    5.1750 N   0  0  0  0  0  0  0  0  0  0  0  0
    4.2140   -8.8970    3.8320 S   0  0  0  0  0  0  0  0  0  0  0  0
    5.5690   -9.3000    4.1490 O   0  0  0  0  0  0  0  0  0  0  0  0
    3.4300   -9.6870    2.9030 O   0  0  0  0  0  0  0  0  0  0  0  0
    4.3530   -7.3010    3.1000 C   0  0  0  0  0  0  0  0  0  0  0  0
    4.6490   -7.1860    1.7400 C   0  0  0  0  0  3  0  0  0  0  0  0
    4.7490   -5.9160    1.1850 C   0  0  0  0  0  0  0  0  0  0  0  0
    4.5430   -4.7870    1.9780 C   0  0  0  0  0  3  0  0  0  0  0  0
    4.2380   -4.9240    3.3360 C   0  0  0  0  0  3  0  0  0  0  0  0
    4.1150   -6.1930    3.9060 C   0  0  0  0  0  0  0  0  0  0  0  0
    3.6540   -6.3500    5.2090 N   0  0  0  0  0  0  0  0  0  0  0  0
    2.9860   -9.5290    5.5980 H   0  0  0  0  0  0  0  0  0  0  0  0
    3.5050   -5.5110    5.7730 H   0  0  0  0  0  0  0  0  0  0  0  0
    4.9200   -5.7170   -0.1530 O   0  0  0  0  0  0  0  0  0  0  0  0
    6.0150   -6.4510   -0.7150 C   0  0  0  0  0  2  0  0  0  0  0  0
    7.1890   -5.5260   -0.9930 C   0  0  0  0  0  2  0  0  0  0  0  0
    8.1630   -4.7600   -1.2240 N   0  0  0  0  0  1  0  0  0  0  0  0
    3.3540   -5.5230    7.8750 O   0  0  0  0  0  0  0  0  0  0  0  0
    3.0540   -4.7530    8.3940 H   0  0  0  0  0  0  0  0  0  0  0  0
   -1.0160   -9.0710    7.9750 C   0  0  0  0  0  2  0  0  0  0  0  0
   -1.9350   -8.6830    6.7990 C   0  0  0  0  0  2  0  0  0  0  0  0
   -1.3510   -6.8700    5.1580 C   0  0  0  0  0  1  0  0  0  0  0  0
   -2.0250   -7.1740    6.4980 C   0  0  0  0  0  3  0  0  0  0  0  0
   -3.4690   -6.6770    6.4750 C   0  0  0  0  0  1  0  0  0  0  0  0
  1 11  1  0  0  0  0
  2  1  1  0  0  0  0
  3  2  2  0  0  0  0
  4  2  1  0  0  0  0
  4  5  2  0  0  0  0
  5  6  1  0  0  0  0
  6  7  1  0  0  0  0
  7  8  2  0  0  0  0
  9  8  1  0  0  0  0
 10  9  2  0  0  0  0
 11  6  2  0  0  0  0
 11 10  1  0  0  0  0
 12  4  1  6  0  0  0
 13 24  1  0  0  0  0
 13 12  1  0  0  0  0
 14 15  2  0  0  0  0
 14 13  1  0  0  0  0
 16 14  2  0  0  0  0
 17 14  1  0  0  0  0
 17 22  1  0  0  0  0
 18 17  2  0  0  0  0
 19 18  1  0  0  0  0
 19 20  2  0  0  0  0
 20 21  1  0  0  0  0
 21 22  2  0  0  0  0
 22 23  1  0  0  0  0
 23 25  1  0  0  0  0
 23 12  1  0  0  0  0
 26 19  1  0  0  0  0
 27 26  1  0  0  0  0
 28 27  1  0  0  0  0
 29 28  1  0  0  0  0
 30  5  1  0  0  0  0
 30 31  1  0  0  0  0
 32  1  1  0  0  0  0
 33 32  1  0  0  0  0
 34 35  1  0  0  0  0
 35 33  1  0  0  0  0
 36 35  1  0  0  0  0
M  END
>  <minimizedAffinity>
-6.72608519

$$$$
