
 OpenBabel09132204463D

 36 39  0  0  1  0  0  0  0  0999 V2000
   -0.2160   -7.2030    8.5220 N   0  0  0  0  0  0  0  0  0  0  0  0
    0.8130   -6.9250    7.6490 C   0  0  0  0  0  0  0  0  0  0  0  0
    1.8780   -6.4010    7.9900 O   0  0  0  0  0  0  0  0  0  0  0  0
    0.6890   -7.3900    6.2320 C   0  0  0  0  0  0  0  0  0  0  0  0
   -0.5130   -7.8090    5.7980 C   0  0  0  0  0  0  0  0  0  0  0  0
   -1.6870   -7.7940    6.6860 C   0  0  0  0  0  0  0  0  0  0  0  0
   -2.9960   -8.0170    6.2360 C   0  0  0  0  0  3  0  0  0  0  0  0
   -4.0470   -8.0710    7.1460 C   0  0  0  0  0  3  0  0  0  0  0  0
   -3.7590   -7.8930    8.4830 C   0  0  0  0  0  3  0  0  0  0  0  0
   -2.5170   -7.6430    8.9450 N   0  0  0  0  0  0  0  0  0  0  0  0
   -1.5030   -7.5710    8.0550 C   0  0  0  0  0  0  0  0  0  0  0  0
    1.9670   -7.4720    5.4330 C   0  0  1  0  0  3  0  0  0  0  0  0
    2.3700   -8.6230    4.9470 N   0  0  0  0  0  0  0  0  0  0  0  0
    3.6870   -8.8620    4.0680 S   0  0  0  0  0  0  0  0  0  0  0  0
    4.7760   -9.3160    4.9090 O   0  0  0  0  0  0  0  0  0  0  0  0
    3.3290   -9.6220    2.8870 O   0  0  0  0  0  0  0  0  0  0  0  0
    4.1690   -7.2720    3.4850 C   0  0  0  0  0  0  0  0  0  0  0  0
    5.0030   -7.1680    2.3690 C   0  0  0  0  0  3  0  0  0  0  0  0
    5.3660   -5.9010    1.9250 C   0  0  0  0  0  0  0  0  0  0  0  0
    4.8900   -4.7660    2.5800 C   0  0  0  0  0  3  0  0  0  0  0  0
    4.0460   -4.8920    3.6900 C   0  0  0  0  0  3  0  0  0  0  0  0
    3.6570   -6.1560    4.1390 C   0  0  0  0  0  0  0  0  0  0  0  0
    2.6950   -6.2960    5.1330 N   0  0  0  0  0  0  0  0  0  0  0  0
    1.8190   -9.4490    5.1610 H   0  0  0  0  0  0  0  0  0  0  0  0
    2.3540   -5.4540    5.5980 H   0  0  0  0  0  0  0  0  0  0  0  0
    6.0800   -5.7080    0.7790 O   0  0  0  0  0  0  0  0  0  0  0  0
    7.4950   -5.6250    0.9840 C   0  0  0  0  0  2  0  0  0  0  0  0
    8.1780   -5.0490   -0.2470 C   0  0  0  0  0  2  0  0  0  0  0  0
    8.7450   -4.5710   -1.2660 N   0  0  0  0  0  1  0  0  0  0  0  0
   -0.6630   -8.3480    4.5280 O   0  0  0  0  0  0  0  0  0  0  0  0
   -1.4470   -8.9290    4.5140 H   0  0  0  0  0  0  0  0  0  0  0  0
    0.0010   -7.0250    9.9600 C   0  0  0  0  0  2  0  0  0  0  0  0
    0.7080   -8.2230   10.6240 C   0  0  0  0  0  2  0  0  0  0  0  0
    3.2100   -8.4790   10.6270 C   0  0  0  0  0  1  0  0  0  0  0  0
    2.0110   -7.8910   11.3770 C   0  0  0  0  0  3  0  0  0  0  0  0
    2.2030   -6.3870   11.5610 C   0  0  0  0  0  1  0  0  0  0  0  0
  1 32  1  0  0  0  0
  2  3  2  0  0  0  0
  2  1  1  0  0  0  0
  4  2  1  0  0  0  0
  5  4  2  0  0  0  0
  5  6  1  0  0  0  0
  6 11  1  0  0  0  0
  7  6  2  0  0  0  0
  7  8  1  0  0  0  0
  8  9  2  0  0  0  0
  9 10  1  0  0  0  0
 11  1  1  0  0  0  0
 11 10  2  0  0  0  0
 12  4  1  6  0  0  0
 13 24  1  0  0  0  0
 13 12  1  0  0  0  0
 14 15  2  0  0  0  0
 14 13  1  0  0  0  0
 16 14  2  0  0  0  0
 17 14  1  0  0  0  0
 17 22  1  0  0  0  0
 18 17  2  0  0  0  0
 19 18  1  0  0  0  0
 19 20  2  0  0  0  0
 20 21  1  0  0  0  0
 21 22  2  0  0  0  0
 22 23  1  0  0  0  0
 23 12  1  0  0  0  0
 23 25  1  0  0  0  0
 26 27  1  0  0  0  0
 26 19  1  0  0  0  0
 28 27  1  0  0  0  0
 29 28  1  0  0  0  0
 30  5  1  0  0  0  0
 31 30  1  0  0  0  0
 32 33  1  0  0  0  0
 33 35  1  0  0  0  0
 34 35  1  0  0  0  0
 35 36  1  0  0  0  0
M  END
>  <minimizedAffinity>
-7.05451012

$$$$
