
 OpenBabel08172208283D

 43 47  0  0  1  0  0  0  0  0999 V2000
   28.7330    6.4290   16.3360 C   0  0  0  0  0  0  0  0  0  0  0  0
   28.8300    7.3260   17.1760 O   0  0  0  0  0  0  0  0  0  0  0  0
   28.4010    5.1000   16.6760 N   0  0  0  0  0  0  0  0  0  0  0  0
   27.7120    4.2010   15.7130 C   0  0  2  0  0  3  0  0  0  0  0  0
   26.2520    4.1790   16.0850 C   0  0  0  0  0  0  0  0  0  0  0  0
   25.7710    3.6580   17.2290 C   0  0  0  0  0  0  0  0  0  0  0  0
   24.2970    3.5420   17.5860 C   0  0  0  0  0  2  0  0  0  0  0  0
   23.2590    3.7280   16.4620 C   0  0  0  0  0  0  0  0  0  0  0  0
   23.6100    4.9780   15.6590 C   0  0  0  0  0  2  0  0  0  0  0  0
   25.2190    4.9370   14.9230 S   0  0  0  0  0  0  0  0  0  0  0  0
   25.1390    4.1050   13.7380 O   0  0  0  0  0  0  0  0  0  0  0  0
   25.6360    6.3230   14.7880 O   0  0  0  0  0  0  0  0  0  0  0  0
   23.1690    2.4730   15.5770 C   0  0  0  0  0  1  0  0  0  0  0  0
   21.8700    3.9370   17.1020 C   0  0  0  0  0  1  0  0  0  0  0  0
   26.6000    3.1610   18.2120 N   0  0  0  0  0  0  0  0  0  0  0  0
   27.8540    3.6430   18.6600 C   0  0  0  0  0  0  0  0  0  0  0  0
   28.6460    4.6200   18.0180 C   0  0  0  0  0  0  0  0  0  0  0  0
   29.8020    5.0820   18.6870 C   0  0  0  0  0  3  0  0  0  0  0  0
   30.1890    4.5830   19.9340 C   0  0  0  0  0  3  0  0  0  0  0  0
   29.4330    3.5980   20.5510 C   0  0  0  0  0  3  0  0  0  0  0  0
   28.2820    3.1440   19.9170 C   0  0  0  0  0  0  0  0  0  0  0  0
   26.1950    2.5150   18.8930 H   0  0  0  0  0  0  0  0  0  0  0  0
   31.4650    5.8570   14.6150 C   0  0  0  0  0  1  0  0  0  0  0  0
   30.1680    6.4490   14.2440 C   0  0  0  0  0  0  0  0  0  0  0  0
   29.0030    6.7340   14.9300 C   0  0  0  0  0  0  0  0  0  0  0  0
   28.0850    7.2840   14.0460 N   0  0  0  0  0  0  0  0  0  0  0  0
   28.7360    7.3450   12.9040 C   0  0  0  0  0  0  0  0  0  0  0  0
   30.0060    6.8430   12.9460 O   0  0  0  0  0  0  0  0  0  0  0  0
   28.2790    7.8680   11.6010 C   0  0  0  0  0  1  0  0  0  0  0  0
   28.4350    2.8610   15.5040 C   0  0  0  0  0  0  0  0  0  0  0  0
   27.7880    1.7070   15.0530 C   0  0  0  0  0  0  0  0  0  0  0  0
   28.4780    0.5160   14.8290 C   0  0  0  0  0  3  0  0  0  0  0  0
   29.8540    0.4420   15.0330 C   0  0  0  0  0  0  0  0  0  0  0  0
   30.5320    1.5870   15.4360 C   0  0  0  0  0  3  0  0  0  0  0  0
   29.8330    2.7820   15.6570 C   0  0  0  0  0  3  0  0  0  0  0  0
   26.4730    1.7090   14.8030 F   0  0  0  0  0  0  0  0  0  0  0  0
   30.4060   -0.7790   14.7710 O   0  0  0  0  0  0  0  0  0  0  0  0
   31.2470   -1.3840   15.7540 C   0  0  0  0  0  2  0  0  0  0  0  0
   30.4500   -1.8590   16.9480 C   0  0  0  0  0  0  0  0  0  0  0  0
   30.6360   -1.3560   18.1800 C   0  0  0  0  0  2  0  0  0  0  0  0
   29.4120   -2.9120   16.6760 C   0  0  0  0  0  1  0  0  0  0  0  0
   27.4900    2.1980   20.5290 O   0  0  0  0  0  0  0  0  0  0  0  0
   27.9220    1.9310   21.3580 H   0  0  0  0  0  0  0  0  0  0  0  0
  1  3  1  0  0  0  0
  1  2  2  0  0  0  0
  3 17  1  0  0  0  0
  4 30  1  1  0  0  0
  4  5  1  0  0  0  0
  4  3  1  0  0  0  0
  5  6  2  0  0  0  0
  6  7  1  0  0  0  0
  6 15  1  0  0  0  0
  8 14  1  0  0  0  0
  8  7  1  0  0  0  0
  9  8  1  0  0  0  0
 10  9  1  0  0  0  0
 10  5  1  0  0  0  0
 11 10  2  0  0  0  0
 12 10  2  0  0  0  0
 13  8  1  0  0  0  0
 15 16  1  0  0  0  0
 15 22  1  0  0  0  0
 16 21  1  0  0  0  0
 17 16  2  0  0  0  0
 17 18  1  0  0  0  0
 18 19  2  0  0  0  0
 19 20  1  0  0  0  0
 21 42  1  0  0  0  0
 21 20  2  0  0  0  0
 24 23  1  0  0  0  0
 24 25  2  0  0  0  0
 25  1  1  0  0  0  0
 26 25  1  0  0  0  0
 27 28  1  0  0  0  0
 27 26  2  0  0  0  0
 28 24  1  0  0  0  0
 29 27  1  0  0  0  0
 30 35  1  0  0  0  0
 31 30  2  0  0  0  0
 32 33  2  0  0  0  0
 32 31  1  0  0  0  0
 33 34  1  0  0  0  0
 34 35  2  0  0  0  0
 36 31  1  0  0  0  0
 37 33  1  0  0  0  0
 37 38  1  0  0  0  0
 38 39  1  0  0  0  0
 39 40  2  0  0  0  0
 41 39  1  0  0  0  0
 42 43  1  0  0  0  0
M  END
>  <minimizedAffinity>
-1.42144156

$$$$
