
 OpenBabel08172208283D

 43 47  0  0  1  0  0  0  0  0999 V2000
   26.8830    4.1150   13.3140 C   0  0  0  0  0  0  0  0  0  0  0  0
   26.0150    4.2720   12.4520 O   0  0  0  0  0  0  0  0  0  0  0  0
   28.1440    3.5470   13.0280 N   0  0  0  0  0  0  0  0  0  0  0  0
   29.3490    3.8880   13.8300 C   0  0  2  0  0  3  0  0  0  0  0  0
   30.1370    4.9040   13.0450 C   0  0  0  0  0  0  0  0  0  0  0  0
   30.7410    4.6500   11.8700 C   0  0  0  0  0  0  0  0  0  0  0  0
   31.6160    5.6310   11.1050 C   0  0  0  0  0  2  0  0  0  0  0  0
   32.1220    6.8840   11.8450 C   0  0  0  0  0  0  0  0  0  0  0  0
   30.9550    7.5350   12.5830 C   0  0  0  0  0  2  0  0  0  0  0  0
   30.1670    6.4780   13.7640 S   0  0  0  0  0  0  0  0  0  0  0  0
   31.0010    6.4460   14.9510 O   0  0  0  0  0  0  0  0  0  0  0  0
   28.7960    6.9470   13.8740 O   0  0  0  0  0  0  0  0  0  0  0  0
   33.2890    6.5390   12.7870 C   0  0  0  0  0  1  0  0  0  0  0  0
   32.6570    7.8910   10.8020 C   0  0  0  0  0  1  0  0  0  0  0  0
   30.6190    3.4330   11.2330 N   0  0  0  0  0  0  0  0  0  0  0  0
   29.4940    2.5800   11.1310 C   0  0  0  0  0  0  0  0  0  0  0  0
   28.2990    2.6870   11.8760 C   0  0  0  0  0  0  0  0  0  0  0  0
   27.2270    1.8320   11.5370 C   0  0  0  0  0  3  0  0  0  0  0  0
   27.3280    0.8790   10.5190 C   0  0  0  0  0  3  0  0  0  0  0  0
   28.5110    0.7470    9.8100 C   0  0  0  0  0  3  0  0  0  0  0  0
   29.5720    1.5920   10.1160 C   0  0  0  0  0  0  0  0  0  0  0  0
   31.3230    3.1910   10.5330 H   0  0  0  0  0  0  0  0  0  0  0  0
   25.4180    6.8330   14.4170 C   0  0  0  0  0  1  0  0  0  0  0  0
   25.9520    5.6460   15.1080 C   0  0  0  0  0  0  0  0  0  0  0  0
   26.5960    4.4960   14.6970 C   0  0  0  0  0  0  0  0  0  0  0  0
   26.8560    3.7050   15.8080 N   0  0  0  0  0  0  0  0  0  0  0  0
   26.4060    4.4180   16.8200 C   0  0  0  0  0  0  0  0  0  0  0  0
   25.8320    5.6060   16.4690 O   0  0  0  0  0  0  0  0  0  0  0  0
   26.4330    4.1020   18.2620 C   0  0  0  0  0  1  0  0  0  0  0  0
   30.0850    2.6570   14.3800 C   0  0  0  0  0  0  0  0  0  0  0  0
   31.4350    2.6720   14.7410 C   0  0  0  0  0  0  0  0  0  0  0  0
   32.0660    1.5510   15.2800 C   0  0  0  0  0  3  0  0  0  0  0  0
   31.3580    0.3710   15.4960 C   0  0  0  0  0  0  0  0  0  0  0  0
   30.0020    0.3400   15.1900 C   0  0  0  0  0  3  0  0  0  0  0  0
   29.3730    1.4710   14.6500 C   0  0  0  0  0  3  0  0  0  0  0  0
   32.1730    3.7800   14.5950 F   0  0  0  0  0  0  0  0  0  0  0  0
   32.0930   -0.6460   16.0340 O   0  0  0  0  0  0  0  0  0  0  0  0
   32.7400   -0.4420   17.2910 C   0  0  0  0  0  2  0  0  0  0  0  0
   32.2960   -1.4610   18.3150 C   0  0  0  0  0  0  0  0  0  0  0  0
   31.1730   -2.1830   18.1680 C   0  0  0  0  0  2  0  0  0  0  0  0
   33.2010   -1.6470   19.5010 C   0  0  0  0  0  1  0  0  0  0  0  0
   30.7440    1.5100    9.3960 O   0  0  0  0  0  0  0  0  0  0  0  0
   30.6610    0.7750    8.7650 H   0  0  0  0  0  0  0  0  0  0  0  0
  1 25  1  0  0  0  0
  2  1  2  0  0  0  0
  3  1  1  0  0  0  0
  3  4  1  0  0  0  0
  4 30  1  6  0  0  0
  5 10  1  0  0  0  0
  5  4  1  0  0  0  0
  6  5  2  0  0  0  0
  7  8  1  0  0  0  0
  7  6  1  0  0  0  0
  8  9  1  0  0  0  0
  8 13  1  0  0  0  0
  9 10  1  0  0  0  0
 10 12  2  0  0  0  0
 10 11  2  0  0  0  0
 14  8  1  0  0  0  0
 15  6  1  0  0  0  0
 16 15  1  0  0  0  0
 16 17  1  0  0  0  0
 17  3  1  0  0  0  0
 18 17  2  0  0  0  0
 19 18  1  0  0  0  0
 20 21  1  0  0  0  0
 20 19  2  0  0  0  0
 21 16  2  0  0  0  0
 22 15  1  0  0  0  0
 23 24  1  0  0  0  0
 24 28  1  0  0  0  0
 25 24  2  0  0  0  0
 25 26  1  0  0  0  0
 26 27  2  0  0  0  0
 27 29  1  0  0  0  0
 28 27  1  0  0  0  0
 30 35  2  0  0  0  0
 30 31  1  0  0  0  0
 31 32  2  0  0  0  0
 32 33  1  0  0  0  0
 33 37  1  0  0  0  0
 34 33  2  0  0  0  0
 35 34  1  0  0  0  0
 36 31  1  0  0  0  0
 37 38  1  0  0  0  0
 38 39  1  0  0  0  0
 39 41  1  0  0  0  0
 40 39  2  0  0  0  0
 42 21  1  0  0  0  0
 43 42  1  0  0  0  0
M  END
>  <minimizedAffinity>
-1.5129534

$$$$
