
 OpenBabel08172208283D

 43 47  0  0  1  0  0  0  0  0999 V2000
   26.4280    3.6010   13.7000 C   0  0  0  0  0  0  0  0  0  0  0  0
   25.8130    3.4930   12.6370 O   0  0  0  0  0  0  0  0  0  0  0  0
   27.7390    3.1070   13.8740 N   0  0  0  0  0  0  0  0  0  0  0  0
   28.6760    3.7190   14.8520 C   0  0  2  0  0  3  0  0  0  0  0  0
   29.6050    4.6200   14.0810 C   0  0  0  0  0  0  0  0  0  0  0  0
   30.5080    4.1840   13.1810 C   0  0  0  0  0  0  0  0  0  0  0  0
   31.5170    5.0620   12.4580 C   0  0  0  0  0  2  0  0  0  0  0  0
   31.7640    6.4840   12.9980 C   0  0  0  0  0  0  0  0  0  0  0  0
   30.4200    7.1610   13.2560 C   0  0  0  0  0  2  0  0  0  0  0  0
   29.3880    6.3030   14.4100 S   0  0  0  0  0  0  0  0  0  0  0  0
   29.8790    6.5980   15.7430 O   0  0  0  0  0  0  0  0  0  0  0  0
   28.0200    6.6550   14.0660 O   0  0  0  0  0  0  0  0  0  0  0  0
   32.6520    6.4540   14.2540 C   0  0  0  0  0  1  0  0  0  0  0  0
   32.5170    7.2970   11.9230 C   0  0  0  0  0  1  0  0  0  0  0  0
   30.6030    2.8550   12.8260 N   0  0  0  0  0  0  0  0  0  0  0  0
   29.5770    1.8970   12.6420 C   0  0  0  0  0  0  0  0  0  0  0  0
   28.2250    2.0450   13.0210 C   0  0  0  0  0  0  0  0  0  0  0  0
   27.3110    1.0400   12.6270 C   0  0  0  0  0  3  0  0  0  0  0  0
   27.7130   -0.0900   11.9080 C   0  0  0  0  0  3  0  0  0  0  0  0
   29.0450   -0.2550   11.5660 C   0  0  0  0  0  3  0  0  0  0  0  0
   29.9560    0.7310   11.9280 C   0  0  0  0  0  0  0  0  0  0  0  0
   31.4750    2.5400   12.3960 H   0  0  0  0  0  0  0  0  0  0  0  0
   24.6110    6.3290   13.7580 C   0  0  0  0  0  1  0  0  0  0  0  0
   24.9950    5.3730   14.8120 C   0  0  0  0  0  0  0  0  0  0  0  0
   25.7720    4.2330   14.8460 C   0  0  0  0  0  0  0  0  0  0  0  0
   25.7650    3.7220   16.1370 N   0  0  0  0  0  0  0  0  0  0  0  0
   25.0360    4.5830   16.8170 C   0  0  0  0  0  0  0  0  0  0  0  0
   24.5230    5.6070   16.0730 O   0  0  0  0  0  0  0  0  0  0  0  0
   24.6970    4.5810   18.2540 C   0  0  0  0  0  1  0  0  0  0  0  0
   29.2860    2.7040   15.8320 C   0  0  0  0  0  0  0  0  0  0  0  0
   30.4890    2.9230   16.5080 C   0  0  0  0  0  0  0  0  0  0  0  0
   30.9970    2.0030   17.4250 C   0  0  0  0  0  3  0  0  0  0  0  0
   30.3030    0.8310   17.7150 C   0  0  0  0  0  0  0  0  0  0  0  0
   29.0790    0.6070   17.0930 C   0  0  0  0  0  3  0  0  0  0  0  0
   28.5740    1.5370   16.1730 C   0  0  0  0  0  3  0  0  0  0  0  0
   31.1970    4.0420   16.3080 F   0  0  0  0  0  0  0  0  0  0  0  0
   30.9060    0.0220   18.6350 O   0  0  0  0  0  0  0  0  0  0  0  0
   30.1470   -0.4400   19.7530 C   0  0  0  0  0  2  0  0  0  0  0  0
   29.8830    0.6730   20.7420 C   0  0  0  0  0  0  0  0  0  0  0  0
   28.6400    1.0690   21.0600 C   0  0  0  0  0  2  0  0  0  0  0  0
   31.0940    1.2970   21.3770 C   0  0  0  0  0  1  0  0  0  0  0  0
   31.2780    0.6120   11.5610 O   0  0  0  0  0  0  0  0  0  0  0  0
   31.3920   -0.2420   11.1110 H   0  0  0  0  0  0  0  0  0  0  0  0
  1  3  1  0  0  0  0
  1 25  1  0  0  0  0
  2  1  2  0  0  0  0
  3  4  1  0  0  0  0
  4 30  1  6  0  0  0
  5 10  1  0  0  0  0
  5  4  1  0  0  0  0
  6  5  2  0  0  0  0
  7  8  1  0  0  0  0
  7  6  1  0  0  0  0
  8  9  1  0  0  0  0
  8 13  1  0  0  0  0
  9 10  1  0  0  0  0
 10 11  2  0  0  0  0
 12 10  2  0  0  0  0
 14  8  1  0  0  0  0
 15  6  1  0  0  0  0
 16 15  1  0  0  0  0
 16 17  1  0  0  0  0
 17  3  1  0  0  0  0
 18 17  2  0  0  0  0
 19 18  1  0  0  0  0
 20 19  2  0  0  0  0
 20 21  1  0  0  0  0
 21 16  2  0  0  0  0
 22 15  1  0  0  0  0
 23 24  1  0  0  0  0
 24 25  2  0  0  0  0
 24 28  1  0  0  0  0
 25 26  1  0  0  0  0
 26 27  2  0  0  0  0
 27 29  1  0  0  0  0
 28 27  1  0  0  0  0
 30 35  2  0  0  0  0
 30 31  1  0  0  0  0
 31 32  2  0  0  0  0
 32 33  1  0  0  0  0
 33 37  1  0  0  0  0
 34 33  2  0  0  0  0
 35 34  1  0  0  0  0
 36 31  1  0  0  0  0
 37 38  1  0  0  0  0
 38 39  1  0  0  0  0
 39 40  2  0  0  0  0
 39 41  1  0  0  0  0
 42 21  1  0  0  0  0
 43 42  1  0  0  0  0
M  END
>  <minimizedAffinity>
-1.2955575

$$$$
