
 OpenBabel08172208283D

 43 47  0  0  1  0  0  0  0  0999 V2000
   28.8780    6.3880   16.7030 C   0  0  0  0  0  0  0  0  0  0  0  0
   28.5050    7.4920   17.1060 O   0  0  0  0  0  0  0  0  0  0  0  0
   28.5950    5.9180   15.4020 N   0  0  0  0  0  0  0  0  0  0  0  0
   29.4850    4.9450   14.7160 C   0  0  2  0  0  3  0  0  0  0  0  0
   30.3450    5.7240   13.7560 C   0  0  0  0  0  0  0  0  0  0  0  0
   29.8750    6.3680   12.6700 C   0  0  0  0  0  0  0  0  0  0  0  0
   30.7320    7.0830   11.6370 C   0  0  0  0  0  2  0  0  0  0  0  0
   32.2470    6.8020   11.6280 C   0  0  0  0  0  0  0  0  0  0  0  0
   32.7820    6.8960   13.0550 C   0  0  0  0  0  2  0  0  0  0  0  0
   32.0190    5.7710   14.1880 S   0  0  0  0  0  0  0  0  0  0  0  0
   32.6070    4.4620   13.9720 O   0  0  0  0  0  0  0  0  0  0  0  0
   32.1260    6.3870   15.5010 O   0  0  0  0  0  0  0  0  0  0  0  0
   32.5550    5.4420   10.9780 C   0  0  0  0  0  1  0  0  0  0  0  0
   32.9450    7.8850   10.7760 C   0  0  0  0  0  1  0  0  0  0  0  0
   28.5280    6.4350   12.3870 N   0  0  0  0  0  0  0  0  0  0  0  0
   27.4290    6.5850   13.2680 C   0  0  0  0  0  0  0  0  0  0  0  0
   27.4680    6.4590   14.6740 C   0  0  0  0  0  0  0  0  0  0  0  0
   26.3020    6.7850   15.4020 C   0  0  0  0  0  3  0  0  0  0  0  0
   25.1220    7.1950   14.7730 C   0  0  0  0  0  3  0  0  0  0  0  0
   25.0700    7.2860   13.3910 C   0  0  0  0  0  3  0  0  0  0  0  0
   26.2130    6.9870   12.6580 C   0  0  0  0  0  0  0  0  0  0  0  0
   28.2550    6.6530   11.4270 H   0  0  0  0  0  0  0  0  0  0  0  0
   31.2870    7.1620   18.7880 C   0  0  0  0  0  1  0  0  0  0  0  0
   30.6090    5.8890   18.4880 C   0  0  0  0  0  0  0  0  0  0  0  0
   29.6150    5.5060   17.6090 C   0  0  0  0  0  0  0  0  0  0  0  0
   29.3590    4.1530   17.7820 N   0  0  0  0  0  0  0  0  0  0  0  0
   30.2210    3.7790   18.7040 C   0  0  0  0  0  0  0  0  0  0  0  0
   31.0060    4.7860   19.1900 O   0  0  0  0  0  0  0  0  0  0  0  0
   30.4400    2.4380   19.2810 C   0  0  0  0  0  1  0  0  0  0  0  0
   28.7470    3.7020   14.1970 C   0  0  0  0  0  0  0  0  0  0  0  0
   29.2230    2.9170   13.1420 C   0  0  0  0  0  0  0  0  0  0  0  0
   28.5540    1.7680   12.7200 C   0  0  0  0  0  3  0  0  0  0  0  0
   27.3870    1.3500   13.3550 C   0  0  0  0  0  0  0  0  0  0  0  0
   26.9150    2.0850   14.4370 C   0  0  0  0  0  3  0  0  0  0  0  0
   27.5930    3.2390   14.8580 C   0  0  0  0  0  3  0  0  0  0  0  0
   30.3560    3.2350   12.5050 F   0  0  0  0  0  0  0  0  0  0  0  0
   26.8380    0.2080   12.8480 O   0  0  0  0  0  0  0  0  0  0  0  0
   25.4540   -0.0580   13.0810 C   0  0  0  0  0  2  0  0  0  0  0  0
   24.5840    0.5490   12.0040 C   0  0  0  0  0  0  0  0  0  0  0  0
   24.8910    0.4600   10.6990 C   0  0  0  0  0  2  0  0  0  0  0  0
   23.3320    1.2370   12.4720 C   0  0  0  0  0  1  0  0  0  0  0  0
   26.2000    7.1130   11.2870 O   0  0  0  0  0  0  0  0  0  0  0  0
   25.3010    7.3610   11.0130 H   0  0  0  0  0  0  0  0  0  0  0  0
  1  2  2  0  0  0  0
  1 25  1  0  0  0  0
  3  1  1  0  0  0  0
  4 30  1  6  0  0  0
  4  3  1  0  0  0  0
  5 10  1  0  0  0  0
  5  4  1  0  0  0  0
  6  5  2  0  0  0  0
  7  6  1  0  0  0  0
  8  7  1  0  0  0  0
  8  9  1  0  0  0  0
  9 10  1  0  0  0  0
 10 12  2  0  0  0  0
 11 10  2  0  0  0  0
 13  8  1  0  0  0  0
 14  8  1  0  0  0  0
 15  6  1  0  0  0  0
 15 16  1  0  0  0  0
 16 17  1  0  0  0  0
 17  3  1  0  0  0  0
 17 18  2  0  0  0  0
 19 18  1  0  0  0  0
 20 19  2  0  0  0  0
 21 16  2  0  0  0  0
 21 20  1  0  0  0  0
 22 15  1  0  0  0  0
 24 23  1  0  0  0  0
 24 28  1  0  0  0  0
 25 26  1  0  0  0  0
 25 24  2  0  0  0  0
 26 27  2  0  0  0  0
 27 28  1  0  0  0  0
 27 29  1  0  0  0  0
 30 35  1  0  0  0  0
 31 30  2  0  0  0  0
 32 31  1  0  0  0  0
 32 33  2  0  0  0  0
 33 34  1  0  0  0  0
 34 35  2  0  0  0  0
 36 31  1  0  0  0  0
 37 38  1  0  0  0  0
 37 33  1  0  0  0  0
 39 41  1  0  0  0  0
 39 38  1  0  0  0  0
 40 39  2  0  0  0  0
 42 21  1  0  0  0  0
 43 42  1  0  0  0  0
M  END
>  <minimizedAffinity>
-2.06076264

$$$$

 OpenBabel08172208283D

 43 47  0  0  1  0  0  0  0  0999 V2000
   25.5040    2.7100   12.4060 C   0  0  0  0  0  0  0  0  0  0  0  0
   24.3870    3.0760   12.7810 O   0  0  0  0  0  0  0  0  0  0  0  0
   26.6930    3.3360   12.8360 N   0  0  0  0  0  0  0  0  0  0  0  0
   27.9810    2.5960   12.9030 C   0  0  2  0  0  3  0  0  0  0  0  0
   28.2020    2.2090   14.3430 C   0  0  0  0  0  0  0  0  0  0  0  0
   28.4230    3.0900   15.3370 C   0  0  0  0  0  0  0  0  0  0  0  0
   28.7380    2.7220   16.7780 C   0  0  0  0  0  2  0  0  0  0  0  0
   29.1530    1.2690   17.0840 C   0  0  0  0  0  0  0  0  0  0  0  0
   28.1790    0.3160   16.3960 C   0  0  0  0  0  2  0  0  0  0  0  0
   28.1000    0.5080   14.6380 S   0  0  0  0  0  0  0  0  0  0  0  0
   29.2630   -0.1470   14.0720 O   0  0  0  0  0  0  0  0  0  0  0  0
   26.7730    0.0630   14.2440 O   0  0  0  0  0  0  0  0  0  0  0  0
   30.6120    1.0100   16.6730 C   0  0  0  0  0  1  0  0  0  0  0  0
   29.0590    1.0400   18.6090 C   0  0  0  0  0  1  0  0  0  0  0  0
   28.3850    4.4520   15.1290 N   0  0  0  0  0  0  0  0  0  0  0  0
   27.5230    5.2130   14.3020 C   0  0  0  0  0  0  0  0  0  0  0  0
   26.6540    4.7010   13.3140 C   0  0  0  0  0  0  0  0  0  0  0  0
   25.7620    5.5980   12.6850 C   0  0  0  0  0  3  0  0  0  0  0  0
   25.7390    6.9620   12.9910 C   0  0  0  0  0  3  0  0  0  0  0  0
   26.6160    7.4740   13.9350 C   0  0  0  0  0  3  0  0  0  0  0  0
   27.4880    6.6040   14.5780 C   0  0  0  0  0  0  0  0  0  0  0  0
   28.8520    5.0500   15.8130 H   0  0  0  0  0  0  0  0  0  0  0  0
   26.0980    2.8520    9.1850 C   0  0  0  0  0  1  0  0  0  0  0  0
   25.8890    1.7190   10.1030 C   0  0  0  0  0  0  0  0  0  0  0  0
   25.6120    1.6060   11.4510 C   0  0  0  0  0  0  0  0  0  0  0  0
   25.5360    0.2600   11.7830 N   0  0  0  0  0  0  0  0  0  0  0  0
   25.7230   -0.3620   10.6380 C   0  0  0  0  0  0  0  0  0  0  0  0
   25.9560    0.4620    9.5730 O   0  0  0  0  0  0  0  0  0  0  0  0
   25.7230   -1.8120   10.3580 C   0  0  0  0  0  1  0  0  0  0  0  0
   29.1250    3.2880   12.1470 C   0  0  0  0  0  0  0  0  0  0  0  0
   30.4750    3.0480   12.4180 C   0  0  0  0  0  0  0  0  0  0  0  0
   31.4930    3.6580   11.6850 C   0  0  0  0  0  3  0  0  0  0  0  0
   31.1930    4.5230   10.6350 C   0  0  0  0  0  0  0  0  0  0  0  0
   29.8590    4.7450   10.3120 C   0  0  0  0  0  3  0  0  0  0  0  0
   28.8400    4.1270   11.0510 C   0  0  0  0  0  3  0  0  0  0  0  0
   30.8420    2.2040   13.3900 F   0  0  0  0  0  0  0  0  0  0  0  0
   32.2810    5.0460    9.9970 O   0  0  0  0  0  0  0  0  0  0  0  0
   33.2920    5.6930   10.7700 C   0  0  0  0  0  2  0  0  0  0  0  0
   32.8580    7.0740   11.2060 C   0  0  0  0  0  0  0  0  0  0  0  0
   32.1540    7.8900   10.4040 C   0  0  0  0  0  2  0  0  0  0  0  0
   33.2350    7.4780   12.6040 C   0  0  0  0  0  1  0  0  0  0  0  0
   28.3390    7.0800   15.5510 O   0  0  0  0  0  0  0  0  0  0  0  0
   28.2260    8.0440   15.6070 H   0  0  0  0  0  0  0  0  0  0  0  0
  1  2  2  0  0  0  0
  1  3  1  0  0  0  0
  3  4  1  0  0  0  0
  3 17  1  0  0  0  0
  4 30  1  1  0  0  0
  4  5  1  0  0  0  0
  5 10  1  0  0  0  0
  5  6  2  0  0  0  0
  6  7  1  0  0  0  0
  7  8  1  0  0  0  0
  8 14  1  0  0  0  0
  9  8  1  0  0  0  0
 10  9  1  0  0  0  0
 11 10  2  0  0  0  0
 12 10  2  0  0  0  0
 13  8  1  0  0  0  0
 15  6  1  0  0  0  0
 15 22  1  0  0  0  0
 16 21  1  0  0  0  0
 16 15  1  0  0  0  0
 17 16  2  0  0  0  0
 18 19  2  0  0  0  0
 18 17  1  0  0  0  0
 19 20  1  0  0  0  0
 20 21  2  0  0  0  0
 21 42  1  0  0  0  0
 23 24  1  0  0  0  0
 24 25  2  0  0  0  0
 25 26  1  0  0  0  0
 25  1  1  0  0  0  0
 27 26  2  0  0  0  0
 28 24  1  0  0  0  0
 28 27  1  0  0  0  0
 29 27  1  0  0  0  0
 30 31  1  0  0  0  0
 31 36  1  0  0  0  0
 32 31  2  0  0  0  0
 33 32  1  0  0  0  0
 34 33  2  0  0  0  0
 34 35  1  0  0  0  0
 35 30  2  0  0  0  0
 37 33  1  0  0  0  0
 37 38  1  0  0  0  0
 38 39  1  0  0  0  0
 39 41  1  0  0  0  0
 40 39  2  0  0  0  0
 42 43  1  0  0  0  0
M  END
>  <minimizedAffinity>
-1.80986607

$$$$

 OpenBabel08172208283D

 43 47  0  0  1  0  0  0  0  0999 V2000
   29.7100    1.9900   14.7850 C   0  0  0  0  0  0  0  0  0  0  0  0
   30.4250    1.6670   15.7360 O   0  0  0  0  0  0  0  0  0  0  0  0
   29.1150    3.2660   14.6800 N   0  0  0  0  0  0  0  0  0  0  0  0
   28.7900    3.8660   13.3590 C   0  0  2  0  0  3  0  0  0  0  0  0
   29.8830    4.8510   13.0330 C   0  0  0  0  0  0  0  0  0  0  0  0
   30.1080    5.9860   13.7210 C   0  0  0  0  0  0  0  0  0  0  0  0
   31.1430    7.0390   13.3570 C   0  0  0  0  0  2  0  0  0  0  0  0
   31.7660    6.9910   11.9480 C   0  0  0  0  0  0  0  0  0  0  0  0
   32.1980    5.5590   11.6410 C   0  0  0  0  0  2  0  0  0  0  0  0
   30.8820    4.3780   11.7030 S   0  0  0  0  0  0  0  0  0  0  0  0
   30.1270    4.4960   10.4700 O   0  0  0  0  0  0  0  0  0  0  0  0
   31.4990    3.1040   12.0360 O   0  0  0  0  0  0  0  0  0  0  0  0
   30.7940    7.5460   10.8930 C   0  0  0  0  0  1  0  0  0  0  0  0
   33.0220    7.8900   11.9330 C   0  0  0  0  0  1  0  0  0  0  0  0
   29.3920    6.3080   14.8540 N   0  0  0  0  0  0  0  0  0  0  0  0
   28.9280    5.4680   15.8950 C   0  0  0  0  0  0  0  0  0  0  0  0
   28.8980    4.0560   15.8720 C   0  0  0  0  0  0  0  0  0  0  0  0
   28.5350    3.3810   17.0590 C   0  0  0  0  0  3  0  0  0  0  0  0
   28.1840    4.0650   18.2270 C   0  0  0  0  0  3  0  0  0  0  0  0
   28.1790    5.4510   18.2420 C   0  0  0  0  0  3  0  0  0  0  0  0
   28.5510    6.1330   17.0890 C   0  0  0  0  0  0  0  0  0  0  0  0
   29.3820    7.2880   15.1460 H   0  0  0  0  0  0  0  0  0  0  0  0
   31.8000   -0.0530   13.3000 C   0  0  0  0  0  1  0  0  0  0  0  0
   30.3490    0.1540   13.1560 C   0  0  0  0  0  0  0  0  0  0  0  0
   29.4330    1.0110   13.7330 C   0  0  0  0  0  0  0  0  0  0  0  0
   28.1740    0.7380   13.2150 N   0  0  0  0  0  0  0  0  0  0  0  0
   28.3900   -0.2200   12.3380 C   0  0  0  0  0  0  0  0  0  0  0  0
   29.6890   -0.6340   12.2560 O   0  0  0  0  0  0  0  0  0  0  0  0
   27.4260   -0.9000   11.4510 C   0  0  0  0  0  1  0  0  0  0  0  0
   27.3290    4.3260   13.2400 C   0  0  0  0  0  0  0  0  0  0  0  0
   26.9100    5.3110   12.3410 C   0  0  0  0  0  0  0  0  0  0  0  0
   25.5700    5.6780   12.2230 C   0  0  0  0  0  3  0  0  0  0  0  0
   24.5910    5.0530   12.9920 C   0  0  0  0  0  0  0  0  0  0  0  0
   24.9720    4.0370   13.8610 C   0  0  0  0  0  3  0  0  0  0  0  0
   26.3210    3.6720   13.9740 C   0  0  0  0  0  3  0  0  0  0  0  0
   27.7880    5.9330   11.5440 F   0  0  0  0  0  0  0  0  0  0  0  0
   23.3200    5.5010   12.7730 O   0  0  0  0  0  0  0  0  0  0  0  0
   22.7600    5.3830   11.4650 C   0  0  0  0  0  2  0  0  0  0  0  0
   22.4300    3.9450   11.1310 C   0  0  0  0  0  0  0  0  0  0  0  0
   23.0100    3.2950   10.1090 C   0  0  0  0  0  2  0  0  0  0  0  0
   21.4330    3.2680   12.0300 C   0  0  0  0  0  1  0  0  0  0  0  0
   28.5960    7.5100   17.0920 O   0  0  0  0  0  0  0  0  0  0  0  0
   28.2830    7.8220   17.9580 H   0  0  0  0  0  0  0  0  0  0  0  0
  1  2  2  0  0  0  0
  3  1  1  0  0  0  0
  3 17  1  0  0  0  0
  4 30  1  1  0  0  0
  4  3  1  0  0  0  0
  5  4  1  0  0  0  0
  5  6  2  0  0  0  0
  6 15  1  0  0  0  0
  7  6  1  0  0  0  0
  8  7  1  0  0  0  0
  9 10  1  0  0  0  0
  9  8  1  0  0  0  0
 10 12  2  0  0  0  0
 10  5  1  0  0  0  0
 11 10  2  0  0  0  0
 13  8  1  0  0  0  0
 14  8  1  0  0  0  0
 15 22  1  0  0  0  0
 15 16  1  0  0  0  0
 16 21  1  0  0  0  0
 17 16  2  0  0  0  0
 17 18  1  0  0  0  0
 18 19  2  0  0  0  0
 19 20  1  0  0  0  0
 21 42  1  0  0  0  0
 21 20  2  0  0  0  0
 24 23  1  0  0  0  0
 24 25  2  0  0  0  0
 25  1  1  0  0  0  0
 26 25  1  0  0  0  0
 27 26  2  0  0  0  0
 28 27  1  0  0  0  0
 28 24  1  0  0  0  0
 29 27  1  0  0  0  0
 30 35  1  0  0  0  0
 31 30  2  0  0  0  0
 32 31  1  0  0  0  0
 32 33  2  0  0  0  0
 33 34  1  0  0  0  0
 34 35  2  0  0  0  0
 36 31  1  0  0  0  0
 37 33  1  0  0  0  0
 38 37  1  0  0  0  0
 39 38  1  0  0  0  0
 39 41  1  0  0  0  0
 40 39  2  0  0  0  0
 42 43  1  0  0  0  0
M  END
>  <minimizedAffinity>
-1.7501266

$$$$

 OpenBabel08172208283D

 43 47  0  0  1  0  0  0  0  0999 V2000
   29.5890    1.8790   15.2630 C   0  0  0  0  0  0  0  0  0  0  0  0
   30.4870    1.0930   15.5740 O   0  0  0  0  0  0  0  0  0  0  0  0
   29.5860    3.2300   15.6690 N   0  0  0  0  0  0  0  0  0  0  0  0
   28.9110    4.2820   14.8640 C   0  0  2  0  0  3  0  0  0  0  0  0
   29.9770    4.9950   14.0730 C   0  0  0  0  0  0  0  0  0  0  0  0
   30.9460    5.7520   14.6220 C   0  0  0  0  0  0  0  0  0  0  0  0
   31.9770    6.5540   13.8420 C   0  0  0  0  0  2  0  0  0  0  0  0
   31.7280    6.7940   12.3400 C   0  0  0  0  0  0  0  0  0  0  0  0
   31.3370    5.4740   11.6810 C   0  0  0  0  0  2  0  0  0  0  0  0
   29.8880    4.7240   12.3670 S   0  0  0  0  0  0  0  0  0  0  0  0
   28.7350    5.4230   11.8310 O   0  0  0  0  0  0  0  0  0  0  0  0
   30.0230    3.2960   12.1330 O   0  0  0  0  0  0  0  0  0  0  0  0
   30.6720    7.8910   12.1220 C   0  0  0  0  0  1  0  0  0  0  0  0
   33.0420    7.2870   11.6950 C   0  0  0  0  0  1  0  0  0  0  0  0
   31.0940    5.8730   15.9870 N   0  0  0  0  0  0  0  0  0  0  0  0
   30.9270    4.8990   17.0010 C   0  0  0  0  0  0  0  0  0  0  0  0
   30.3320    3.6290   16.8420 C   0  0  0  0  0  0  0  0  0  0  0  0
   30.3820    2.7320   17.9330 C   0  0  0  0  0  3  0  0  0  0  0  0
   30.9710    3.0760   19.1540 C   0  0  0  0  0  3  0  0  0  0  0  0
   31.5250    4.3350   19.3240 C   0  0  0  0  0  3  0  0  0  0  0  0
   31.5030    5.2250   18.2560 C   0  0  0  0  0  0  0  0  0  0  0  0
   31.6230    6.6750   16.3370 H   0  0  0  0  0  0  0  0  0  0  0  0
   26.5610    1.1330   16.2750 C   0  0  0  0  0  1  0  0  0  0  0  0
   27.1910    1.1170   14.9430 C   0  0  0  0  0  0  0  0  0  0  0  0
   28.4580    1.3940   14.4700 C   0  0  0  0  0  0  0  0  0  0  0  0
   28.4700    1.2230   13.0920 N   0  0  0  0  0  0  0  0  0  0  0  0
   27.2500    0.8180   12.8090 C   0  0  0  0  0  0  0  0  0  0  0  0
   26.4120    0.7410   13.8850 O   0  0  0  0  0  0  0  0  0  0  0  0
   26.6740    0.4490   11.5010 C   0  0  0  0  0  1  0  0  0  0  0  0
   27.9120    5.1240   15.6720 C   0  0  0  0  0  0  0  0  0  0  0  0
   27.5260    6.4150   15.3020 C   0  0  0  0  0  0  0  0  0  0  0  0
   26.5830    7.1400   16.0310 C   0  0  0  0  0  3  0  0  0  0  0  0
   25.9740    6.5860   17.1550 C   0  0  0  0  0  0  0  0  0  0  0  0
   26.3030    5.2860   17.5210 C   0  0  0  0  0  3  0  0  0  0  0  0
   27.2510    4.5620   16.7820 C   0  0  0  0  0  3  0  0  0  0  0  0
   28.0410    7.0020   14.2150 F   0  0  0  0  0  0  0  0  0  0  0  0
   25.0660    7.3980   17.7710 O   0  0  0  0  0  0  0  0  0  0  0  0
   23.9150    7.8270   17.0430 C   0  0  0  0  0  2  0  0  0  0  0  0
   22.9480    6.6870   16.8110 C   0  0  0  0  0  0  0  0  0  0  0  0
   22.3160    6.0670   17.8210 C   0  0  0  0  0  2  0  0  0  0  0  0
   22.7090    6.3020   15.3780 C   0  0  0  0  0  1  0  0  0  0  0  0
   32.0860    6.4660   18.3860 O   0  0  0  0  0  0  0  0  0  0  0  0
   32.4050    6.5570   19.2990 H   0  0  0  0  0  0  0  0  0  0  0  0
  1  2  2  0  0  0  0
  1  3  1  0  0  0  0
  3 17  1  0  0  0  0
  4  3  1  0  0  0  0
  4 30  1  1  0  0  0
  5  6  2  0  0  0  0
  5  4  1  0  0  0  0
  6 15  1  0  0  0  0
  7  6  1  0  0  0  0
  8  7  1  0  0  0  0
  9  8  1  0  0  0  0
  9 10  1  0  0  0  0
 10  5  1  0  0  0  0
 11 10  2  0  0  0  0
 12 10  2  0  0  0  0
 13  8  1  0  0  0  0
 14  8  1  0  0  0  0
 15 22  1  0  0  0  0
 15 16  1  0  0  0  0
 16 21  1  0  0  0  0
 17 16  2  0  0  0  0
 17 18  1  0  0  0  0
 18 19  2  0  0  0  0
 19 20  1  0  0  0  0
 21 42  1  0  0  0  0
 21 20  2  0  0  0  0
 24 23  1  0  0  0  0
 25 24  2  0  0  0  0
 25  1  1  0  0  0  0
 26 25  1  0  0  0  0
 27 26  2  0  0  0  0
 27 28  1  0  0  0  0
 28 24  1  0  0  0  0
 29 27  1  0  0  0  0
 30 35  1  0  0  0  0
 31 30  2  0  0  0  0
 31 32  1  0  0  0  0
 32 33  2  0  0  0  0
 33 34  1  0  0  0  0
 33 37  1  0  0  0  0
 35 34  2  0  0  0  0
 36 31  1  0  0  0  0
 38 37  1  0  0  0  0
 39 38  1  0  0  0  0
 39 40  2  0  0  0  0
 41 39  1  0  0  0  0
 42 43  1  0  0  0  0
M  END
>  <minimizedAffinity>
-1.68297744

$$$$

 OpenBabel08172208283D

 43 47  0  0  1  0  0  0  0  0999 V2000
   26.7410    2.2470   16.6100 C   0  0  0  0  0  0  0  0  0  0  0  0
   25.5100    2.2270   16.6650 O   0  0  0  0  0  0  0  0  0  0  0  0
   27.4640    3.3760   16.1660 N   0  0  0  0  0  0  0  0  0  0  0  0
   28.8470    3.6480   16.6390 C   0  0  2  0  0  3  0  0  0  0  0  0
   28.7550    4.6990   17.7150 C   0  0  0  0  0  0  0  0  0  0  0  0
   28.3600    5.9680   17.5010 C   0  0  0  0  0  0  0  0  0  0  0  0
   28.3450    7.0690   18.5500 C   0  0  0  0  0  2  0  0  0  0  0  0
   29.1220    6.8350   19.8610 C   0  0  0  0  0  0  0  0  0  0  0  0
   28.7800    5.4500   20.4050 C   0  0  0  0  0  2  0  0  0  0  0  0
   29.1580    4.1240   19.2960 S   0  0  0  0  0  0  0  0  0  0  0  0
   30.5870    3.8840   19.3680 O   0  0  0  0  0  0  0  0  0  0  0  0
   28.2410    3.0460   19.6290 O   0  0  0  0  0  0  0  0  0  0  0  0
   30.6340    7.0220   19.6500 C   0  0  0  0  0  1  0  0  0  0  0  0
   28.6700    7.8880   20.8960 C   0  0  0  0  0  1  0  0  0  0  0  0
   27.9220    6.3990   16.2670 N   0  0  0  0  0  0  0  0  0  0  0  0
   27.1350    5.7220   15.3040 C   0  0  0  0  0  0  0  0  0  0  0  0
   26.8230    4.3450   15.3050 C   0  0  0  0  0  0  0  0  0  0  0  0
   25.9040    3.8720   14.3420 C   0  0  0  0  0  3  0  0  0  0  0  0
   25.3280    4.7140   13.3850 C   0  0  0  0  0  3  0  0  0  0  0  0
   25.6600    6.0600   13.3590 C   0  0  0  0  0  3  0  0  0  0  0  0
   26.5480    6.5480   14.3110 C   0  0  0  0  0  0  0  0  0  0  0  0
   27.9350    7.4050   16.0840 H   0  0  0  0  0  0  0  0  0  0  0  0
   28.1790    0.0470   14.6510 C   0  0  0  0  0  1  0  0  0  0  0  0
   28.1030    0.1650   16.1170 C   0  0  0  0  0  0  0  0  0  0  0  0
   27.4950    1.0500   16.9860 C   0  0  0  0  0  0  0  0  0  0  0  0
   27.7850    0.6710   18.2890 N   0  0  0  0  0  0  0  0  0  0  0  0
   28.5020   -0.4250   18.1520 C   0  0  0  0  0  0  0  0  0  0  0  0
   28.7460   -0.7860   16.8580 O   0  0  0  0  0  0  0  0  0  0  0  0
   29.0750   -1.2960   19.1970 C   0  0  0  0  0  1  0  0  0  0  0  0
   29.8540    3.8560   15.4970 C   0  0  0  0  0  0  0  0  0  0  0  0
   31.0810    4.5030   15.6690 C   0  0  0  0  0  0  0  0  0  0  0  0
   31.9950    4.6380   14.6240 C   0  0  0  0  0  3  0  0  0  0  0  0
   31.7190    4.1100   13.3650 C   0  0  0  0  0  0  0  0  0  0  0  0
   30.5270    3.4210   13.1760 C   0  0  0  0  0  3  0  0  0  0  0  0
   29.6130    3.2860   14.2310 C   0  0  0  0  0  3  0  0  0  0  0  0
   31.4320    5.0070   16.8580 F   0  0  0  0  0  0  0  0  0  0  0  0
   32.7000    4.3060   12.4360 O   0  0  0  0  0  0  0  0  0  0  0  0
   33.3020    5.5970   12.3270 C   0  0  0  0  0  2  0  0  0  0  0  0
   32.3940    6.5740   11.6160 C   0  0  0  0  0  0  0  0  0  0  0  0
   32.0980    7.7810   12.1280 C   0  0  0  0  0  2  0  0  0  0  0  0
   31.8590    6.1330   10.2820 C   0  0  0  0  0  1  0  0  0  0  0  0
   26.8600    7.8890   14.3330 O   0  0  0  0  0  0  0  0  0  0  0  0
   26.4140    8.3170   13.5830 H   0  0  0  0  0  0  0  0  0  0  0  0
  1  2  2  0  0  0  0
  1 25  1  0  0  0  0
  3  1  1  0  0  0  0
  3  4  1  0  0  0  0
  4 30  1  6  0  0  0
  4  5  1  0  0  0  0
  5 10  1  0  0  0  0
  6  5  2  0  0  0  0
  6  7  1  0  0  0  0
  7  8  1  0  0  0  0
  8  9  1  0  0  0  0
  8 14  1  0  0  0  0
 10 11  2  0  0  0  0
 10 12  2  0  0  0  0
 10  9  1  0  0  0  0
 13  8  1  0  0  0  0
 15  6  1  0  0  0  0
 16 17  1  0  0  0  0
 16 15  1  0  0  0  0
 17  3  1  0  0  0  0
 18 17  2  0  0  0  0
 19 18  1  0  0  0  0
 20 19  2  0  0  0  0
 20 21  1  0  0  0  0
 21 42  1  0  0  0  0
 21 16  2  0  0  0  0
 22 15  1  0  0  0  0
 23 24  1  0  0  0  0
 24 28  1  0  0  0  0
 24 25  2  0  0  0  0
 25 26  1  0  0  0  0
 27 26  2  0  0  0  0
 27 29  1  0  0  0  0
 28 27  1  0  0  0  0
 30 31  1  0  0  0  0
 31 36  1  0  0  0  0
 32 31  2  0  0  0  0
 33 32  1  0  0  0  0
 34 33  2  0  0  0  0
 34 35  1  0  0  0  0
 35 30  2  0  0  0  0
 37 33  1  0  0  0  0
 38 37  1  0  0  0  0
 39 40  2  0  0  0  0
 39 38  1  0  0  0  0
 41 39  1  0  0  0  0
 43 42  1  0  0  0  0
M  END
>  <minimizedAffinity>
-1.54570913

$$$$

 OpenBabel08172208283D

 43 47  0  0  1  0  0  0  0  0999 V2000
   26.8830    4.1150   13.3140 C   0  0  0  0  0  0  0  0  0  0  0  0
   26.0150    4.2720   12.4520 O   0  0  0  0  0  0  0  0  0  0  0  0
   28.1440    3.5470   13.0280 N   0  0  0  0  0  0  0  0  0  0  0  0
   29.3490    3.8880   13.8300 C   0  0  2  0  0  3  0  0  0  0  0  0
   30.1370    4.9040   13.0450 C   0  0  0  0  0  0  0  0  0  0  0  0
   30.7410    4.6500   11.8700 C   0  0  0  0  0  0  0  0  0  0  0  0
   31.6160    5.6310   11.1050 C   0  0  0  0  0  2  0  0  0  0  0  0
   32.1220    6.8840   11.8450 C   0  0  0  0  0  0  0  0  0  0  0  0
   30.9550    7.5350   12.5830 C   0  0  0  0  0  2  0  0  0  0  0  0
   30.1670    6.4780   13.7640 S   0  0  0  0  0  0  0  0  0  0  0  0
   31.0010    6.4460   14.9510 O   0  0  0  0  0  0  0  0  0  0  0  0
   28.7960    6.9470   13.8740 O   0  0  0  0  0  0  0  0  0  0  0  0
   33.2890    6.5390   12.7870 C   0  0  0  0  0  1  0  0  0  0  0  0
   32.6570    7.8910   10.8020 C   0  0  0  0  0  1  0  0  0  0  0  0
   30.6190    3.4330   11.2330 N   0  0  0  0  0  0  0  0  0  0  0  0
   29.4940    2.5800   11.1310 C   0  0  0  0  0  0  0  0  0  0  0  0
   28.2990    2.6870   11.8760 C   0  0  0  0  0  0  0  0  0  0  0  0
   27.2270    1.8320   11.5370 C   0  0  0  0  0  3  0  0  0  0  0  0
   27.3280    0.8790   10.5190 C   0  0  0  0  0  3  0  0  0  0  0  0
   28.5110    0.7470    9.8100 C   0  0  0  0  0  3  0  0  0  0  0  0
   29.5720    1.5920   10.1160 C   0  0  0  0  0  0  0  0  0  0  0  0
   31.3230    3.1910   10.5330 H   0  0  0  0  0  0  0  0  0  0  0  0
   25.4180    6.8330   14.4170 C   0  0  0  0  0  1  0  0  0  0  0  0
   25.9520    5.6460   15.1080 C   0  0  0  0  0  0  0  0  0  0  0  0
   26.5960    4.4960   14.6970 C   0  0  0  0  0  0  0  0  0  0  0  0
   26.8560    3.7050   15.8080 N   0  0  0  0  0  0  0  0  0  0  0  0
   26.4060    4.4180   16.8200 C   0  0  0  0  0  0  0  0  0  0  0  0
   25.8320    5.6060   16.4690 O   0  0  0  0  0  0  0  0  0  0  0  0
   26.4330    4.1020   18.2620 C   0  0  0  0  0  1  0  0  0  0  0  0
   30.0850    2.6570   14.3800 C   0  0  0  0  0  0  0  0  0  0  0  0
   31.4350    2.6720   14.7410 C   0  0  0  0  0  0  0  0  0  0  0  0
   32.0660    1.5510   15.2800 C   0  0  0  0  0  3  0  0  0  0  0  0
   31.3580    0.3710   15.4960 C   0  0  0  0  0  0  0  0  0  0  0  0
   30.0020    0.3400   15.1900 C   0  0  0  0  0  3  0  0  0  0  0  0
   29.3730    1.4710   14.6500 C   0  0  0  0  0  3  0  0  0  0  0  0
   32.1730    3.7800   14.5950 F   0  0  0  0  0  0  0  0  0  0  0  0
   32.0930   -0.6460   16.0340 O   0  0  0  0  0  0  0  0  0  0  0  0
   32.7400   -0.4420   17.2910 C   0  0  0  0  0  2  0  0  0  0  0  0
   32.2960   -1.4610   18.3150 C   0  0  0  0  0  0  0  0  0  0  0  0
   31.1730   -2.1830   18.1680 C   0  0  0  0  0  2  0  0  0  0  0  0
   33.2010   -1.6470   19.5010 C   0  0  0  0  0  1  0  0  0  0  0  0
   30.7440    1.5100    9.3960 O   0  0  0  0  0  0  0  0  0  0  0  0
   30.6610    0.7750    8.7650 H   0  0  0  0  0  0  0  0  0  0  0  0
  1 25  1  0  0  0  0
  2  1  2  0  0  0  0
  3  1  1  0  0  0  0
  3  4  1  0  0  0  0
  4 30  1  6  0  0  0
  5 10  1  0  0  0  0
  5  4  1  0  0  0  0
  6  5  2  0  0  0  0
  7  8  1  0  0  0  0
  7  6  1  0  0  0  0
  8  9  1  0  0  0  0
  8 13  1  0  0  0  0
  9 10  1  0  0  0  0
 10 12  2  0  0  0  0
 10 11  2  0  0  0  0
 14  8  1  0  0  0  0
 15  6  1  0  0  0  0
 16 15  1  0  0  0  0
 16 17  1  0  0  0  0
 17  3  1  0  0  0  0
 18 17  2  0  0  0  0
 19 18  1  0  0  0  0
 20 21  1  0  0  0  0
 20 19  2  0  0  0  0
 21 16  2  0  0  0  0
 22 15  1  0  0  0  0
 23 24  1  0  0  0  0
 24 28  1  0  0  0  0
 25 24  2  0  0  0  0
 25 26  1  0  0  0  0
 26 27  2  0  0  0  0
 27 29  1  0  0  0  0
 28 27  1  0  0  0  0
 30 35  2  0  0  0  0
 30 31  1  0  0  0  0
 31 32  2  0  0  0  0
 32 33  1  0  0  0  0
 33 37  1  0  0  0  0
 34 33  2  0  0  0  0
 35 34  1  0  0  0  0
 36 31  1  0  0  0  0
 37 38  1  0  0  0  0
 38 39  1  0  0  0  0
 39 41  1  0  0  0  0
 40 39  2  0  0  0  0
 42 21  1  0  0  0  0
 43 42  1  0  0  0  0
M  END
>  <minimizedAffinity>
-1.5129534

$$$$

 OpenBabel08172208283D

 43 47  0  0  1  0  0  0  0  0999 V2000
   28.7330    6.4290   16.3360 C   0  0  0  0  0  0  0  0  0  0  0  0
   28.8300    7.3260   17.1760 O   0  0  0  0  0  0  0  0  0  0  0  0
   28.4010    5.1000   16.6760 N   0  0  0  0  0  0  0  0  0  0  0  0
   27.7120    4.2010   15.7130 C   0  0  2  0  0  3  0  0  0  0  0  0
   26.2520    4.1790   16.0850 C   0  0  0  0  0  0  0  0  0  0  0  0
   25.7710    3.6580   17.2290 C   0  0  0  0  0  0  0  0  0  0  0  0
   24.2970    3.5420   17.5860 C   0  0  0  0  0  2  0  0  0  0  0  0
   23.2590    3.7280   16.4620 C   0  0  0  0  0  0  0  0  0  0  0  0
   23.6100    4.9780   15.6590 C   0  0  0  0  0  2  0  0  0  0  0  0
   25.2190    4.9370   14.9230 S   0  0  0  0  0  0  0  0  0  0  0  0
   25.1390    4.1050   13.7380 O   0  0  0  0  0  0  0  0  0  0  0  0
   25.6360    6.3230   14.7880 O   0  0  0  0  0  0  0  0  0  0  0  0
   23.1690    2.4730   15.5770 C   0  0  0  0  0  1  0  0  0  0  0  0
   21.8700    3.9370   17.1020 C   0  0  0  0  0  1  0  0  0  0  0  0
   26.6000    3.1610   18.2120 N   0  0  0  0  0  0  0  0  0  0  0  0
   27.8540    3.6430   18.6600 C   0  0  0  0  0  0  0  0  0  0  0  0
   28.6460    4.6200   18.0180 C   0  0  0  0  0  0  0  0  0  0  0  0
   29.8020    5.0820   18.6870 C   0  0  0  0  0  3  0  0  0  0  0  0
   30.1890    4.5830   19.9340 C   0  0  0  0  0  3  0  0  0  0  0  0
   29.4330    3.5980   20.5510 C   0  0  0  0  0  3  0  0  0  0  0  0
   28.2820    3.1440   19.9170 C   0  0  0  0  0  0  0  0  0  0  0  0
   26.1950    2.5150   18.8930 H   0  0  0  0  0  0  0  0  0  0  0  0
   31.4650    5.8570   14.6150 C   0  0  0  0  0  1  0  0  0  0  0  0
   30.1680    6.4490   14.2440 C   0  0  0  0  0  0  0  0  0  0  0  0
   29.0030    6.7340   14.9300 C   0  0  0  0  0  0  0  0  0  0  0  0
   28.0850    7.2840   14.0460 N   0  0  0  0  0  0  0  0  0  0  0  0
   28.7360    7.3450   12.9040 C   0  0  0  0  0  0  0  0  0  0  0  0
   30.0060    6.8430   12.9460 O   0  0  0  0  0  0  0  0  0  0  0  0
   28.2790    7.8680   11.6010 C   0  0  0  0  0  1  0  0  0  0  0  0
   28.4350    2.8610   15.5040 C   0  0  0  0  0  0  0  0  0  0  0  0
   27.7880    1.7070   15.0530 C   0  0  0  0  0  0  0  0  0  0  0  0
   28.4780    0.5160   14.8290 C   0  0  0  0  0  3  0  0  0  0  0  0
   29.8540    0.4420   15.0330 C   0  0  0  0  0  0  0  0  0  0  0  0
   30.5320    1.5870   15.4360 C   0  0  0  0  0  3  0  0  0  0  0  0
   29.8330    2.7820   15.6570 C   0  0  0  0  0  3  0  0  0  0  0  0
   26.4730    1.7090   14.8030 F   0  0  0  0  0  0  0  0  0  0  0  0
   30.4060   -0.7790   14.7710 O   0  0  0  0  0  0  0  0  0  0  0  0
   31.2470   -1.3840   15.7540 C   0  0  0  0  0  2  0  0  0  0  0  0
   30.4500   -1.8590   16.9480 C   0  0  0  0  0  0  0  0  0  0  0  0
   30.6360   -1.3560   18.1800 C   0  0  0  0  0  2  0  0  0  0  0  0
   29.4120   -2.9120   16.6760 C   0  0  0  0  0  1  0  0  0  0  0  0
   27.4900    2.1980   20.5290 O   0  0  0  0  0  0  0  0  0  0  0  0
   27.9220    1.9310   21.3580 H   0  0  0  0  0  0  0  0  0  0  0  0
  1  3  1  0  0  0  0
  1  2  2  0  0  0  0
  3 17  1  0  0  0  0
  4 30  1  1  0  0  0
  4  5  1  0  0  0  0
  4  3  1  0  0  0  0
  5  6  2  0  0  0  0
  6  7  1  0  0  0  0
  6 15  1  0  0  0  0
  8 14  1  0  0  0  0
  8  7  1  0  0  0  0
  9  8  1  0  0  0  0
 10  9  1  0  0  0  0
 10  5  1  0  0  0  0
 11 10  2  0  0  0  0
 12 10  2  0  0  0  0
 13  8  1  0  0  0  0
 15 16  1  0  0  0  0
 15 22  1  0  0  0  0
 16 21  1  0  0  0  0
 17 16  2  0  0  0  0
 17 18  1  0  0  0  0
 18 19  2  0  0  0  0
 19 20  1  0  0  0  0
 21 42  1  0  0  0  0
 21 20  2  0  0  0  0
 24 23  1  0  0  0  0
 24 25  2  0  0  0  0
 25  1  1  0  0  0  0
 26 25  1  0  0  0  0
 27 28  1  0  0  0  0
 27 26  2  0  0  0  0
 28 24  1  0  0  0  0
 29 27  1  0  0  0  0
 30 35  1  0  0  0  0
 31 30  2  0  0  0  0
 32 33  2  0  0  0  0
 32 31  1  0  0  0  0
 33 34  1  0  0  0  0
 34 35  2  0  0  0  0
 36 31  1  0  0  0  0
 37 33  1  0  0  0  0
 37 38  1  0  0  0  0
 38 39  1  0  0  0  0
 39 40  2  0  0  0  0
 41 39  1  0  0  0  0
 42 43  1  0  0  0  0
M  END
>  <minimizedAffinity>
-1.42144156

$$$$

 OpenBabel08172208283D

 43 47  0  0  1  0  0  0  0  0999 V2000
   26.4580    5.9120   14.5310 C   0  0  0  0  0  0  0  0  0  0  0  0
   25.9620    6.9810   14.8940 O   0  0  0  0  0  0  0  0  0  0  0  0
   26.9390    5.7020   13.2210 N   0  0  0  0  0  0  0  0  0  0  0  0
   28.0260    4.7280   12.9390 C   0  0  2  0  0  3  0  0  0  0  0  0
   29.3050    5.5110   12.7950 C   0  0  0  0  0  0  0  0  0  0  0  0
   29.5500    6.3810   11.7980 C   0  0  0  0  0  0  0  0  0  0  0  0
   30.8650    7.1140   11.5800 C   0  0  0  0  0  2  0  0  0  0  0  0
   32.1110    6.6130   12.3350 C   0  0  0  0  0  0  0  0  0  0  0  0
   31.7540    6.3980   13.8040 C   0  0  0  0  0  2  0  0  0  0  0  0
   30.4450    5.2360   14.0660 S   0  0  0  0  0  0  0  0  0  0  0  0
   31.0050    3.9050   13.9280 O   0  0  0  0  0  0  0  0  0  0  0  0
   29.8170    5.6130   15.3220 O   0  0  0  0  0  0  0  0  0  0  0  0
   32.6820    5.3430   11.6820 C   0  0  0  0  0  1  0  0  0  0  0  0
   33.2060    7.7000   12.2570 C   0  0  0  0  0  1  0  0  0  0  0  0
   28.5990    6.6940   10.8500 N   0  0  0  0  0  0  0  0  0  0  0  0
   27.2020    6.8660   11.0000 C   0  0  0  0  0  0  0  0  0  0  0  0
   26.4380    6.5140   12.1340 C   0  0  0  0  0  0  0  0  0  0  0  0
   25.0770    6.8920   12.1610 C   0  0  0  0  0  3  0  0  0  0  0  0
   24.4710    7.5700   11.0980 C   0  0  0  0  0  3  0  0  0  0  0  0
   25.2090    7.8850    9.9680 C   0  0  0  0  0  3  0  0  0  0  0  0
   26.5550    7.5380    9.9310 C   0  0  0  0  0  0  0  0  0  0  0  0
   28.9230    7.1000    9.9690 H   0  0  0  0  0  0  0  0  0  0  0  0
   27.3630    5.9640   17.6820 C   0  0  0  0  0  1  0  0  0  0  0  0
   26.8910    4.8770   16.8060 C   0  0  0  0  0  0  0  0  0  0  0  0
   26.5250    4.7970   15.4770 C   0  0  0  0  0  0  0  0  0  0  0  0
   26.1410    3.4930   15.1950 N   0  0  0  0  0  0  0  0  0  0  0  0
   26.3310    2.8510   16.3290 C   0  0  0  0  0  0  0  0  0  0  0  0
   26.7750    3.6330   17.3570 O   0  0  0  0  0  0  0  0  0  0  0  0
   26.1220    1.4220   16.6320 C   0  0  0  0  0  1  0  0  0  0  0  0
   27.6640    3.7080   11.8480 C   0  0  0  0  0  0  0  0  0  0  0  0
   28.6230    3.0050   11.1120 C   0  0  0  0  0  0  0  0  0  0  0  0
   28.2650    2.0520   10.1580 C   0  0  0  0  0  3  0  0  0  0  0  0
   26.9260    1.7530    9.9190 C   0  0  0  0  0  0  0  0  0  0  0  0
   25.9520    2.4020   10.6690 C   0  0  0  0  0  3  0  0  0  0  0  0
   26.3180    3.3580   11.6280 C   0  0  0  0  0  3  0  0  0  0  0  0
   29.9300    3.2130   11.3090 F   0  0  0  0  0  0  0  0  0  0  0  0
   26.7160    0.7980    8.9660 O   0  0  0  0  0  0  0  0  0  0  0  0
   25.6490    0.9740    8.0330 C   0  0  0  0  0  2  0  0  0  0  0  0
   25.9950    0.3990    6.6790 C   0  0  0  0  0  0  0  0  0  0  0  0
   27.1970   -0.1400    6.4150 C   0  0  0  0  0  2  0  0  0  0  0  0
   24.9050    0.4360    5.6440 C   0  0  0  0  0  1  0  0  0  0  0  0
   27.3210    7.8800    8.8380 O   0  0  0  0  0  0  0  0  0  0  0  0
   26.7420    8.3010    8.1810 H   0  0  0  0  0  0  0  0  0  0  0  0
  1  2  2  0  0  0  0
  1 25  1  0  0  0  0
  3  1  1  0  0  0  0
  4 30  1  6  0  0  0
  4  3  1  0  0  0  0
  5  4  1  0  0  0  0
  5 10  1  0  0  0  0
  6  5  2  0  0  0  0
  7  6  1  0  0  0  0
  7  8  1  0  0  0  0
  8  9  1  0  0  0  0
  9 10  1  0  0  0  0
 10 12  2  0  0  0  0
 11 10  2  0  0  0  0
 13  8  1  0  0  0  0
 14  8  1  0  0  0  0
 15 16  1  0  0  0  0
 15  6  1  0  0  0  0
 16 17  1  0  0  0  0
 17 18  2  0  0  0  0
 17  3  1  0  0  0  0
 19 18  1  0  0  0  0
 20 19  2  0  0  0  0
 21 20  1  0  0  0  0
 21 16  2  0  0  0  0
 22 15  1  0  0  0  0
 24 28  1  0  0  0  0
 24 23  1  0  0  0  0
 25 24  2  0  0  0  0
 26 25  1  0  0  0  0
 26 27  2  0  0  0  0
 27 29  1  0  0  0  0
 27 28  1  0  0  0  0
 31 36  1  0  0  0  0
 31 30  2  0  0  0  0
 32 31  1  0  0  0  0
 33 32  2  0  0  0  0
 33 34  1  0  0  0  0
 34 35  2  0  0  0  0
 35 30  1  0  0  0  0
 37 33  1  0  0  0  0
 38 37  1  0  0  0  0
 39 38  1  0  0  0  0
 40 39  2  0  0  0  0
 41 39  1  0  0  0  0
 42 21  1  0  0  0  0
 43 42  1  0  0  0  0
M  END
>  <minimizedAffinity>
-1.31627417

$$$$

 OpenBabel08172208283D

 43 47  0  0  1  0  0  0  0  0999 V2000
   26.4280    3.6010   13.7000 C   0  0  0  0  0  0  0  0  0  0  0  0
   25.8130    3.4930   12.6370 O   0  0  0  0  0  0  0  0  0  0  0  0
   27.7390    3.1070   13.8740 N   0  0  0  0  0  0  0  0  0  0  0  0
   28.6760    3.7190   14.8520 C   0  0  2  0  0  3  0  0  0  0  0  0
   29.6050    4.6200   14.0810 C   0  0  0  0  0  0  0  0  0  0  0  0
   30.5080    4.1840   13.1810 C   0  0  0  0  0  0  0  0  0  0  0  0
   31.5170    5.0620   12.4580 C   0  0  0  0  0  2  0  0  0  0  0  0
   31.7640    6.4840   12.9980 C   0  0  0  0  0  0  0  0  0  0  0  0
   30.4200    7.1610   13.2560 C   0  0  0  0  0  2  0  0  0  0  0  0
   29.3880    6.3030   14.4100 S   0  0  0  0  0  0  0  0  0  0  0  0
   29.8790    6.5980   15.7430 O   0  0  0  0  0  0  0  0  0  0  0  0
   28.0200    6.6550   14.0660 O   0  0  0  0  0  0  0  0  0  0  0  0
   32.6520    6.4540   14.2540 C   0  0  0  0  0  1  0  0  0  0  0  0
   32.5170    7.2970   11.9230 C   0  0  0  0  0  1  0  0  0  0  0  0
   30.6030    2.8550   12.8260 N   0  0  0  0  0  0  0  0  0  0  0  0
   29.5770    1.8970   12.6420 C   0  0  0  0  0  0  0  0  0  0  0  0
   28.2250    2.0450   13.0210 C   0  0  0  0  0  0  0  0  0  0  0  0
   27.3110    1.0400   12.6270 C   0  0  0  0  0  3  0  0  0  0  0  0
   27.7130   -0.0900   11.9080 C   0  0  0  0  0  3  0  0  0  0  0  0
   29.0450   -0.2550   11.5660 C   0  0  0  0  0  3  0  0  0  0  0  0
   29.9560    0.7310   11.9280 C   0  0  0  0  0  0  0  0  0  0  0  0
   31.4750    2.5400   12.3960 H   0  0  0  0  0  0  0  0  0  0  0  0
   24.6110    6.3290   13.7580 C   0  0  0  0  0  1  0  0  0  0  0  0
   24.9950    5.3730   14.8120 C   0  0  0  0  0  0  0  0  0  0  0  0
   25.7720    4.2330   14.8460 C   0  0  0  0  0  0  0  0  0  0  0  0
   25.7650    3.7220   16.1370 N   0  0  0  0  0  0  0  0  0  0  0  0
   25.0360    4.5830   16.8170 C   0  0  0  0  0  0  0  0  0  0  0  0
   24.5230    5.6070   16.0730 O   0  0  0  0  0  0  0  0  0  0  0  0
   24.6970    4.5810   18.2540 C   0  0  0  0  0  1  0  0  0  0  0  0
   29.2860    2.7040   15.8320 C   0  0  0  0  0  0  0  0  0  0  0  0
   30.4890    2.9230   16.5080 C   0  0  0  0  0  0  0  0  0  0  0  0
   30.9970    2.0030   17.4250 C   0  0  0  0  0  3  0  0  0  0  0  0
   30.3030    0.8310   17.7150 C   0  0  0  0  0  0  0  0  0  0  0  0
   29.0790    0.6070   17.0930 C   0  0  0  0  0  3  0  0  0  0  0  0
   28.5740    1.5370   16.1730 C   0  0  0  0  0  3  0  0  0  0  0  0
   31.1970    4.0420   16.3080 F   0  0  0  0  0  0  0  0  0  0  0  0
   30.9060    0.0220   18.6350 O   0  0  0  0  0  0  0  0  0  0  0  0
   30.1470   -0.4400   19.7530 C   0  0  0  0  0  2  0  0  0  0  0  0
   29.8830    0.6730   20.7420 C   0  0  0  0  0  0  0  0  0  0  0  0
   28.6400    1.0690   21.0600 C   0  0  0  0  0  2  0  0  0  0  0  0
   31.0940    1.2970   21.3770 C   0  0  0  0  0  1  0  0  0  0  0  0
   31.2780    0.6120   11.5610 O   0  0  0  0  0  0  0  0  0  0  0  0
   31.3920   -0.2420   11.1110 H   0  0  0  0  0  0  0  0  0  0  0  0
  1  3  1  0  0  0  0
  1 25  1  0  0  0  0
  2  1  2  0  0  0  0
  3  4  1  0  0  0  0
  4 30  1  6  0  0  0
  5 10  1  0  0  0  0
  5  4  1  0  0  0  0
  6  5  2  0  0  0  0
  7  8  1  0  0  0  0
  7  6  1  0  0  0  0
  8  9  1  0  0  0  0
  8 13  1  0  0  0  0
  9 10  1  0  0  0  0
 10 11  2  0  0  0  0
 12 10  2  0  0  0  0
 14  8  1  0  0  0  0
 15  6  1  0  0  0  0
 16 15  1  0  0  0  0
 16 17  1  0  0  0  0
 17  3  1  0  0  0  0
 18 17  2  0  0  0  0
 19 18  1  0  0  0  0
 20 19  2  0  0  0  0
 20 21  1  0  0  0  0
 21 16  2  0  0  0  0
 22 15  1  0  0  0  0
 23 24  1  0  0  0  0
 24 25  2  0  0  0  0
 24 28  1  0  0  0  0
 25 26  1  0  0  0  0
 26 27  2  0  0  0  0
 27 29  1  0  0  0  0
 28 27  1  0  0  0  0
 30 35  2  0  0  0  0
 30 31  1  0  0  0  0
 31 32  2  0  0  0  0
 32 33  1  0  0  0  0
 33 37  1  0  0  0  0
 34 33  2  0  0  0  0
 35 34  1  0  0  0  0
 36 31  1  0  0  0  0
 37 38  1  0  0  0  0
 38 39  1  0  0  0  0
 39 40  2  0  0  0  0
 39 41  1  0  0  0  0
 42 21  1  0  0  0  0
 43 42  1  0  0  0  0
M  END
>  <minimizedAffinity>
-1.2955575

$$$$

 OpenBabel08172208283D

 43 47  0  0  1  0  0  0  0  0999 V2000
   26.3200    4.4030   10.6340 C   0  0  0  0  0  0  0  0  0  0  0  0
   25.5400    5.3520   10.5280 O   0  0  0  0  0  0  0  0  0  0  0  0
   27.7190    4.5530   10.5320 N   0  0  0  0  0  0  0  0  0  0  0  0
   28.6530    3.6240   11.2220 C   0  0  2  0  0  3  0  0  0  0  0  0
   29.1280    4.3130   12.4740 C   0  0  0  0  0  0  0  0  0  0  0  0
   29.8980    5.4180   12.4840 C   0  0  0  0  0  0  0  0  0  0  0  0
   30.4640    6.0790   13.7310 C   0  0  0  0  0  2  0  0  0  0  0  0
   30.4430    5.2830   15.0510 C   0  0  0  0  0  0  0  0  0  0  0  0
   29.0570    4.6720   15.2440 C   0  0  0  0  0  2  0  0  0  0  0  0
   28.5560    3.5880   13.9370 S   0  0  0  0  0  0  0  0  0  0  0  0
   29.2280    2.3190   14.1370 O   0  0  0  0  0  0  0  0  0  0  0  0
   27.1020    3.6250   13.9170 O   0  0  0  0  0  0  0  0  0  0  0  0
   31.5560    4.2220   15.0770 C   0  0  0  0  0  1  0  0  0  0  0  0
   30.7100    6.2560   16.2190 C   0  0  0  0  0  1  0  0  0  0  0  0
   30.2570    6.0690   11.3230 N   0  0  0  0  0  0  0  0  0  0  0  0
   29.5000    6.2960   10.1480 C   0  0  0  0  0  0  0  0  0  0  0  0
   28.2700    5.6850    9.8210 C   0  0  0  0  0  0  0  0  0  0  0  0
   27.5870    6.1430    8.6710 C   0  0  0  0  0  3  0  0  0  0  0  0
   28.1040    7.1480    7.8490 C   0  0  0  0  0  3  0  0  0  0  0  0
   29.3280    7.7250    8.1480 C   0  0  0  0  0  3  0  0  0  0  0  0
   30.0060    7.3020    9.2850 C   0  0  0  0  0  0  0  0  0  0  0  0
   31.0670    6.6900   11.3590 H   0  0  0  0  0  0  0  0  0  0  0  0
   23.9240    3.4520   12.6610 C   0  0  0  0  0  1  0  0  0  0  0  0
   24.7530    2.7120   11.6930 C   0  0  0  0  0  0  0  0  0  0  0  0
   25.7840    3.0560   10.8410 C   0  0  0  0  0  0  0  0  0  0  0  0
   26.1810    1.9270   10.1370 N   0  0  0  0  0  0  0  0  0  0  0  0
   25.4190    0.9670   10.6170 C   0  0  0  0  0  0  0  0  0  0  0  0
   24.5170    1.3730   11.5590 O   0  0  0  0  0  0  0  0  0  0  0  0
   25.4060   -0.4680   10.2700 C   0  0  0  0  0  1  0  0  0  0  0  0
   29.7010    3.0030   10.2850 C   0  0  0  0  0  0  0  0  0  0  0  0
   30.9260    2.5030   10.7350 C   0  0  0  0  0  0  0  0  0  0  0  0
   31.8400    1.9040    9.8680 C   0  0  0  0  0  3  0  0  0  0  0  0
   31.5500    1.7660    8.5130 C   0  0  0  0  0  0  0  0  0  0  0  0
   30.3190    2.2110    8.0450 C   0  0  0  0  0  3  0  0  0  0  0  0
   29.4030    2.8110    8.9220 C   0  0  0  0  0  3  0  0  0  0  0  0
   31.2630    2.5690   12.0290 F   0  0  0  0  0  0  0  0  0  0  0  0
   32.5260    1.1560    7.7790 O   0  0  0  0  0  0  0  0  0  0  0  0
   32.9080   -0.1790    8.1090 C   0  0  0  0  0  2  0  0  0  0  0  0
   31.8450   -1.1760    7.7060 C   0  0  0  0  0  0  0  0  0  0  0  0
   31.2120   -1.9500    8.6030 C   0  0  0  0  0  2  0  0  0  0  0  0
   31.5100   -1.2340    6.2420 C   0  0  0  0  0  1  0  0  0  0  0  0
   31.2030    7.8910    9.6280 O   0  0  0  0  0  0  0  0  0  0  0  0
   31.4370    8.5310    8.9350 H   0  0  0  0  0  0  0  0  0  0  0  0
  1 25  1  0  0  0  0
  2  1  2  0  0  0  0
  3  1  1  0  0  0  0
  3  4  1  0  0  0  0
  4 30  1  6  0  0  0
  4  5  1  0  0  0  0
  5  6  2  0  0  0  0
  5 10  1  0  0  0  0
  6  7  1  0  0  0  0
  7  8  1  0  0  0  0
  8 13  1  0  0  0  0
  8  9  1  0  0  0  0
  8 14  1  0  0  0  0
 10 11  2  0  0  0  0
 10  9  1  0  0  0  0
 12 10  2  0  0  0  0
 15 22  1  0  0  0  0
 15  6  1  0  0  0  0
 16 15  1  0  0  0  0
 17 16  1  0  0  0  0
 17  3  1  0  0  0  0
 18 17  2  0  0  0  0
 19 20  2  0  0  0  0
 19 18  1  0  0  0  0
 20 21  1  0  0  0  0
 21 42  1  0  0  0  0
 21 16  2  0  0  0  0
 24 23  1  0  0  0  0
 25 24  2  0  0  0  0
 26 27  2  0  0  0  0
 26 25  1  0  0  0  0
 27 28  1  0  0  0  0
 28 24  1  0  0  0  0
 29 27  1  0  0  0  0
 30 31  1  0  0  0  0
 31 36  1  0  0  0  0
 32 31  2  0  0  0  0
 33 32  1  0  0  0  0
 34 33  2  0  0  0  0
 34 35  1  0  0  0  0
 35 30  2  0  0  0  0
 37 38  1  0  0  0  0
 37 33  1  0  0  0  0
 39 38  1  0  0  0  0
 39 40  2  0  0  0  0
 41 39  1  0  0  0  0
 43 42  1  0  0  0  0
M  END
>  <minimizedAffinity>
-1.27981818

$$$$
