
 OpenBabel08172208283D

 43 47  0  0  1  0  0  0  0  0999 V2000
   26.4580    5.9120   14.5310 C   0  0  0  0  0  0  0  0  0  0  0  0
   25.9620    6.9810   14.8940 O   0  0  0  0  0  0  0  0  0  0  0  0
   26.9390    5.7020   13.2210 N   0  0  0  0  0  0  0  0  0  0  0  0
   28.0260    4.7280   12.9390 C   0  0  2  0  0  3  0  0  0  0  0  0
   29.3050    5.5110   12.7950 C   0  0  0  0  0  0  0  0  0  0  0  0
   29.5500    6.3810   11.7980 C   0  0  0  0  0  0  0  0  0  0  0  0
   30.8650    7.1140   11.5800 C   0  0  0  0  0  2  0  0  0  0  0  0
   32.1110    6.6130   12.3350 C   0  0  0  0  0  0  0  0  0  0  0  0
   31.7540    6.3980   13.8040 C   0  0  0  0  0  2  0  0  0  0  0  0
   30.4450    5.2360   14.0660 S   0  0  0  0  0  0  0  0  0  0  0  0
   31.0050    3.9050   13.9280 O   0  0  0  0  0  0  0  0  0  0  0  0
   29.8170    5.6130   15.3220 O   0  0  0  0  0  0  0  0  0  0  0  0
   32.6820    5.3430   11.6820 C   0  0  0  0  0  1  0  0  0  0  0  0
   33.2060    7.7000   12.2570 C   0  0  0  0  0  1  0  0  0  0  0  0
   28.5990    6.6940   10.8500 N   0  0  0  0  0  0  0  0  0  0  0  0
   27.2020    6.8660   11.0000 C   0  0  0  0  0  0  0  0  0  0  0  0
   26.4380    6.5140   12.1340 C   0  0  0  0  0  0  0  0  0  0  0  0
   25.0770    6.8920   12.1610 C   0  0  0  0  0  3  0  0  0  0  0  0
   24.4710    7.5700   11.0980 C   0  0  0  0  0  3  0  0  0  0  0  0
   25.2090    7.8850    9.9680 C   0  0  0  0  0  3  0  0  0  0  0  0
   26.5550    7.5380    9.9310 C   0  0  0  0  0  0  0  0  0  0  0  0
   28.9230    7.1000    9.9690 H   0  0  0  0  0  0  0  0  0  0  0  0
   27.3630    5.9640   17.6820 C   0  0  0  0  0  1  0  0  0  0  0  0
   26.8910    4.8770   16.8060 C   0  0  0  0  0  0  0  0  0  0  0  0
   26.5250    4.7970   15.4770 C   0  0  0  0  0  0  0  0  0  0  0  0
   26.1410    3.4930   15.1950 N   0  0  0  0  0  0  0  0  0  0  0  0
   26.3310    2.8510   16.3290 C   0  0  0  0  0  0  0  0  0  0  0  0
   26.7750    3.6330   17.3570 O   0  0  0  0  0  0  0  0  0  0  0  0
   26.1220    1.4220   16.6320 C   0  0  0  0  0  1  0  0  0  0  0  0
   27.6640    3.7080   11.8480 C   0  0  0  0  0  0  0  0  0  0  0  0
   28.6230    3.0050   11.1120 C   0  0  0  0  0  0  0  0  0  0  0  0
   28.2650    2.0520   10.1580 C   0  0  0  0  0  3  0  0  0  0  0  0
   26.9260    1.7530    9.9190 C   0  0  0  0  0  0  0  0  0  0  0  0
   25.9520    2.4020   10.6690 C   0  0  0  0  0  3  0  0  0  0  0  0
   26.3180    3.3580   11.6280 C   0  0  0  0  0  3  0  0  0  0  0  0
   29.9300    3.2130   11.3090 F   0  0  0  0  0  0  0  0  0  0  0  0
   26.7160    0.7980    8.9660 O   0  0  0  0  0  0  0  0  0  0  0  0
   25.6490    0.9740    8.0330 C   0  0  0  0  0  2  0  0  0  0  0  0
   25.9950    0.3990    6.6790 C   0  0  0  0  0  0  0  0  0  0  0  0
   27.1970   -0.1400    6.4150 C   0  0  0  0  0  2  0  0  0  0  0  0
   24.9050    0.4360    5.6440 C   0  0  0  0  0  1  0  0  0  0  0  0
   27.3210    7.8800    8.8380 O   0  0  0  0  0  0  0  0  0  0  0  0
   26.7420    8.3010    8.1810 H   0  0  0  0  0  0  0  0  0  0  0  0
  1  2  2  0  0  0  0
  1 25  1  0  0  0  0
  3  1  1  0  0  0  0
  4 30  1  6  0  0  0
  4  3  1  0  0  0  0
  5  4  1  0  0  0  0
  5 10  1  0  0  0  0
  6  5  2  0  0  0  0
  7  6  1  0  0  0  0
  7  8  1  0  0  0  0
  8  9  1  0  0  0  0
  9 10  1  0  0  0  0
 10 12  2  0  0  0  0
 11 10  2  0  0  0  0
 13  8  1  0  0  0  0
 14  8  1  0  0  0  0
 15 16  1  0  0  0  0
 15  6  1  0  0  0  0
 16 17  1  0  0  0  0
 17 18  2  0  0  0  0
 17  3  1  0  0  0  0
 19 18  1  0  0  0  0
 20 19  2  0  0  0  0
 21 20  1  0  0  0  0
 21 16  2  0  0  0  0
 22 15  1  0  0  0  0
 24 28  1  0  0  0  0
 24 23  1  0  0  0  0
 25 24  2  0  0  0  0
 26 25  1  0  0  0  0
 26 27  2  0  0  0  0
 27 29  1  0  0  0  0
 27 28  1  0  0  0  0
 31 36  1  0  0  0  0
 31 30  2  0  0  0  0
 32 31  1  0  0  0  0
 33 32  2  0  0  0  0
 33 34  1  0  0  0  0
 34 35  2  0  0  0  0
 35 30  1  0  0  0  0
 37 33  1  0  0  0  0
 38 37  1  0  0  0  0
 39 38  1  0  0  0  0
 40 39  2  0  0  0  0
 41 39  1  0  0  0  0
 42 21  1  0  0  0  0
 43 42  1  0  0  0  0
M  END
>  <minimizedAffinity>
-1.31627417

$$$$
