
 OpenBabel08172208283D

 43 47  0  0  1  0  0  0  0  0999 V2000
   29.5890    1.8790   15.2630 C   0  0  0  0  0  0  0  0  0  0  0  0
   30.4870    1.0930   15.5740 O   0  0  0  0  0  0  0  0  0  0  0  0
   29.5860    3.2300   15.6690 N   0  0  0  0  0  0  0  0  0  0  0  0
   28.9110    4.2820   14.8640 C   0  0  2  0  0  3  0  0  0  0  0  0
   29.9770    4.9950   14.0730 C   0  0  0  0  0  0  0  0  0  0  0  0
   30.9460    5.7520   14.6220 C   0  0  0  0  0  0  0  0  0  0  0  0
   31.9770    6.5540   13.8420 C   0  0  0  0  0  2  0  0  0  0  0  0
   31.7280    6.7940   12.3400 C   0  0  0  0  0  0  0  0  0  0  0  0
   31.3370    5.4740   11.6810 C   0  0  0  0  0  2  0  0  0  0  0  0
   29.8880    4.7240   12.3670 S   0  0  0  0  0  0  0  0  0  0  0  0
   28.7350    5.4230   11.8310 O   0  0  0  0  0  0  0  0  0  0  0  0
   30.0230    3.2960   12.1330 O   0  0  0  0  0  0  0  0  0  0  0  0
   30.6720    7.8910   12.1220 C   0  0  0  0  0  1  0  0  0  0  0  0
   33.0420    7.2870   11.6950 C   0  0  0  0  0  1  0  0  0  0  0  0
   31.0940    5.8730   15.9870 N   0  0  0  0  0  0  0  0  0  0  0  0
   30.9270    4.8990   17.0010 C   0  0  0  0  0  0  0  0  0  0  0  0
   30.3320    3.6290   16.8420 C   0  0  0  0  0  0  0  0  0  0  0  0
   30.3820    2.7320   17.9330 C   0  0  0  0  0  3  0  0  0  0  0  0
   30.9710    3.0760   19.1540 C   0  0  0  0  0  3  0  0  0  0  0  0
   31.5250    4.3350   19.3240 C   0  0  0  0  0  3  0  0  0  0  0  0
   31.5030    5.2250   18.2560 C   0  0  0  0  0  0  0  0  0  0  0  0
   31.6230    6.6750   16.3370 H   0  0  0  0  0  0  0  0  0  0  0  0
   26.5610    1.1330   16.2750 C   0  0  0  0  0  1  0  0  0  0  0  0
   27.1910    1.1170   14.9430 C   0  0  0  0  0  0  0  0  0  0  0  0
   28.4580    1.3940   14.4700 C   0  0  0  0  0  0  0  0  0  0  0  0
   28.4700    1.2230   13.0920 N   0  0  0  0  0  0  0  0  0  0  0  0
   27.2500    0.8180   12.8090 C   0  0  0  0  0  0  0  0  0  0  0  0
   26.4120    0.7410   13.8850 O   0  0  0  0  0  0  0  0  0  0  0  0
   26.6740    0.4490   11.5010 C   0  0  0  0  0  1  0  0  0  0  0  0
   27.9120    5.1240   15.6720 C   0  0  0  0  0  0  0  0  0  0  0  0
   27.5260    6.4150   15.3020 C   0  0  0  0  0  0  0  0  0  0  0  0
   26.5830    7.1400   16.0310 C   0  0  0  0  0  3  0  0  0  0  0  0
   25.9740    6.5860   17.1550 C   0  0  0  0  0  0  0  0  0  0  0  0
   26.3030    5.2860   17.5210 C   0  0  0  0  0  3  0  0  0  0  0  0
   27.2510    4.5620   16.7820 C   0  0  0  0  0  3  0  0  0  0  0  0
   28.0410    7.0020   14.2150 F   0  0  0  0  0  0  0  0  0  0  0  0
   25.0660    7.3980   17.7710 O   0  0  0  0  0  0  0  0  0  0  0  0
   23.9150    7.8270   17.0430 C   0  0  0  0  0  2  0  0  0  0  0  0
   22.9480    6.6870   16.8110 C   0  0  0  0  0  0  0  0  0  0  0  0
   22.3160    6.0670   17.8210 C   0  0  0  0  0  2  0  0  0  0  0  0
   22.7090    6.3020   15.3780 C   0  0  0  0  0  1  0  0  0  0  0  0
   32.0860    6.4660   18.3860 O   0  0  0  0  0  0  0  0  0  0  0  0
   32.4050    6.5570   19.2990 H   0  0  0  0  0  0  0  0  0  0  0  0
  1  2  2  0  0  0  0
  1  3  1  0  0  0  0
  3 17  1  0  0  0  0
  4  3  1  0  0  0  0
  4 30  1  1  0  0  0
  5  6  2  0  0  0  0
  5  4  1  0  0  0  0
  6 15  1  0  0  0  0
  7  6  1  0  0  0  0
  8  7  1  0  0  0  0
  9  8  1  0  0  0  0
  9 10  1  0  0  0  0
 10  5  1  0  0  0  0
 11 10  2  0  0  0  0
 12 10  2  0  0  0  0
 13  8  1  0  0  0  0
 14  8  1  0  0  0  0
 15 22  1  0  0  0  0
 15 16  1  0  0  0  0
 16 21  1  0  0  0  0
 17 16  2  0  0  0  0
 17 18  1  0  0  0  0
 18 19  2  0  0  0  0
 19 20  1  0  0  0  0
 21 42  1  0  0  0  0
 21 20  2  0  0  0  0
 24 23  1  0  0  0  0
 25 24  2  0  0  0  0
 25  1  1  0  0  0  0
 26 25  1  0  0  0  0
 27 26  2  0  0  0  0
 27 28  1  0  0  0  0
 28 24  1  0  0  0  0
 29 27  1  0  0  0  0
 30 35  1  0  0  0  0
 31 30  2  0  0  0  0
 31 32  1  0  0  0  0
 32 33  2  0  0  0  0
 33 34  1  0  0  0  0
 33 37  1  0  0  0  0
 35 34  2  0  0  0  0
 36 31  1  0  0  0  0
 38 37  1  0  0  0  0
 39 38  1  0  0  0  0
 39 40  2  0  0  0  0
 41 39  1  0  0  0  0
 42 43  1  0  0  0  0
M  END
>  <minimizedAffinity>
-1.68297744

$$$$
