
 OpenBabel08172208283D

 43 47  0  0  1  0  0  0  0  0999 V2000
   25.5040    2.7100   12.4060 C   0  0  0  0  0  0  0  0  0  0  0  0
   24.3870    3.0760   12.7810 O   0  0  0  0  0  0  0  0  0  0  0  0
   26.6930    3.3360   12.8360 N   0  0  0  0  0  0  0  0  0  0  0  0
   27.9810    2.5960   12.9030 C   0  0  2  0  0  3  0  0  0  0  0  0
   28.2020    2.2090   14.3430 C   0  0  0  0  0  0  0  0  0  0  0  0
   28.4230    3.0900   15.3370 C   0  0  0  0  0  0  0  0  0  0  0  0
   28.7380    2.7220   16.7780 C   0  0  0  0  0  2  0  0  0  0  0  0
   29.1530    1.2690   17.0840 C   0  0  0  0  0  0  0  0  0  0  0  0
   28.1790    0.3160   16.3960 C   0  0  0  0  0  2  0  0  0  0  0  0
   28.1000    0.5080   14.6380 S   0  0  0  0  0  0  0  0  0  0  0  0
   29.2630   -0.1470   14.0720 O   0  0  0  0  0  0  0  0  0  0  0  0
   26.7730    0.0630   14.2440 O   0  0  0  0  0  0  0  0  0  0  0  0
   30.6120    1.0100   16.6730 C   0  0  0  0  0  1  0  0  0  0  0  0
   29.0590    1.0400   18.6090 C   0  0  0  0  0  1  0  0  0  0  0  0
   28.3850    4.4520   15.1290 N   0  0  0  0  0  0  0  0  0  0  0  0
   27.5230    5.2130   14.3020 C   0  0  0  0  0  0  0  0  0  0  0  0
   26.6540    4.7010   13.3140 C   0  0  0  0  0  0  0  0  0  0  0  0
   25.7620    5.5980   12.6850 C   0  0  0  0  0  3  0  0  0  0  0  0
   25.7390    6.9620   12.9910 C   0  0  0  0  0  3  0  0  0  0  0  0
   26.6160    7.4740   13.9350 C   0  0  0  0  0  3  0  0  0  0  0  0
   27.4880    6.6040   14.5780 C   0  0  0  0  0  0  0  0  0  0  0  0
   28.8520    5.0500   15.8130 H   0  0  0  0  0  0  0  0  0  0  0  0
   26.0980    2.8520    9.1850 C   0  0  0  0  0  1  0  0  0  0  0  0
   25.8890    1.7190   10.1030 C   0  0  0  0  0  0  0  0  0  0  0  0
   25.6120    1.6060   11.4510 C   0  0  0  0  0  0  0  0  0  0  0  0
   25.5360    0.2600   11.7830 N   0  0  0  0  0  0  0  0  0  0  0  0
   25.7230   -0.3620   10.6380 C   0  0  0  0  0  0  0  0  0  0  0  0
   25.9560    0.4620    9.5730 O   0  0  0  0  0  0  0  0  0  0  0  0
   25.7230   -1.8120   10.3580 C   0  0  0  0  0  1  0  0  0  0  0  0
   29.1250    3.2880   12.1470 C   0  0  0  0  0  0  0  0  0  0  0  0
   30.4750    3.0480   12.4180 C   0  0  0  0  0  0  0  0  0  0  0  0
   31.4930    3.6580   11.6850 C   0  0  0  0  0  3  0  0  0  0  0  0
   31.1930    4.5230   10.6350 C   0  0  0  0  0  0  0  0  0  0  0  0
   29.8590    4.7450   10.3120 C   0  0  0  0  0  3  0  0  0  0  0  0
   28.8400    4.1270   11.0510 C   0  0  0  0  0  3  0  0  0  0  0  0
   30.8420    2.2040   13.3900 F   0  0  0  0  0  0  0  0  0  0  0  0
   32.2810    5.0460    9.9970 O   0  0  0  0  0  0  0  0  0  0  0  0
   33.2920    5.6930   10.7700 C   0  0  0  0  0  2  0  0  0  0  0  0
   32.8580    7.0740   11.2060 C   0  0  0  0  0  0  0  0  0  0  0  0
   32.1540    7.8900   10.4040 C   0  0  0  0  0  2  0  0  0  0  0  0
   33.2350    7.4780   12.6040 C   0  0  0  0  0  1  0  0  0  0  0  0
   28.3390    7.0800   15.5510 O   0  0  0  0  0  0  0  0  0  0  0  0
   28.2260    8.0440   15.6070 H   0  0  0  0  0  0  0  0  0  0  0  0
  1  2  2  0  0  0  0
  1  3  1  0  0  0  0
  3  4  1  0  0  0  0
  3 17  1  0  0  0  0
  4 30  1  1  0  0  0
  4  5  1  0  0  0  0
  5 10  1  0  0  0  0
  5  6  2  0  0  0  0
  6  7  1  0  0  0  0
  7  8  1  0  0  0  0
  8 14  1  0  0  0  0
  9  8  1  0  0  0  0
 10  9  1  0  0  0  0
 11 10  2  0  0  0  0
 12 10  2  0  0  0  0
 13  8  1  0  0  0  0
 15  6  1  0  0  0  0
 15 22  1  0  0  0  0
 16 21  1  0  0  0  0
 16 15  1  0  0  0  0
 17 16  2  0  0  0  0
 18 19  2  0  0  0  0
 18 17  1  0  0  0  0
 19 20  1  0  0  0  0
 20 21  2  0  0  0  0
 21 42  1  0  0  0  0
 23 24  1  0  0  0  0
 24 25  2  0  0  0  0
 25 26  1  0  0  0  0
 25  1  1  0  0  0  0
 27 26  2  0  0  0  0
 28 24  1  0  0  0  0
 28 27  1  0  0  0  0
 29 27  1  0  0  0  0
 30 31  1  0  0  0  0
 31 36  1  0  0  0  0
 32 31  2  0  0  0  0
 33 32  1  0  0  0  0
 34 33  2  0  0  0  0
 34 35  1  0  0  0  0
 35 30  2  0  0  0  0
 37 33  1  0  0  0  0
 37 38  1  0  0  0  0
 38 39  1  0  0  0  0
 39 41  1  0  0  0  0
 40 39  2  0  0  0  0
 42 43  1  0  0  0  0
M  END
>  <minimizedAffinity>
-1.80986607

$$$$
