REMARK  Name = 
REMARK  5 active torsions:
REMARK  status: ('A' for Active; 'I' for Inactive)
REMARK    1  A    between atoms: C_1  and  C_2
REMARK    2  A    between atoms: C_5  and  N_6
REMARK    3  A    between atoms: C_10  and  C_11
REMARK    4  A    between atoms: C_13  and  C_14
REMARK    5  A    between atoms: C_21  and  C_22
REMARK                            x       y       z     vdW  Elec       q    Type
REMARK                         _______ _______ _______ _____ _____    ______ ____
ROOT
ATOM      1  C   UNL     1      -3.205  -1.339   2.389  0.00  0.00    +0.019 A 
ATOM      2  C   UNL     1      -3.617  -2.664   2.760  0.00  0.00    +0.027 A 
ATOM      3  C   UNL     1      -3.077  -3.092   3.956  0.00  0.00    +0.021 A 
ATOM      4  S   UNL     1      -2.095  -1.873   4.643  0.00  0.00    -0.086 S 
ATOM      5  C   UNL     1      -2.454  -0.746   3.391  0.00  0.00    +0.044 A 
ENDROOT
BRANCH   3   6
ATOM      6  C   UNL     1      -3.219  -4.399   4.611  0.00  0.00    -0.011 A 
ATOM      7  C   UNL     1      -3.470  -4.506   5.987  0.00  0.00    +0.009 A 
ATOM      8  C   UNL     1      -3.615  -5.758   6.592  0.00  0.00    +0.001 A 
ATOM      9  C   UNL     1      -3.513  -6.919   5.828  0.00  0.00    +0.000 A 
ATOM     10  C   UNL     1      -3.268  -6.829   4.460  0.00  0.00    +0.001 A 
ATOM     11  C   UNL     1      -3.124  -5.577   3.855  0.00  0.00    +0.009 A 
ENDBRANCH   3   6
BRANCH   1  16
ATOM     12  N   UNL     1      -2.923   0.050   0.164  0.00  0.00    -0.212 N 
ATOM     13  N   UNL     1      -3.803   0.448  -0.816  0.00  0.00    -0.060 NA
ATOM     14  N   UNL     1      -4.967  -0.153  -0.620  0.00  0.00    -0.137 NA
ATOM     15  C   UNL     1      -4.869  -0.879   0.524  0.00  0.00    +0.165 A 
ATOM     16  C   UNL     1      -3.615  -0.738   1.080  0.00  0.00    +0.096 A 
BRANCH  12  21
ATOM     17  C   UNL     1       2.674   0.866  -0.862  0.00  0.00    +0.044 C 
ATOM     18  C   UNL     1       1.217   0.662  -0.577  0.00  0.00    -0.050 A 
ATOM     19  C   UNL     1       0.803  -0.320   0.329  0.00  0.00    +0.005 A 
ATOM     20  C   UNL     1      -0.556  -0.527   0.590  0.00  0.00    +0.028 A 
ATOM     21  C   UNL     1      -1.526   0.251  -0.051  0.00  0.00    +0.068 A 
ATOM     22  C   UNL     1      -1.110   1.217  -0.982  0.00  0.00    +0.028 A 
ATOM     23  C   UNL     1       0.249   1.418  -1.243  0.00  0.00    +0.005 A 
ENDBRANCH  12  21
ENDBRANCH   1  16
BRANCH   5  24
ATOM     24  C   UNL     1      -2.021   0.682   3.484  0.00  0.00    +0.079 C 
ATOM     25  O   UNL     1      -1.230   0.987   4.430  0.00  0.00    -0.544 OA
ATOM     26  O   UNL     1      -2.493   1.489   2.627  0.00  0.00    -0.544 OA
ENDBRANCH   5  24
TORSDOF 4
