@<TRIPOS>MOLECULE
*****
 26 29 0 0 0
SMALL
GASTEIGER

@<TRIPOS>ATOM
      1 C           0.0000    0.0000    0.0000 C.3     1  UNL11       0.0310
      2 C           0.0000    0.0000    0.0000 C.ar    1  UNL11      -0.0218
      3 C           0.0000    0.0000    0.0000 C.ar    1  UNL11      -0.0027
      4 C           0.0000    0.0000    0.0000 C.ar    1  UNL11       0.0189
      5 C           0.0000    0.0000    0.0000 C.ar    1  UNL11       0.0844
      6 N           0.0000    0.0000    0.0000 N.ar    1  UNL11      -0.2104
      7 N           0.0000    0.0000    0.0000 N.ar    1  UNL11      -0.0595
      8 N           0.0000    0.0000    0.0000 N.ar    1  UNL11      -0.1268
      9 C           0.0000    0.0000    0.0000 C.ar    1  UNL11       0.1429
     10 C           0.0000    0.0000    0.0000 C.ar    1  UNL11       0.1060
     11 C           0.0000    0.0000    0.0000 C.ar    1  UNL11       0.0323
     12 C           0.0000    0.0000    0.0000 C.ar    1  UNL11       0.0087
     13 C           0.0000    0.0000    0.0000 C.ar    1  UNL11       0.0297
     14 C           0.0000    0.0000    0.0000 C.ar    1  UNL11       0.0060
     15 C           0.0000    0.0000    0.0000 C.ar    1  UNL11       0.0005
     16 C           0.0000    0.0000    0.0000 C.ar    1  UNL11       0.0000
     17 C           0.0000    0.0000    0.0000 C.ar    1  UNL11       0.0000
     18 C           0.0000    0.0000    0.0000 C.ar    1  UNL11       0.0000
     19 C           0.0000    0.0000    0.0000 C.ar    1  UNL11       0.0005
     20 S           0.0000    0.0000    0.0000 S.2     1  UNL11      -0.0804
     21 C           0.0000    0.0000    0.0000 C.ar    1  UNL11       0.1107
     22 C           0.0000    0.0000    0.0000 C.2     1  UNL11       0.3937
     23 O           0.0000    0.0000    0.0000 O.co2   1  UNL11      -0.2400
     24 O           0.0000    0.0000    0.0000 O.co2   1  UNL11      -0.2400
     25 C           0.0000    0.0000    0.0000 C.ar    1  UNL11       0.0189
     26 C           0.0000    0.0000    0.0000 C.ar    1  UNL11      -0.0027
@<TRIPOS>UNITY_ATOM_ATTR
23 1
charge -1
@<TRIPOS>BOND
     1     1     2    1
     2     2     3   ar
     3     3     4   ar
     4     4     5   ar
     5     5     6    1
     6     6     7   ar
     7     7     8   ar
     8     8     9   ar
     9     9    10   ar
    10     6    10   ar
    11    10    11    1
    12    11    12   ar
    13    12    13   ar
    14    13    14    1
    15    14    15   ar
    16    15    16   ar
    17    16    17   ar
    18    17    18   ar
    19    18    19   ar
    20    14    19   ar
    21    13    20   ar
    22    20    21   ar
    23    11    21   ar
    24    21    22    1
    25    22    23    1
    26    22    24    2
    27     5    25   ar
    28    25    26   ar
    29     2    26   ar
