
 OpenBabel09092210413D

 26 29  0  0  0  0  0  0  0  0999 V2000
    1.9300    1.5290    1.9650 C   0  0  0  0  0  0  0  0  0  0  0  0
    1.3800    0.4600    1.1790 C   0  0  0  0  0  3  0  0  0  0  0  0
    2.1310   -0.6970    1.2240 C   0  0  0  0  0  0  0  0  0  0  0  0
    3.4870   -0.4940    2.2450 S   0  0  0  0  0  0  0  0  0  0  0  0
    3.0300    1.1050    2.6920 C   0  0  0  0  0  0  0  0  0  0  0  0
    1.9170   -1.9590    0.5030 C   0  0  0  0  0  0  0  0  0  0  0  0
    1.0620   -2.0330   -0.6070 C   0  0  0  0  0  3  0  0  0  0  0  0
    0.8800   -3.2390   -1.2890 C   0  0  0  0  0  3  0  0  0  0  0  0
    1.5520   -4.3870   -0.8720 C   0  0  0  0  0  3  0  0  0  0  0  0
    2.4070   -4.3280    0.2250 C   0  0  0  0  0  3  0  0  0  0  0  0
    2.5900   -3.1210    0.9070 C   0  0  0  0  0  3  0  0  0  0  0  0
    1.5030    4.0040    1.1570 N   0  0  0  0  0  0  0  0  0  0  0  0
    0.7670    5.0480    1.6680 N   0  0  0  0  0  0  0  0  0  0  0  0
    0.0300    4.6030    2.6750 N   0  0  0  0  0  0  0  0  0  0  0  0
    0.3410    3.2950    2.8680 C   0  0  0  0  0  3  0  0  0  0  0  0
    1.3040    2.8900    1.9680 C   0  0  0  0  0  0  0  0  0  0  0  0
    3.6590    4.4420   -4.1540 C   0  0  0  0  0  1  0  0  0  0  0  0
    3.1030    4.3460   -2.7660 C   0  0  0  0  0  0  0  0  0  0  0  0
    3.9590    4.2400   -1.6650 C   0  0  0  0  0  3  0  0  0  0  0  0
    3.4470    4.1350   -0.3670 C   0  0  0  0  0  3  0  0  0  0  0  0
    2.0650    4.1400   -0.1480 C   0  0  0  0  0  0  0  0  0  0  0  0
    1.2070    4.2180   -1.2570 C   0  0  0  0  0  3  0  0  0  0  0  0
    1.7220    4.3180   -2.5530 C   0  0  0  0  0  3  0  0  0  0  0  0
    3.7480    1.8440    3.7760 C   0  0  0  0  0  0  0  0  0  0  0  0
    3.4830    1.5150    4.9740 O   0  0  0  0  0  1  0  0  0  0  0  0
    4.5510    2.7590    3.4210 O   0  0  0  0  0  0  0  0  0  0  0  0
  1 16  1  0  0  0  0
  1  5  2  0  0  0  0
  2  3  2  0  0  0  0
  2  1  1  0  0  0  0
  3  4  1  0  0  0  0
  4  5  1  0  0  0  0
  5 24  1  0  0  0  0
  6 11  1  0  0  0  0
  6  3  1  0  0  0  0
  7  6  2  0  0  0  0
  8  9  2  0  0  0  0
  8  7  1  0  0  0  0
  9 10  1  0  0  0  0
 10 11  2  0  0  0  0
 12 13  1  0  0  0  0
 12 16  1  0  0  0  0
 13 14  2  0  0  0  0
 14 15  1  0  0  0  0
 16 15  2  0  0  0  0
 17 18  1  0  0  0  0
 18 23  2  0  0  0  0
 18 19  1  0  0  0  0
 19 20  2  0  0  0  0
 20 21  1  0  0  0  0
 21 12  1  0  0  0  0
 22 21  2  0  0  0  0
 23 22  1  0  0  0  0
 24 25  1  0  0  0  0
 26 24  2  0  0  0  0
M  END
>  <minimizedAffinity>
-2.95393395

$$$$
