
 OpenBabel09092210413D

 26 29  0  0  0  0  0  0  0  0999 V2000
    3.4500   -3.4940    0.8030 C   0  0  0  0  0  0  0  0  0  0  0  0
    3.1390   -4.7570    1.4120 C   0  0  0  0  0  3  0  0  0  0  0  0
    3.9910   -5.0930    2.4450 C   0  0  0  0  0  0  0  0  0  0  0  0
    5.1470   -3.8590    2.6960 S   0  0  0  0  0  0  0  0  0  0  0  0
    4.4650   -2.8420    1.4850 C   0  0  0  0  0  0  0  0  0  0  0  0
    4.0200   -6.3230    3.2470 C   0  0  0  0  0  0  0  0  0  0  0  0
    3.1420   -6.5180    4.3230 C   0  0  0  0  0  3  0  0  0  0  0  0
    3.1760   -7.7010    5.0680 C   0  0  0  0  0  3  0  0  0  0  0  0
    4.0860   -8.7050    4.7430 C   0  0  0  0  0  3  0  0  0  0  0  0
    4.9610   -8.5280    3.6750 C   0  0  0  0  0  3  0  0  0  0  0  0
    4.9270   -7.3460    2.9300 C   0  0  0  0  0  3  0  0  0  0  0  0
    2.9710   -3.0670   -1.7560 N   0  0  0  0  0  0  0  0  0  0  0  0
    2.0110   -2.3450   -2.4270 N   0  0  0  0  0  0  0  0  0  0  0  0
    1.0900   -1.9450   -1.5630 N   0  0  0  0  0  0  0  0  0  0  0  0
    1.4870   -2.3390   -0.3250 C   0  0  0  0  0  3  0  0  0  0  0  0
    2.6940   -3.0030   -0.3930 C   0  0  0  0  0  0  0  0  0  0  0  0
    6.4230   -6.3950   -4.9260 C   0  0  0  0  0  1  0  0  0  0  0  0
    5.5350   -5.5300   -4.0840 C   0  0  0  0  0  0  0  0  0  0  0  0
    4.7000   -6.1010   -3.1170 C   0  0  0  0  0  3  0  0  0  0  0  0
    3.8570   -5.3020   -2.3370 C   0  0  0  0  0  3  0  0  0  0  0  0
    3.8390   -3.9130   -2.5090 C   0  0  0  0  0  0  0  0  0  0  0  0
    4.6570   -3.3450   -3.5000 C   0  0  0  0  0  3  0  0  0  0  0  0
    5.4950   -4.1480   -4.2810 C   0  0  0  0  0  3  0  0  0  0  0  0
    4.9290   -1.4330    1.3020 C   0  0  0  0  0  0  0  0  0  0  0  0
    6.0250   -1.2600    0.6840 O   0  0  0  0  0  0  0  0  0  0  0  0
    4.2080   -0.5150    1.7980 O   0  0  0  0  0  1  0  0  0  0  0  0
  1  2  1  0  0  0  0
  1  5  2  0  0  0  0
  2  3  2  0  0  0  0
  3  4  1  0  0  0  0
  3  6  1  0  0  0  0
  5  4  1  0  0  0  0
  6  7  1  0  0  0  0
  7  8  2  0  0  0  0
  9  8  1  0  0  0  0
 10  9  2  0  0  0  0
 11  6  2  0  0  0  0
 11 10  1  0  0  0  0
 12 16  1  0  0  0  0
 13 12  1  0  0  0  0
 13 14  2  0  0  0  0
 14 15  1  0  0  0  0
 16 15  2  0  0  0  0
 16  1  1  0  0  0  0
 17 18  1  0  0  0  0
 18 19  1  0  0  0  0
 19 20  2  0  0  0  0
 21 20  1  0  0  0  0
 21 12  1  0  0  0  0
 22 21  2  0  0  0  0
 23 18  2  0  0  0  0
 23 22  1  0  0  0  0
 24  5  1  0  0  0  0
 24 26  1  0  0  0  0
 25 24  2  0  0  0  0
M  END
>  <minimizedAffinity>
-2.88444924

$$$$
