
 OpenBabel09092210413D

 26 29  0  0  0  0  0  0  0  0999 V2000
    1.9320    0.9720    1.5320 C   0  0  0  0  0  0  0  0  0  0  0  0
    3.2360    0.4540    1.8380 C   0  0  0  0  0  3  0  0  0  0  0  0
    3.3660   -0.8940    1.5720 C   0  0  0  0  0  0  0  0  0  0  0  0
    1.9150   -1.5230    0.9220 S   0  0  0  0  0  0  0  0  0  0  0  0
    1.1400    0.0160    0.9170 C   0  0  0  0  0  0  0  0  0  0  0  0
    4.5200   -1.7700    1.8180 C   0  0  0  0  0  0  0  0  0  0  0  0
    5.5680   -1.8780    0.8930 C   0  0  0  0  0  3  0  0  0  0  0  0
    6.6650   -2.7070    1.1490 C   0  0  0  0  0  3  0  0  0  0  0  0
    6.7270   -3.4370    2.3340 C   0  0  0  0  0  3  0  0  0  0  0  0
    5.6950   -3.3370    3.2640 C   0  0  0  0  0  3  0  0  0  0  0  0
    4.6000   -2.5080    3.0090 C   0  0  0  0  0  3  0  0  0  0  0  0
    1.8590    3.5860    1.1800 N   0  0  0  0  0  0  0  0  0  0  0  0
    1.4020    4.6280    1.9520 N   0  0  0  0  0  0  0  0  0  0  0  0
    0.7400    4.1380    2.9900 N   0  0  0  0  0  0  0  0  0  0  0  0
    0.8300    2.7840    2.9340 C   0  0  0  0  0  3  0  0  0  0  0  0
    1.5710    2.3930    1.8390 C   0  0  0  0  0  0  0  0  0  0  0  0
    3.5590    4.7810   -4.1800 C   0  0  0  0  0  1  0  0  0  0  0  0
    3.1110    4.4510   -2.7890 C   0  0  0  0  0  0  0  0  0  0  0  0
    1.7480    4.3660   -2.4850 C   0  0  0  0  0  3  0  0  0  0  0  0
    1.3210    4.0730   -1.1850 C   0  0  0  0  0  3  0  0  0  0  0  0
    2.2540    3.8560   -0.1660 C   0  0  0  0  0  0  0  0  0  0  0  0
    3.6220    3.9700   -0.4660 C   0  0  0  0  0  3  0  0  0  0  0  0
    4.0440    4.2670   -1.7660 C   0  0  0  0  0  3  0  0  0  0  0  0
   -0.1880    0.2140    0.2610 C   0  0  0  0  0  0  0  0  0  0  0  0
   -1.2190   -0.1010    0.9330 O   0  0  0  0  0  1  0  0  0  0  0  0
   -0.1880    0.6590   -0.9270 O   0  0  0  0  0  0  0  0  0  0  0  0
  1  2  1  0  0  0  0
  1 16  1  0  0  0  0
  3  6  1  0  0  0  0
  3  2  2  0  0  0  0
  4  3  1  0  0  0  0
  5  4  1  0  0  0  0
  5  1  2  0  0  0  0
  6 11  1  0  0  0  0
  7  8  1  0  0  0  0
  7  6  2  0  0  0  0
  8  9  2  0  0  0  0
  9 10  1  0  0  0  0
 11 10  2  0  0  0  0
 12 16  1  0  0  0  0
 12 13  1  0  0  0  0
 13 14  2  0  0  0  0
 15 14  1  0  0  0  0
 16 15  2  0  0  0  0
 17 18  1  0  0  0  0
 18 19  2  0  0  0  0
 18 23  1  0  0  0  0
 19 20  1  0  0  0  0
 20 21  2  0  0  0  0
 21 12  1  0  0  0  0
 22 21  1  0  0  0  0
 23 22  2  0  0  0  0
 24  5  1  0  0  0  0
 24 25  1  0  0  0  0
 26 24  2  0  0  0  0
M  END
>  <minimizedAffinity>
-3.51188111

$$$$
