
 OpenBabel09092210413D

 26 29  0  0  0  0  0  0  0  0999 V2000
    4.2310   -2.5370    2.4050 C   0  0  0  0  0  0  0  0  0  0  0  0
    4.0870   -3.4060    1.2710 C   0  0  0  0  0  3  0  0  0  0  0  0
    5.2100   -3.4550    0.4710 C   0  0  0  0  0  0  0  0  0  0  0  0
    6.4510   -2.4710    1.1150 S   0  0  0  0  0  0  0  0  0  0  0  0
    5.5220   -2.0440    2.5010 C   0  0  0  0  0  0  0  0  0  0  0  0
    5.4050   -4.1750   -0.7950 C   0  0  0  0  0  0  0  0  0  0  0  0
    4.8040   -3.7400   -1.9850 C   0  0  0  0  0  3  0  0  0  0  0  0
    5.0100   -4.4310   -3.1840 C   0  0  0  0  0  3  0  0  0  0  0  0
    5.8220   -5.5630   -3.2070 C   0  0  0  0  0  3  0  0  0  0  0  0
    6.4280   -6.0050   -2.0330 C   0  0  0  0  0  3  0  0  0  0  0  0
    6.2230   -5.3140   -0.8360 C   0  0  0  0  0  3  0  0  0  0  0  0
    2.2500   -1.1830    3.5020 N   0  0  0  0  0  0  0  0  0  0  0  0
    1.4410   -1.4120    4.5910 N   0  0  0  0  0  0  0  0  0  0  0  0
    1.6490   -2.6450    5.0300 N   0  0  0  0  0  0  0  0  0  0  0  0
    2.6410   -3.1890    4.2780 C   0  0  0  0  0  3  0  0  0  0  0  0
    3.0870   -2.2840    3.3370 C   0  0  0  0  0  0  0  0  0  0  0  0
    1.0530    3.3090    0.1200 C   0  0  0  0  0  1  0  0  0  0  0  0
    1.3650    2.1260    0.9850 C   0  0  0  0  0  0  0  0  0  0  0  0
    0.3850    1.1650    1.2530 C   0  0  0  0  0  3  0  0  0  0  0  0
    0.6640    0.0650    2.0720 C   0  0  0  0  0  3  0  0  0  0  0  0
    1.9350   -0.0920    2.6360 C   0  0  0  0  0  0  0  0  0  0  0  0
    2.9090    0.8890    2.3900 C   0  0  0  0  0  3  0  0  0  0  0  0
    2.6250    1.9880    1.5740 C   0  0  0  0  0  3  0  0  0  0  0  0
    6.1280   -1.2870    3.6390 C   0  0  0  0  0  0  0  0  0  0  0  0
    6.6210   -1.9690    4.5910 O   0  0  0  0  0  1  0  0  0  0  0  0
    6.0860   -0.0210    3.5830 O   0  0  0  0  0  0  0  0  0  0  0  0
  1  5  2  0  0  0  0
  1 16  1  0  0  0  0
  2  1  1  0  0  0  0
  3  4  1  0  0  0  0
  3  2  2  0  0  0  0
  4  5  1  0  0  0  0
  5 24  1  0  0  0  0
  6  3  1  0  0  0  0
  7  6  2  0  0  0  0
  8  7  1  0  0  0  0
  9  8  2  0  0  0  0
  9 10  1  0  0  0  0
 10 11  2  0  0  0  0
 11  6  1  0  0  0  0
 12 13  1  0  0  0  0
 13 14  2  0  0  0  0
 15 14  1  0  0  0  0
 16 12  1  0  0  0  0
 16 15  2  0  0  0  0
 17 18  1  0  0  0  0
 18 19  2  0  0  0  0
 18 23  1  0  0  0  0
 19 20  1  0  0  0  0
 20 21  2  0  0  0  0
 21 12  1  0  0  0  0
 22 21  1  0  0  0  0
 23 22  2  0  0  0  0
 24 25  1  0  0  0  0
 26 24  2  0  0  0  0
M  END
>  <minimizedAffinity>
-2.91285038

$$$$
