
 OpenBabel09092210413D

 26 29  0  0  0  0  0  0  0  0999 V2000
    1.5720   -3.9690   -2.0340 C   0  0  0  0  0  0  0  0  0  0  0  0
    1.0820   -5.3170   -2.1020 C   0  0  0  0  0  3  0  0  0  0  0  0
   -0.0380   -5.5340   -1.3240 C   0  0  0  0  0  0  0  0  0  0  0  0
   -0.5110   -4.0920   -0.5360 S   0  0  0  0  0  0  0  0  0  0  0  0
    0.7240   -3.1610   -1.2940 C   0  0  0  0  0  0  0  0  0  0  0  0
   -0.7660   -6.7880   -1.0950 C   0  0  0  0  0  0  0  0  0  0  0  0
   -0.1300   -7.9200   -0.5630 C   0  0  0  0  0  3  0  0  0  0  0  0
   -0.8420   -9.1020   -0.3390 C   0  0  0  0  0  3  0  0  0  0  0  0
   -2.2000   -9.1670   -0.6430 C   0  0  0  0  0  3  0  0  0  0  0  0
   -2.8470   -8.0510   -1.1670 C   0  0  0  0  0  3  0  0  0  0  0  0
   -2.1360   -6.8690   -1.3900 C   0  0  0  0  0  3  0  0  0  0  0  0
    4.1090   -3.2850   -2.2660 N   0  0  0  0  0  0  0  0  0  0  0  0
    4.8710   -2.8330   -3.3180 N   0  0  0  0  0  0  0  0  0  0  0  0
    4.1670   -2.9380   -4.4360 N   0  0  0  0  0  0  0  0  0  0  0  0
    2.9280   -3.3840   -4.1030 C   0  0  0  0  0  3  0  0  0  0  0  0
    2.8300   -3.5650   -2.7390 C   0  0  0  0  0  0  0  0  0  0  0  0
    6.7280   -4.8320    2.6120 C   0  0  0  0  0  1  0  0  0  0  0  0
    6.0570   -4.4130    1.3400 C   0  0  0  0  0  0  0  0  0  0  0  0
    5.1490   -3.3490    1.3350 C   0  0  0  0  0  3  0  0  0  0  0  0
    4.5070   -2.9600    0.1540 C   0  0  0  0  0  3  0  0  0  0  0  0
    4.7670   -3.6300   -1.0460 C   0  0  0  0  0  0  0  0  0  0  0  0
    5.6570   -4.7170   -1.0340 C   0  0  0  0  0  3  0  0  0  0  0  0
    6.2940   -5.1040    0.1490 C   0  0  0  0  0  3  0  0  0  0  0  0
    0.7640   -1.6720   -1.1640 C   0  0  0  0  0  0  0  0  0  0  0  0
    0.3260   -0.9930   -2.1440 O   0  0  0  0  0  0  0  0  0  0  0  0
    1.2530   -1.1960   -0.0950 O   0  0  0  0  0  1  0  0  0  0  0  0
  1  5  2  0  0  0  0
  2  1  1  0  0  0  0
  2  3  2  0  0  0  0
  3  6  1  0  0  0  0
  3  4  1  0  0  0  0
  5 24  1  0  0  0  0
  5  4  1  0  0  0  0
  6  7  1  0  0  0  0
  7  8  2  0  0  0  0
  9  8  1  0  0  0  0
 10  9  2  0  0  0  0
 11 10  1  0  0  0  0
 11  6  2  0  0  0  0
 12 21  1  0  0  0  0
 13 12  1  0  0  0  0
 14 15  1  0  0  0  0
 14 13  2  0  0  0  0
 15 16  2  0  0  0  0
 16 12  1  0  0  0  0
 16  1  1  0  0  0  0
 18 17  1  0  0  0  0
 19 18  1  0  0  0  0
 20 19  2  0  0  0  0
 21 22  2  0  0  0  0
 21 20  1  0  0  0  0
 22 23  1  0  0  0  0
 23 18  2  0  0  0  0
 24 26  1  0  0  0  0
 25 24  2  0  0  0  0
M  END
>  <minimizedAffinity>
-2.81766438

$$$$
