REMARK  Name = 
REMARK  7 active torsions:
REMARK  status: ('A' for Active; 'I' for Inactive)
REMARK    1  A    between atoms: C_2  and  C_4
REMARK    2  A    between atoms: C_11  and  C_12
REMARK    3  A    between atoms: C_15  and  O_16
REMARK    4  A    between atoms: O_16  and  C_17
REMARK    5  A    between atoms: C_17  and  C_18
REMARK    6  A    between atoms: C_17  and  C_25
REMARK    7  A    between atoms: N_34  and  C_35
REMARK                            x       y       z     vdW  Elec       q    Type
REMARK                         _______ _______ _______ _____ _____    ______ ____
ROOT
ATOM      1  C   UNL     1       6.911  -5.123   1.073  0.00  0.00    +0.018 A 
ATOM      2  C   UNL     1       7.901  -5.683   0.261  0.00  0.00    +0.015 A 
ATOM      3  C   UNL     1       8.898  -6.490   0.819  0.00  0.00    +0.046 A 
ATOM      4  C   UNL     1       8.934  -6.738   2.194  0.00  0.00    +0.122 A 
ATOM      5  C   UNL     1       7.972  -6.150   3.010  0.00  0.00    +0.046 A 
ATOM      6  C   UNL     1       6.968  -5.349   2.453  0.00  0.00    +0.015 A 
ENDROOT
BRANCH   1  14
ATOM      7  C   UNL     1       3.000  -0.924  -0.645  0.00  0.00    -0.001 A 
ATOM      8  C   UNL     1       2.594  -1.888  -1.580  0.00  0.00    +0.012 A 
ATOM      9  C   UNL     1       3.176  -3.161  -1.642  0.00  0.00    +0.028 A 
ATOM     10  C   UNL     1       4.196  -3.453  -0.726  0.00  0.00    +0.069 A 
ATOM     11  C   UNL     1       4.629  -2.518   0.210  0.00  0.00    +0.090 A 
ATOM     12  C   UNL     1       4.031  -1.249   0.259  0.00  0.00    +0.039 A 
ATOM     13  N   UNL     1       5.638  -3.034   0.982  0.00  0.00    -0.228 NA
ATOM     14  C   UNL     1       5.868  -4.251   0.530  0.00  0.00    +0.142 A 
ATOM     15  N   UNL     1       4.967  -4.572  -0.476  0.00  0.00    -0.320 N 
BRANCH  15  16
ATOM     16  C   UNL     1       4.821  -5.880  -1.110  0.00  0.00    +0.089 C 
ATOM     17  C   UNL     1       3.436  -6.512  -0.886  0.00  0.00    +0.025 C 
ATOM     18  C   UNL     1       3.351  -7.899  -1.522  0.00  0.00    +0.002 C 
ATOM     19  C   UNL     1       3.728  -7.865  -3.000  0.00  0.00    +0.000 C 
ATOM     20  C   UNL     1       5.110  -7.253  -3.216  0.00  0.00    +0.002 C 
ATOM     21  C   UNL     1       5.214  -5.862  -2.596  0.00  0.00    +0.025 C 
ENDBRANCH  15  16
BRANCH   7  23
ATOM     22  O   UNL     1       1.422   0.661  -1.460  0.00  0.00    -0.545 OA
ATOM     23  C   UNL     1       2.341   0.441  -0.608  0.00  0.00    +0.072 C 
ATOM     24  O   UNL     1       2.752   1.265   0.268  0.00  0.00    -0.545 OA
ENDBRANCH   7  23
ENDBRANCH   1  14
BRANCH   4  25
ATOM     25  O   UNL     1       9.983  -7.511   2.597  0.00  0.00    -0.480 OA
BRANCH  25  26
ATOM     26  C   UNL     1      10.057  -8.093   3.914  0.00  0.00    +0.234 C 
BRANCH  26  27
ATOM     27  C   UNL     1      10.672  -7.191   4.992  0.00  0.00    -0.003 A 
ATOM     28  C   UNL     1      10.906  -5.821   4.789  0.00  0.00    +0.009 A 
ATOM     29  C   UNL     1      11.494  -5.035   5.786  0.00  0.00    +0.020 A 
ATOM     30  C   UNL     1      11.875  -5.613   6.992  0.00  0.00    +0.041 A 
ATOM     31 CL   UNL     1      12.604  -4.648   8.215  0.00  0.00    -0.084 Cl
ATOM     32  C   UNL     1      11.678  -6.973   7.210  0.00  0.00    +0.020 A 
ATOM     33  C   UNL     1      11.089  -7.756   6.214  0.00  0.00    +0.009 A 
ENDBRANCH  26  27
BRANCH  26  34
ATOM     34  C   UNL     1       8.838  -8.949   4.284  0.00  0.00    -0.003 A 
ATOM     35  C   UNL     1       8.516 -10.049   3.466  0.00  0.00    +0.009 A 
ATOM     36  C   UNL     1       7.419 -10.864   3.755  0.00  0.00    +0.020 A 
ATOM     37  C   UNL     1       6.627 -10.588   4.865  0.00  0.00    +0.041 A 
ATOM     38 CL   UNL     1       5.279 -11.594   5.227  0.00  0.00    -0.084 Cl
ATOM     39  C   UNL     1       6.920  -9.502   5.685  0.00  0.00    +0.020 A 
ATOM     40  C   UNL     1       8.018  -8.686   5.395  0.00  0.00    +0.009 A 
ENDBRANCH  26  34
ENDBRANCH  25  26
ENDBRANCH   4  25
TORSDOF 7
