
 OpenBabel09132204463D

 40 45  0  0  1  0  0  0  0  0999 V2000
    4.4220   -9.8810    4.2140 C   0  0  0  0  0  0  0  0  0  0  0  0
    3.5900   -8.7590    4.2260 C   0  0  0  0  0  3  0  0  0  0  0  0
    3.9490   -7.6060    3.5200 C   0  0  0  0  0  3  0  0  0  0  0  0
    5.1490   -7.5480    2.8060 C   0  0  0  0  0  0  0  0  0  0  0  0
    5.9980   -8.6500    2.8240 C   0  0  0  0  0  3  0  0  0  0  0  0
    5.6370   -9.8080    3.5230 C   0  0  0  0  0  3  0  0  0  0  0  0
    3.2860  -14.3830    7.9990 C   0  0  0  0  0  0  0  0  0  0  0  0
    2.7690  -15.0200    6.8610 C   0  0  0  0  0  3  0  0  0  0  0  0
    2.7840  -14.4180    5.5960 C   0  0  0  0  0  3  0  0  0  0  0  0
    3.3400  -13.1350    5.4950 C   0  0  0  0  0  0  0  0  0  0  0  0
    3.8550  -12.4710    6.6040 C   0  0  0  0  0  0  0  0  0  0  0  0
    3.8350  -13.0920    7.8630 C   0  0  0  0  0  3  0  0  0  0  0  0
    4.3300  -11.2330    6.2530 N   0  0  0  0  0  0  0  0  0  0  0  0
    4.0940  -11.0960    4.9630 C   0  0  0  0  0  0  0  0  0  0  0  0
    3.5440  -12.2600    4.4450 N   0  0  0  0  0  0  0  0  0  0  0  0
    3.2870  -12.5310    3.0330 C   0  0  0  0  0  3  0  0  0  0  0  0
    2.3850  -11.4780    2.3660 C   0  0  0  0  0  2  0  0  0  0  0  0
    2.1040  -11.8340    0.9070 C   0  0  0  0  0  2  0  0  0  0  0  0
    3.3930  -12.0560    0.1220 C   0  0  0  0  0  2  0  0  0  0  0  0
    4.2770  -13.1150    0.7780 C   0  0  0  0  0  2  0  0  0  0  0  0
    4.5790  -12.7740    2.2350 C   0  0  0  0  0  2  0  0  0  0  0  0
    4.3550  -15.1380    9.9880 O   0  0  0  0  0  1  0  0  0  0  0  0
    3.2560  -15.0720    9.3500 C   0  0  0  0  0  0  0  0  0  0  0  0
    2.1390  -15.5310    9.7460 O   0  0  0  0  0  0  0  0  0  0  0  0
    5.3820   -6.3490    2.1990 O   0  0  0  0  0  0  0  0  0  0  0  0
    6.0820   -5.2710    2.8520 C   0  0  1  0  0  3  0  0  0  0  0  0
    7.2230   -4.6470    2.0380 C   0  0  0  0  0  0  0  0  0  0  0  0
    7.8880   -3.4770    2.4400 C   0  0  0  0  0  3  0  0  0  0  0  0
    8.9060   -2.9210    1.6580 C   0  0  0  0  0  3  0  0  0  0  0  0
    9.2590   -3.5170    0.4520 C   0  0  0  0  0  0  0  0  0  0  0  0
   10.5060   -2.8290   -0.5130 Cl  0  0  0  0  0  0  0  0  0  0  0  0
    8.6000   -4.6620    0.0170 C   0  0  0  0  0  3  0  0  0  0  0  0
    7.5850   -5.2170    0.8000 C   0  0  0  0  0  3  0  0  0  0  0  0
    5.1720   -4.3430    3.6670 C   0  0  0  0  0  0  0  0  0  0  0  0
    5.5290   -4.0510    4.9980 C   0  0  0  0  0  3  0  0  0  0  0  0
    4.7390   -3.2110    5.7870 C   0  0  0  0  0  3  0  0  0  0  0  0
    3.5800   -2.6540    5.2560 C   0  0  0  0  0  0  0  0  0  0  0  0
    2.6090   -1.6150    6.2240 Cl  0  0  0  0  0  0  0  0  0  0  0  0
    3.2010   -2.9340    3.9460 C   0  0  0  0  0  3  0  0  0  0  0  0
    3.9920   -3.7750    3.1570 C   0  0  0  0  0  3  0  0  0  0  0  0
  1  2  1  0  0  0  0
  1 14  1  0  0  0  0
  3  2  2  0  0  0  0
  4  5  2  0  0  0  0
  4  3  1  0  0  0  0
  5  6  1  0  0  0  0
  6  1  2  0  0  0  0
  7 23  1  0  0  0  0
  8  7  2  0  0  0  0
  9  8  1  0  0  0  0
 10  9  2  0  0  0  0
 10 11  1  0  0  0  0
 11 12  2  0  0  0  0
 12  7  1  0  0  0  0
 13 11  1  0  0  0  0
 14 13  2  0  0  0  0
 15 14  1  0  0  0  0
 15 10  1  0  0  0  0
 16 15  1  0  0  0  0
 17 16  1  0  0  0  0
 18 17  1  0  0  0  0
 19 20  1  0  0  0  0
 19 18  1  0  0  0  0
 20 21  1  0  0  0  0
 21 16  1  0  0  0  0
 23 24  2  0  0  0  0
 23 22  1  0  0  0  0
 25  4  1  0  0  0  0
 26 25  1  6  0  0  0
 26 34  1  0  0  0  0
 27 28  1  0  0  0  0
 27 26  1  0  0  0  0
 29 28  2  0  0  0  0
 30 29  1  0  0  0  0
 31 30  1  0  0  0  0
 32 30  2  0  0  0  0
 32 33  1  0  0  0  0
 33 27  2  0  0  0  0
 34 35  1  0  0  0  0
 35 36  2  0  0  0  0
 37 36  1  0  0  0  0
 37 38  1  0  0  0  0
 39 37  2  0  0  0  0
 40 34  2  0  0  0  0
 40 39  1  0  0  0  0
M  END
>  <minimizedAffinity>
-8.53059959

$$$$
