
 OpenBabel09132204463D

 40 45  0  0  1  0  0  0  0  0999 V2000
    4.8000   -7.4330    1.8680 C   0  0  0  0  0  0  0  0  0  0  0  0
    4.1080   -7.9870    0.7890 C   0  0  0  0  0  3  0  0  0  0  0  0
    3.1270   -8.9610    1.0050 C   0  0  0  0  0  3  0  0  0  0  0  0
    2.8330   -9.4090    2.2950 C   0  0  0  0  0  0  0  0  0  0  0  0
    3.5480   -8.8860    3.3690 C   0  0  0  0  0  3  0  0  0  0  0  0
    4.5240   -7.9060    3.1570 C   0  0  0  0  0  3  0  0  0  0  0  0
    9.3550   -3.8280    0.4070 C   0  0  0  0  0  0  0  0  0  0  0  0
    8.8060   -2.9770    1.3770 C   0  0  0  0  0  3  0  0  0  0  0  0
    7.6670   -3.3230    2.1160 C   0  0  0  0  0  3  0  0  0  0  0  0
    7.0780   -4.5680    1.8560 C   0  0  0  0  0  0  0  0  0  0  0  0
    7.5920   -5.4340    0.8950 C   0  0  0  0  0  0  0  0  0  0  0  0
    8.7360   -5.0710    0.1670 C   0  0  0  0  0  3  0  0  0  0  0  0
    6.8400   -6.5780    0.8190 N   0  0  0  0  0  0  0  0  0  0  0  0
    5.8520   -6.4320    1.6800 C   0  0  0  0  0  0  0  0  0  0  0  0
    5.9930   -5.2430    2.3820 N   0  0  0  0  0  0  0  0  0  0  0  0
    5.1760   -4.8140    3.5140 C   0  0  0  0  0  3  0  0  0  0  0  0
    5.9650   -4.0070    4.5600 C   0  0  0  0  0  2  0  0  0  0  0  0
    5.0810   -3.6280    5.7480 C   0  0  0  0  0  2  0  0  0  0  0  0
    3.8180   -2.8990    5.3010 C   0  0  0  0  0  2  0  0  0  0  0  0
    3.0300   -3.7110    4.2760 C   0  0  0  0  0  2  0  0  0  0  0  0
    3.8920   -4.0920    3.0760 C   0  0  0  0  0  2  0  0  0  0  0  0
   10.4650   -2.4550   -1.1900 O   0  0  0  0  0  0  0  0  0  0  0  0
   10.5920   -3.4180   -0.3680 C   0  0  0  0  0  0  0  0  0  0  0  0
   11.6640   -4.0620   -0.1420 O   0  0  0  0  0  1  0  0  0  0  0  0
    1.8810  -10.3850    2.3470 O   0  0  0  0  0  0  0  0  0  0  0  0
    2.2110  -11.7840    2.4530 C   0  0  1  0  0  3  0  0  0  0  0  0
    2.2300  -12.5520    1.1250 C   0  0  0  0  0  0  0  0  0  0  0  0
    2.2540  -11.9070   -0.1220 C   0  0  0  0  0  3  0  0  0  0  0  0
    2.2430  -12.6400   -1.3140 C   0  0  0  0  0  3  0  0  0  0  0  0
    2.1860  -14.0290   -1.2740 C   0  0  0  0  0  0  0  0  0  0  0  0
    2.1660  -14.9300   -2.7390 Cl  0  0  0  0  0  0  0  0  0  0  0  0
    2.1350  -14.6930   -0.0530 C   0  0  0  0  0  3  0  0  0  0  0  0
    2.1480  -13.9590    1.1360 C   0  0  0  0  0  3  0  0  0  0  0  0
    3.3010  -12.0890    3.4900 C   0  0  0  0  0  0  0  0  0  0  0  0
    2.9430  -12.1200    4.8520 C   0  0  0  0  0  3  0  0  0  0  0  0
    3.8930  -12.3930    5.8390 C   0  0  0  0  0  3  0  0  0  0  0  0
    5.2140  -12.6360    5.4780 C   0  0  0  0  0  0  0  0  0  0  0  0
    6.3840  -12.9800    6.6920 Cl  0  0  0  0  0  0  0  0  0  0  0  0
    5.5940  -12.6040    4.1390 C   0  0  0  0  0  3  0  0  0  0  0  0
    4.6440  -12.3300    3.1510 C   0  0  0  0  0  3  0  0  0  0  0  0
  1  6  1  0  0  0  0
  2  3  1  0  0  0  0
  2  1  2  0  0  0  0
  3  4  2  0  0  0  0
  4 25  1  0  0  0  0
  4  5  1  0  0  0  0
  6  5  2  0  0  0  0
  7  8  1  0  0  0  0
  8  9  2  0  0  0  0
 10  9  1  0  0  0  0
 10 15  1  0  0  0  0
 11 10  2  0  0  0  0
 12  7  2  0  0  0  0
 12 11  1  0  0  0  0
 13 11  1  0  0  0  0
 13 14  2  0  0  0  0
 14  1  1  0  0  0  0
 14 15  1  0  0  0  0
 15 16  1  0  0  0  0
 16 17  1  0  0  0  0
 17 18  1  0  0  0  0
 19 18  1  0  0  0  0
 20 19  1  0  0  0  0
 21 16  1  0  0  0  0
 21 20  1  0  0  0  0
 22 23  2  0  0  0  0
 23 24  1  0  0  0  0
 23  7  1  0  0  0  0
 26 25  1  6  0  0  0
 26 34  1  0  0  0  0
 27 33  1  0  0  0  0
 27 26  1  0  0  0  0
 28 27  2  0  0  0  0
 29 30  2  0  0  0  0
 29 28  1  0  0  0  0
 30 32  1  0  0  0  0
 31 30  1  0  0  0  0
 32 33  2  0  0  0  0
 34 35  1  0  0  0  0
 35 36  2  0  0  0  0
 37 36  1  0  0  0  0
 37 38  1  0  0  0  0
 39 37  2  0  0  0  0
 40 34  2  0  0  0  0
 40 39  1  0  0  0  0
M  END
>  <minimizedAffinity>
-9.27088356

$$$$
