
 OpenBabel09132204463D

 40 45  0  0  1  0  0  0  0  0999 V2000
    6.4870   -6.3730    0.4770 C   0  0  0  0  0  0  0  0  0  0  0  0
    7.6860   -6.2210    1.1790 C   0  0  0  0  0  3  0  0  0  0  0  0
    8.6950   -5.3910    0.6800 C   0  0  0  0  0  3  0  0  0  0  0  0
    8.5320   -4.7130   -0.5320 C   0  0  0  0  0  0  0  0  0  0  0  0
    7.3550   -4.8930   -1.2510 C   0  0  0  0  0  3  0  0  0  0  0  0
    6.3400   -5.7170   -0.7500 C   0  0  0  0  0  3  0  0  0  0  0  0
    2.3390  -10.5030    1.7480 C   0  0  0  0  0  0  0  0  0  0  0  0
    2.1590   -9.7550    2.9210 C   0  0  0  0  0  3  0  0  0  0  0  0
    2.8880   -8.5870    3.1820 C   0  0  0  0  0  3  0  0  0  0  0  0
    3.8220   -8.1780    2.2210 C   0  0  0  0  0  0  0  0  0  0  0  0
    4.0320   -8.9000    1.0500 C   0  0  0  0  0  0  0  0  0  0  0  0
    3.2890  -10.0650    0.8050 C   0  0  0  0  0  3  0  0  0  0  0  0
    4.9980   -8.3070    0.2790 N   0  0  0  0  0  0  0  0  0  0  0  0
    5.4190   -7.2550    0.9530 C   0  0  0  0  0  0  0  0  0  0  0  0
    4.6840   -7.1020    2.1210 N   0  0  0  0  0  0  0  0  0  0  0  0
    4.7660   -5.9720    3.0430 C   0  0  0  0  0  3  0  0  0  0  0  0
    4.2630   -4.6530    2.4320 C   0  0  0  0  0  2  0  0  0  0  0  0
    4.4180   -3.4930    3.4160 C   0  0  0  0  0  2  0  0  0  0  0  0
    3.7450   -3.7940    4.7510 C   0  0  0  0  0  2  0  0  0  0  0  0
    4.2590   -5.0950    5.3620 C   0  0  0  0  0  2  0  0  0  0  0  0
    4.1050   -6.2700    4.3990 C   0  0  0  0  0  2  0  0  0  0  0  0
    1.9000  -12.5090    0.5450 O   0  0  0  0  0  0  0  0  0  0  0  0
    1.5250  -11.7590    1.5020 C   0  0  0  0  0  0  0  0  0  0  0  0
    0.5320  -11.9710    2.2650 O   0  0  0  0  0  1  0  0  0  0  0  0
    9.6130   -3.9710   -0.9080 O   0  0  0  0  0  0  0  0  0  0  0  0
   10.5000   -3.3520    0.0460 C   0  0  1  0  0  3  0  0  0  0  0  0
   11.9960   -3.5280   -0.2460 C   0  0  0  0  0  0  0  0  0  0  0  0
   12.9610   -3.6010    0.7720 C   0  0  0  0  0  3  0  0  0  0  0  0
   14.3200   -3.7330    0.4680 C   0  0  0  0  0  3  0  0  0  0  0  0
   14.7340   -3.7740   -0.8590 C   0  0  0  0  0  0  0  0  0  0  0  0
   16.4060   -3.9310   -1.2330 Cl  0  0  0  0  0  0  0  0  0  0  0  0
   13.8020   -3.6780   -1.8870 C   0  0  0  0  0  3  0  0  0  0  0  0
   12.4450   -3.5480   -1.5820 C   0  0  0  0  0  3  0  0  0  0  0  0
   10.0080   -1.9910    0.5580 C   0  0  0  0  0  0  0  0  0  0  0  0
   10.2460   -0.8500   -0.2320 C   0  0  0  0  0  3  0  0  0  0  0  0
    9.8200    0.4140    0.1830 C   0  0  0  0  0  3  0  0  0  0  0  0
    9.1530    0.5540    1.3960 C   0  0  0  0  0  0  0  0  0  0  0  0
    8.6220    2.1080    1.9070 Cl  0  0  0  0  0  0  0  0  0  0  0  0
    8.9130   -0.5580    2.1990 C   0  0  0  0  0  3  0  0  0  0  0  0
    9.3400   -1.8230    1.7830 C   0  0  0  0  0  3  0  0  0  0  0  0
  1 14  1  0  0  0  0
  1  2  1  0  0  0  0
  3  2  2  0  0  0  0
  4  3  1  0  0  0  0
  5  6  1  0  0  0  0
  5  4  2  0  0  0  0
  6  1  2  0  0  0  0
  7  8  1  0  0  0  0
  8  9  2  0  0  0  0
 10  9  1  0  0  0  0
 11 10  2  0  0  0  0
 12 11  1  0  0  0  0
 12  7  2  0  0  0  0
 13 14  2  0  0  0  0
 13 11  1  0  0  0  0
 14 15  1  0  0  0  0
 15 10  1  0  0  0  0
 15 16  1  0  0  0  0
 16 21  1  0  0  0  0
 17 16  1  0  0  0  0
 17 18  1  0  0  0  0
 18 19  1  0  0  0  0
 19 20  1  0  0  0  0
 21 20  1  0  0  0  0
 22 23  2  0  0  0  0
 23  7  1  0  0  0  0
 23 24  1  0  0  0  0
 25  4  1  0  0  0  0
 26 25  1  6  0  0  0
 26 34  1  0  0  0  0
 27 26  1  0  0  0  0
 27 28  1  0  0  0  0
 29 28  2  0  0  0  0
 30 29  1  0  0  0  0
 31 30  1  0  0  0  0
 32 33  1  0  0  0  0
 32 30  2  0  0  0  0
 33 27  2  0  0  0  0
 34 40  1  0  0  0  0
 35 36  1  0  0  0  0
 35 34  2  0  0  0  0
 36 37  2  0  0  0  0
 37 38  1  0  0  0  0
 37 39  1  0  0  0  0
 40 39  2  0  0  0  0
M  END
>  <minimizedAffinity>
-10.1131687

$$$$
