
 OpenBabel09132204463D

 40 45  0  0  1  0  0  0  0  0999 V2000
    4.8790   -7.0720    2.1780 C   0  0  0  0  0  0  0  0  0  0  0  0
    4.4110   -6.1490    3.1170 C   0  0  0  0  0  3  0  0  0  0  0  0
    5.0810   -4.9370    3.3100 C   0  0  0  0  0  3  0  0  0  0  0  0
    6.2350   -4.6310    2.5830 C   0  0  0  0  0  0  0  0  0  0  0  0
    6.7250   -5.5650    1.6750 C   0  0  0  0  0  3  0  0  0  0  0  0
    6.0520   -6.7760    1.4740 C   0  0  0  0  0  3  0  0  0  0  0  0
    2.4810  -12.2950    0.4890 C   0  0  0  0  0  0  0  0  0  0  0  0
    2.2130  -12.4500    1.8570 C   0  0  0  0  0  3  0  0  0  0  0  0
    2.5510  -11.4720    2.8010 C   0  0  0  0  0  3  0  0  0  0  0  0
    3.1770  -10.3080    2.3340 C   0  0  0  0  0  0  0  0  0  0  0  0
    3.4650  -10.1240    0.9840 C   0  0  0  0  0  0  0  0  0  0  0  0
    3.1160  -11.1140    0.0530 C   0  0  0  0  0  3  0  0  0  0  0  0
    4.0850   -8.9180    0.7800 N   0  0  0  0  0  0  0  0  0  0  0  0
    4.2210   -8.3630    1.9680 C   0  0  0  0  0  0  0  0  0  0  0  0
    3.6250   -9.1520    2.9420 N   0  0  0  0  0  0  0  0  0  0  0  0
    3.4480   -8.7910    4.3470 C   0  0  0  0  0  3  0  0  0  0  0  0
    1.9850   -8.4860    4.7160 C   0  0  0  0  0  2  0  0  0  0  0  0
    1.8600   -8.0630    6.1790 C   0  0  0  0  0  2  0  0  0  0  0  0
    2.4810   -9.0930    7.1180 C   0  0  0  0  0  2  0  0  0  0  0  0
    3.9370   -9.3800    6.7590 C   0  0  0  0  0  2  0  0  0  0  0  0
    4.0840   -9.8130    5.3030 C   0  0  0  0  0  2  0  0  0  0  0  0
    2.0190  -13.0360   -1.7250 O   0  0  0  0  0  0  0  0  0  0  0  0
    2.0950  -13.3760   -0.5020 C   0  0  0  0  0  0  0  0  0  0  0  0
    1.8760  -14.5400   -0.0400 O   0  0  0  0  0  1  0  0  0  0  0  0
    6.7990   -3.4320    2.9040 O   0  0  0  0  0  0  0  0  0  0  0  0
    8.2240   -3.2490    3.0150 C   0  0  1  0  0  3  0  0  0  0  0  0
    8.8870   -2.5490    1.8220 C   0  0  0  0  0  0  0  0  0  0  0  0
    9.5760   -3.2510    0.8190 C   0  0  0  0  0  3  0  0  0  0  0  0
   10.1920   -2.5750   -0.2400 C   0  0  0  0  0  3  0  0  0  0  0  0
   10.1440   -1.1870   -0.3000 C   0  0  0  0  0  0  0  0  0  0  0  0
   10.9070   -0.3560   -1.5990 Cl  0  0  0  0  0  0  0  0  0  0  0  0
    9.4900   -0.4650    0.6930 C   0  0  0  0  0  3  0  0  0  0  0  0
    8.8740   -1.1410    1.7500 C   0  0  0  0  0  3  0  0  0  0  0  0
    8.6960   -2.8880    4.4300 C   0  0  0  0  0  0  0  0  0  0  0  0
   10.0640   -2.6270    4.6360 C   0  0  0  0  0  3  0  0  0  0  0  0
   10.5500   -2.2920    5.9030 C   0  0  0  0  0  3  0  0  0  0  0  0
    9.6740   -2.2170    6.9810 C   0  0  0  0  0  0  0  0  0  0  0  0
   10.2680   -1.7980    8.5400 Cl  0  0  0  0  0  0  0  0  0  0  0  0
    8.3180   -2.4780    6.8040 C   0  0  0  0  0  3  0  0  0  0  0  0
    7.8320   -2.8130    5.5360 C   0  0  0  0  0  3  0  0  0  0  0  0
  1  2  1  0  0  0  0
  2  3  2  0  0  0  0
  4 25  1  0  0  0  0
  4  3  1  0  0  0  0
  5  4  2  0  0  0  0
  6  5  1  0  0  0  0
  6  1  2  0  0  0  0
  7  8  1  0  0  0  0
  8  9  2  0  0  0  0
 10  9  1  0  0  0  0
 10 15  1  0  0  0  0
 11 10  2  0  0  0  0
 12  7  2  0  0  0  0
 12 11  1  0  0  0  0
 13 11  1  0  0  0  0
 13 14  2  0  0  0  0
 14  1  1  0  0  0  0
 14 15  1  0  0  0  0
 15 16  1  0  0  0  0
 16 17  1  0  0  0  0
 16 21  1  0  0  0  0
 17 18  1  0  0  0  0
 18 19  1  0  0  0  0
 20 19  1  0  0  0  0
 21 20  1  0  0  0  0
 22 23  2  0  0  0  0
 23 24  1  0  0  0  0
 23  7  1  0  0  0  0
 26 25  1  1  0  0  0
 26 34  1  0  0  0  0
 27 26  1  0  0  0  0
 28 27  2  0  0  0  0
 29 28  1  0  0  0  0
 30 29  2  0  0  0  0
 30 32  1  0  0  0  0
 31 30  1  0  0  0  0
 32 33  2  0  0  0  0
 33 27  1  0  0  0  0
 34 35  2  0  0  0  0
 34 40  1  0  0  0  0
 35 36  1  0  0  0  0
 36 37  2  0  0  0  0
 37 38  1  0  0  0  0
 39 37  1  0  0  0  0
 40 39  2  0  0  0  0
M  END
>  <minimizedAffinity>
-8.63222504

$$$$
