
 OpenBabel09132204463D

 40 45  0  0  1  0  0  0  0  0999 V2000
    5.6610   -7.3150    1.5820 C   0  0  0  0  0  0  0  0  0  0  0  0
    4.5560   -7.4880    0.7430 C   0  0  0  0  0  3  0  0  0  0  0  0
    3.7180   -8.5970    0.9000 C   0  0  0  0  0  3  0  0  0  0  0  0
    3.9760   -9.5570    1.8830 C   0  0  0  0  0  0  0  0  0  0  0  0
    5.0970   -9.4070    2.6940 C   0  0  0  0  0  3  0  0  0  0  0  0
    5.9320   -8.2940    2.5450 C   0  0  0  0  0  3  0  0  0  0  0  0
    9.7240   -3.1170    0.2630 C   0  0  0  0  0  0  0  0  0  0  0  0
    9.0590   -2.3670    1.2450 C   0  0  0  0  0  3  0  0  0  0  0  0
    7.9670   -2.8750    1.9600 C   0  0  0  0  0  3  0  0  0  0  0  0
    7.5470   -4.1790    1.6640 C   0  0  0  0  0  0  0  0  0  0  0  0
    8.1790   -4.9480    0.6910 C   0  0  0  0  0  0  0  0  0  0  0  0
    9.2740   -4.4230   -0.0130 C   0  0  0  0  0  3  0  0  0  0  0  0
    7.5830   -6.1780    0.5790 N   0  0  0  0  0  0  0  0  0  0  0  0
    6.5760   -6.1820    1.4310 C   0  0  0  0  0  0  0  0  0  0  0  0
    6.5540   -5.0020    2.1600 N   0  0  0  0  0  0  0  0  0  0  0  0
    5.6760   -4.7100    3.2910 C   0  0  0  0  0  3  0  0  0  0  0  0
    6.3230   -3.7860    4.3380 C   0  0  0  0  0  2  0  0  0  0  0  0
    5.3880   -3.5540    5.5250 C   0  0  0  0  0  2  0  0  0  0  0  0
    4.0250   -3.0370    5.0750 C   0  0  0  0  0  2  0  0  0  0  0  0
    3.3790   -3.9650    4.0480 C   0  0  0  0  0  2  0  0  0  0  0  0
    4.2940   -4.2030    2.8500 C   0  0  0  0  0  2  0  0  0  0  0  0
   12.0660   -2.8670   -0.0860 O   0  0  0  0  0  1  0  0  0  0  0  0
   10.9060   -2.5310   -0.4860 C   0  0  0  0  0  0  0  0  0  0  0  0
   10.6540   -1.7500   -1.4560 O   0  0  0  0  0  0  0  0  0  0  0  0
    3.0960  -10.5990    1.8930 O   0  0  0  0  0  0  0  0  0  0  0  0
    3.5230  -11.9750    1.9310 C   0  0  1  0  0  3  0  0  0  0  0  0
    3.3870  -12.6630    3.2960 C   0  0  0  0  0  0  0  0  0  0  0  0
    2.1420  -13.0090    3.8480 C   0  0  0  0  0  3  0  0  0  0  0  0
    2.0560  -13.6100    5.1090 C   0  0  0  0  0  3  0  0  0  0  0  0
    3.2110  -13.8550    5.8430 C   0  0  0  0  0  0  0  0  0  0  0  0
    3.1040  -14.5890    7.3950 Cl  0  0  0  0  0  0  0  0  0  0  0  0
    4.4550  -13.5000    5.3300 C   0  0  0  0  0  3  0  0  0  0  0  0
    4.5400  -12.9010    4.0710 C   0  0  0  0  0  3  0  0  0  0  0  0
    3.1620  -12.7730    0.6710 C   0  0  0  0  0  0  0  0  0  0  0  0
    3.5480  -14.1250    0.5980 C   0  0  0  0  0  3  0  0  0  0  0  0
    3.2450  -14.9010   -0.5240 C   0  0  0  0  0  3  0  0  0  0  0  0
    2.5540  -14.3330   -1.5900 C   0  0  0  0  0  0  0  0  0  0  0  0
    2.1740  -15.2870   -2.9700 Cl  0  0  0  0  0  0  0  0  0  0  0  0
    2.1680  -12.9960   -1.5450 C   0  0  0  0  0  3  0  0  0  0  0  0
    2.4720  -12.2200   -0.4220 C   0  0  0  0  0  3  0  0  0  0  0  0
  1  6  1  0  0  0  0
  2  3  1  0  0  0  0
  2  1  2  0  0  0  0
  3  4  2  0  0  0  0
  4 25  1  0  0  0  0
  4  5  1  0  0  0  0
  6  5  2  0  0  0  0
  7  8  1  0  0  0  0
  8  9  2  0  0  0  0
 10  9  1  0  0  0  0
 10 15  1  0  0  0  0
 11 10  2  0  0  0  0
 12  7  2  0  0  0  0
 12 11  1  0  0  0  0
 13 11  1  0  0  0  0
 13 14  2  0  0  0  0
 14  1  1  0  0  0  0
 14 15  1  0  0  0  0
 15 16  1  0  0  0  0
 16 17  1  0  0  0  0
 17 18  1  0  0  0  0
 19 18  1  0  0  0  0
 20 19  1  0  0  0  0
 21 16  1  0  0  0  0
 21 20  1  0  0  0  0
 23 22  1  0  0  0  0
 23  7  1  0  0  0  0
 24 23  2  0  0  0  0
 26 25  1  1  0  0  0
 26 27  1  0  0  0  0
 27 28  2  0  0  0  0
 27 33  1  0  0  0  0
 28 29  1  0  0  0  0
 29 30  2  0  0  0  0
 30 31  1  0  0  0  0
 32 30  1  0  0  0  0
 33 32  2  0  0  0  0
 34 26  1  0  0  0  0
 35 34  1  0  0  0  0
 36 35  2  0  0  0  0
 37 39  2  0  0  0  0
 37 36  1  0  0  0  0
 38 37  1  0  0  0  0
 39 40  1  0  0  0  0
 40 34  2  0  0  0  0
M  END
>  <minimizedAffinity>
-8.69865513

$$$$
