REMARK  Name = 
REMARK  8 active torsions:
REMARK  status: ('A' for Active; 'I' for Inactive)
REMARK    1  A    between atoms: C_1  and  C_2
REMARK    2  A    between atoms: C_2  and  C_3
REMARK    3  A    between atoms: C_2  and  O_4
REMARK    4  A    between atoms: O_4  and  C_5
REMARK    5  A    between atoms: C_8  and  C_9
REMARK    6  A    between atoms: C_9  and  C_10
REMARK    7  A    between atoms: C_10  and  C_11
REMARK    8  A    between atoms: C_11  and  C_12
REMARK                            x       y       z     vdW  Elec       q    Type
REMARK                         _______ _______ _______ _____ _____    ______ ____
ROOT
ATOM      1  C   UNL     1      -5.252   4.059   0.169  0.00  0.00    +0.053 C 
ENDROOT
BRANCH   1   2
ATOM      2  C   UNL     1      -5.841   3.430   1.477  0.00  0.00    +0.123 C 
ATOM      3  C   UNL     1      -7.355   3.712   1.525  0.00  0.00    +0.123 C 
ATOM      4  C   UNL     1      -7.991   3.077   0.329  0.00  0.00    +0.148 C 
ATOM      5  O   UNL     1      -8.836   3.674  -0.338  0.00  0.00    -0.297 OA
ATOM      6  C   UNL     1      -7.615   1.664   0.031  0.00  0.00    +0.194 C 
ATOM      7  C   UNL     1      -6.449   1.127   0.797  0.00  0.00    +0.315 C 
ATOM      8  O   UNL     1      -6.196  -0.075   0.793  0.00  0.00    -0.250 OA
ATOM      9  O   UNL     1      -5.659   1.992   1.471  0.00  0.00    -0.457 OA
BRANCH   2  10
ATOM     10  C   UNL     1      -5.181   3.983   2.787  0.00  0.00    +0.033 C 
ATOM     11  C   UNL     1      -5.946   3.634   4.078  0.00  0.00    +0.007 C 
ATOM     12  C   UNL     1      -4.955   3.949   5.183  0.00  0.00    +0.000 C 
ATOM     13  C   UNL     1      -3.636   3.432   4.643  0.00  0.00    +0.000 C 
ATOM     14  C   UNL     1      -3.764   3.467   3.118  0.00  0.00    +0.007 C 
ENDBRANCH   2  10
ENDBRANCH   1   2
BRANCH   1  15
ATOM     15  C   UNL     1      -3.736   4.191  -0.036  0.00  0.00    +0.039 C 
BRANCH  15  19
ATOM     16  C   UNL     1      -1.184   0.683  -0.318  0.00  0.00    +0.156 A 
ATOM     17  C   UNL     1      -2.488   0.651  -0.822  0.00  0.00    +0.049 A 
ATOM     18  C   UNL     1      -3.328   1.769  -0.741  0.00  0.00    +0.007 A 
ATOM     19  C   UNL     1      -2.891   2.946  -0.130  0.00  0.00    -0.044 A 
ATOM     20  C   UNL     1      -1.564   2.990   0.325  0.00  0.00    +0.045 A 
ATOM     21  C   UNL     1      -0.727   1.876   0.228  0.00  0.00    +0.165 A 
ATOM     22  F   UNL     1       0.533   2.021   0.656  0.00  0.00    -0.202 F 
BRANCH  16  23
ATOM     23  O   UNL     1      -0.491  -0.475  -0.494  0.00  0.00    -0.486 OA
BRANCH  23  25
ATOM     24  C   UNL     1       1.919  -0.474  -0.053  0.00  0.00    +0.051 C 
ATOM     25  C   UNL     1       0.533  -0.912   0.407  0.00  0.00    +0.167 C 
ATOM     26  C   UNL     1       0.264  -0.695   1.895  0.00  0.00    +0.051 C 
ENDBRANCH  23  25
ENDBRANCH  16  23
ENDBRANCH  15  19
ENDBRANCH   1  15
TORSDOF 6
