REMARK  Name = 
REMARK  6 active torsions:
REMARK  status: ('A' for Active; 'I' for Inactive)
REMARK    1  A    between atoms: C_1  and  N_2
REMARK    2  A    between atoms: C_6  and  C_8
REMARK    3  A    between atoms: C_8  and  N_9
REMARK    4  A    between atoms: C_10  and  C_11
REMARK    5  A    between atoms: C_17  and  C_18
REMARK    6  A    between atoms: C_26  and  C_27
REMARK                            x       y       z     vdW  Elec       q    Type
REMARK                         _______ _______ _______ _____ _____    ______ ____
ROOT
ATOM      1  N   UNL     1      -4.467   1.451  -0.603  0.00  0.00    -0.331 N 
ATOM      2  C   UNL     1      -5.152   1.007   0.519  0.00  0.00    +0.054 A 
ATOM      3  C   UNL     1      -4.765   1.855   1.561  0.00  0.00    -0.011 A 
ATOM      4  C   UNL     1      -3.923   2.858   0.969  0.00  0.00    +0.005 A 
ATOM      5  C   UNL     1      -3.004   3.802   1.459  0.00  0.00    +0.020 A 
ATOM      6  C   UNL     1      -2.291   4.582   0.529  0.00  0.00    -0.002 A 
ATOM      7  C   UNL     1      -2.736   4.682  -0.797  0.00  0.00    +0.012 A 
ATOM      8  C   UNL     1      -3.649   3.753  -1.303  0.00  0.00    +0.027 A 
ATOM      9  C   UNL     1      -4.087   2.765  -0.410  0.00  0.00    +0.050 A 
ENDROOT
BRANCH   2  10
ATOM     10  C   UNL     1      -5.968  -0.204   0.503  0.00  0.00    -0.001 A 
ATOM     11  C   UNL     1      -5.506  -1.398   1.065  0.00  0.00    +0.010 A 
ATOM     12  C   UNL     1      -6.294  -2.549   1.030  0.00  0.00    +0.001 A 
ATOM     13  C   UNL     1      -7.553  -2.514   0.433  0.00  0.00    +0.000 A 
ATOM     14  C   UNL     1      -8.022  -1.329  -0.131  0.00  0.00    +0.001 A 
ATOM     15  C   UNL     1      -7.232  -0.178  -0.098  0.00  0.00    +0.010 A 
ENDBRANCH   2  10
BRANCH   3  16
ATOM     16  C   UNL     1      -5.096   1.800   3.036  0.00  0.00    +0.022 C 
ATOM     17  C   UNL     1      -6.580   1.525   3.333  0.00  0.00    +0.008 C 
ATOM     18  C   UNL     1      -6.866   1.581   4.832  0.00  0.00    +0.001 C 
ATOM     19  C   UNL     1      -5.960   0.629   5.609  0.00  0.00    +0.000 C 
ATOM     20  C   UNL     1      -4.484   0.885   5.313  0.00  0.00    +0.001 C 
ATOM     21  C   UNL     1      -4.188   0.838   3.814  0.00  0.00    +0.008 C 
ENDBRANCH   3  16
BRANCH   6  22
ATOM     22  C   UNL     1      -0.875   4.971   0.835  0.00  0.00    +0.072 C 
ATOM     23  O   UNL     1      -0.471   6.119   0.505  0.00  0.00    -0.545 OA
ATOM     24  O   UNL     1      -0.134   3.999   1.228  0.00  0.00    -0.545 OA
ENDBRANCH   6  22
BRANCH   1  25
ATOM     25  C   UNL     1      -3.776   0.573  -1.560  0.00  0.00    +0.218 C 
BRANCH  25  31
ATOM     26  C   UNL     1       2.365   2.453   0.393  0.00  0.00    +0.190 C 
ATOM     27  N   UNL     1       0.970   1.981   0.175  0.00  0.00    +0.235 N 
ATOM     28  C   UNL     1       0.646   0.683   0.852  0.00  0.00    +0.150 C 
ATOM     29  C   UNL     1      -0.845   0.344   0.717  0.00  0.00    +0.158 C 
ATOM     30  N   UNL     1      -1.404   0.503  -0.633  0.00  0.00    -0.290 N 
ATOM     31  C   UNL     1      -2.609  -0.164  -0.872  0.00  0.00    +0.236 C 
ATOM     32  O   UNL     1      -2.750  -1.320  -0.461  0.00  0.00    -0.274 OA
ATOM     33  C   UNL     1      -0.942   1.662  -1.395  0.00  0.00    +0.158 C 
ATOM     34  C   UNL     1       0.557   1.968  -1.268  0.00  0.00    +0.150 C 
ATOM     35  H   UNL     1       0.400   2.749   0.651  0.00  0.00    +0.203 HD
ENDBRANCH  25  31
ENDBRANCH   1  25
TORSDOF 5
