REMARK  Name = 
REMARK  8 active torsions:
REMARK  status: ('A' for Active; 'I' for Inactive)
REMARK    1  A    between atoms: C_2  and  C_4
REMARK    2  A    between atoms: C_4  and  C_5
REMARK    3  A    between atoms: C_4  and  N_12
REMARK    4  A    between atoms: C_5  and  C_6
REMARK    5  A    between atoms: N_12  and  C_13
REMARK    6  A    between atoms: C_13  and  C_14
REMARK    7  A    between atoms: C_17  and  C_18
REMARK    8  A    between atoms: C_28  and  C_30
REMARK                            x       y       z     vdW  Elec       q    Type
REMARK                         _______ _______ _______ _____ _____    ______ ____
ROOT
ATOM      1  N   UNL     1       2.310  -1.793   0.383  0.00  0.00    -0.284 N 
ATOM      2  C   UNL     1       0.973  -1.990   0.731  0.00  0.00    +0.249 C 
ATOM      3  O   UNL     1       0.100  -1.127   0.694  0.00  0.00    -0.270 OA
ENDROOT
BRANCH   2   4
ATOM      4  C   UNL     1       0.513  -3.353   1.052  0.00  0.00    +0.055 A 
ATOM      5  C   UNL     1       0.270  -4.230  -0.016  0.00  0.00    +0.016 A 
ATOM      6  C   UNL     1      -0.183  -5.525   0.237  0.00  0.00    +0.021 A 
ATOM      7  C   UNL     1      -0.410  -5.931   1.552  0.00  0.00    +0.042 A 
ATOM      8 CL   UNL     1      -0.965  -7.531   1.863  0.00  0.00    -0.083 Cl
ATOM      9  C   UNL     1      -0.205  -5.051   2.614  0.00  0.00    +0.040 A 
ATOM     10  C   UNL     1       0.247  -3.751   2.365  0.00  0.00    +0.054 A 
ATOM     11 CL   UNL     1       0.453  -2.706   3.722  0.00  0.00    -0.083 Cl
ENDBRANCH   2   4
BRANCH   1  12
ATOM     12  C   UNL     1       2.741  -0.395   0.023  0.00  0.00    +0.127 C 
BRANCH  12  14
ATOM     13  O   UNL     1       3.069   0.239   2.314  0.00  0.00    -0.548 OA
ATOM     14  C   UNL     1       2.673   0.660   1.184  0.00  0.00    +0.062 C 
ATOM     15  O   UNL     1       2.359   1.843   0.861  0.00  0.00    -0.548 OA
ENDBRANCH  12  14
BRANCH  12  16
ATOM     16  C   UNL     1       2.058   0.063  -1.283  0.00  0.00    +0.063 C 
BRANCH  16  17
ATOM     17  C   UNL     1       3.053   0.506  -2.340  0.00  0.00    -0.045 A 
ATOM     18  C   UNL     1       3.596   1.796  -2.295  0.00  0.00    +0.004 A 
ATOM     19  C   UNL     1       4.529   2.205  -3.249  0.00  0.00    +0.000 A 
ATOM     20  C   UNL     1       4.929   1.327  -4.255  0.00  0.00    +0.000 A 
ATOM     21  C   UNL     1       4.398   0.039  -4.306  0.00  0.00    +0.000 A 
ATOM     22  C   UNL     1       3.466  -0.372  -3.351  0.00  0.00    +0.004 A 
ENDBRANCH  16  17
ENDBRANCH  12  16
ENDBRANCH   1  12
BRANCH   1  23
ATOM     23  C   UNL     1       3.307  -2.857   0.236  0.00  0.00    +0.151 C 
BRANCH  23  24
ATOM     24  C   UNL     1       3.656  -3.519   1.535  0.00  0.00    +0.008 A 
ATOM     25  C   UNL     1       3.980  -2.944   2.746  0.00  0.00    +0.013 A 
ATOM     26  C   UNL     1       4.220  -3.910   3.765  0.00  0.00    +0.019 A 
ATOM     27  C   UNL     1       4.099  -5.206   3.305  0.00  0.00    +0.055 A 
ATOM     28  S   UNL     1       3.735  -5.231   1.631  0.00  0.00    -0.089 S 
BRANCH  27  29
ATOM     29  C   UNL     1       4.243  -6.424   4.058  0.00  0.00    +0.143 A 
ATOM     30  C   UNL     1       4.535  -6.578   5.406  0.00  0.00    +0.059 A 
ATOM     31  C   UNL     1       4.560  -7.968   5.688  0.00  0.00    +0.021 A 
ATOM     32  C   UNL     1       4.787  -8.763   6.825  0.00  0.00    +0.011 A 
ATOM     33  C   UNL     1       4.718 -10.158   6.694  0.00  0.00    +0.001 A 
ATOM     34  C   UNL     1       4.430 -10.752   5.462  0.00  0.00    +0.004 A 
ATOM     35  C   UNL     1       4.202  -9.976   4.321  0.00  0.00    +0.047 A 
ATOM     36  C   UNL     1       4.279  -8.595   4.484  0.00  0.00    +0.136 A 
ATOM     37  O   UNL     1       4.090  -7.673   3.504  0.00  0.00    -0.454 OA
ENDBRANCH  27  29
ENDBRANCH  23  24
ENDBRANCH   1  23
TORSDOF 8
