
 OpenBabel09132204463D

 37 41  0  0  1  0  0  0  0  0999 V2000
    1.6300   -6.7000    7.5130 N   0  0  0  0  0  0  0  0  0  0  0  0
    0.8760   -7.4830    8.3880 C   0  0  0  0  0  0  0  0  0  0  0  0
    1.1060   -7.6220    9.5860 O   0  0  0  0  0  0  0  0  0  0  0  0
   -0.3680   -8.1030    7.8990 C   0  0  0  0  0  0  0  0  0  0  0  0
   -1.5730   -7.4220    8.1300 C   0  0  0  0  0  3  0  0  0  0  0  0
   -2.7790   -7.9780    7.7010 C   0  0  0  0  0  3  0  0  0  0  0  0
   -2.7780   -9.2180    7.0620 C   0  0  0  0  0  0  0  0  0  0  0  0
   -4.2660   -9.9000    6.5300 Cl  0  0  0  0  0  0  0  0  0  0  0  0
   -1.5870   -9.9150    6.8640 C   0  0  0  0  0  3  0  0  0  0  0  0
   -0.3760   -9.3630    7.2940 C   0  0  0  0  0  0  0  0  0  0  0  0
    1.0570  -10.2910    7.0420 Cl  0  0  0  0  0  0  0  0  0  0  0  0
    2.8760   -6.0480    8.0520 C   0  0  2  0  0  3  0  0  0  0  0  0
    4.4150   -6.7910    9.7370 O   0  0  0  0  0  1  0  0  0  0  0  0
    3.9910   -7.0280    8.5650 C   0  0  0  0  0  0  0  0  0  0  0  0
    4.2630   -8.0190    7.8250 O   0  0  0  0  0  0  0  0  0  0  0  0
    2.5130   -4.9310    9.0530 C   0  0  0  0  0  2  0  0  0  0  0  0
    2.5820   -3.5460    8.4360 C   0  0  0  0  0  0  0  0  0  0  0  0
    3.1770   -3.3670    7.1810 C   0  0  0  0  0  3  0  0  0  0  0  0
    3.2260   -2.1020    6.5940 C   0  0  0  0  0  3  0  0  0  0  0  0
    2.6770   -1.0050    7.2560 C   0  0  0  0  0  3  0  0  0  0  0  0
    2.0780   -1.1730    8.5040 C   0  0  0  0  0  3  0  0  0  0  0  0
    2.0280   -2.4390    9.0910 C   0  0  0  0  0  3  0  0  0  0  0  0
    1.2490   -6.3740    6.1350 C   0  0  0  0  0  2  0  0  0  0  0  0
    2.2850   -6.7750    5.1290 C   0  0  0  0  0  0  0  0  0  0  0  0
    2.7170   -8.0370    4.7790 C   0  0  0  0  0  3  0  0  0  0  0  0
    3.7010   -8.0150    3.7500 C   0  0  0  0  0  3  0  0  0  0  0  0
    4.0200   -6.7330    3.3500 C   0  0  0  0  0  0  0  0  0  0  0  0
    3.1480   -5.5720    4.2610 S   0  0  0  0  0  0  0  0  0  0  0  0
    4.9450   -6.3360    2.3220 C   0  0  0  0  0  0  0  0  0  0  0  0
    4.8100   -6.4520    0.9450 C   0  0  0  0  0  3  0  0  0  0  0  0
    5.9770   -5.9110    0.3480 C   0  0  0  0  0  0  0  0  0  0  0  0
    6.4480   -5.7300   -0.9640 C   0  0  0  0  0  3  0  0  0  0  0  0
    7.7010   -5.1290   -1.1510 C   0  0  0  0  0  3  0  0  0  0  0  0
    8.4710   -4.7150   -0.0610 C   0  0  0  0  0  3  0  0  0  0  0  0
    8.0180   -4.8870    1.2510 C   0  0  0  0  0  3  0  0  0  0  0  0
    6.7710   -5.4890    1.4030 C   0  0  0  0  0  0  0  0  0  0  0  0
    6.1570   -5.7430    2.5880 O   0  0  0  0  0  0  0  0  0  0  0  0
  1 12  1  0  0  0  0
  1  2  1  0  0  0  0
  2  3  2  0  0  0  0
  4  5  1  0  0  0  0
  4  2  1  0  0  0  0
  6  5  2  0  0  0  0
  7  6  1  0  0  0  0
  8  7  1  0  0  0  0
  9  7  2  0  0  0  0
  9 10  1  0  0  0  0
 10  4  2  0  0  0  0
 11 10  1  0  0  0  0
 12 14  1  0  0  0  0
 12 16  1  1  0  0  0
 14 13  1  0  0  0  0
 15 14  2  0  0  0  0
 17 16  1  0  0  0  0
 17 22  1  0  0  0  0
 18 17  2  0  0  0  0
 19 18  1  0  0  0  0
 19 20  2  0  0  0  0
 20 21  1  0  0  0  0
 21 22  2  0  0  0  0
 23  1  1  0  0  0  0
 24 23  1  0  0  0  0
 25 24  2  0  0  0  0
 26 25  1  0  0  0  0
 27 26  2  0  0  0  0
 27 28  1  0  0  0  0
 28 24  1  0  0  0  0
 29 37  1  0  0  0  0
 29 27  1  0  0  0  0
 30 29  2  0  0  0  0
 31 30  1  0  0  0  0
 31 36  1  0  0  0  0
 32 31  2  0  0  0  0
 33 32  1  0  0  0  0
 33 34  2  0  0  0  0
 34 35  1  0  0  0  0
 35 36  2  0  0  0  0
 36 37  1  0  0  0  0
M  END
>  <minimizedAffinity>
-7.91250277

$$$$
