
 OpenBabel09132204463D

 37 41  0  0  1  0  0  0  0  0999 V2000
    3.3150  -11.7650    3.7670 N   0  0  0  0  0  0  0  0  0  0  0  0
    4.4010  -11.3930    2.9740 C   0  0  0  0  0  0  0  0  0  0  0  0
    5.2650  -12.1600    2.5560 O   0  0  0  0  0  0  0  0  0  0  0  0
    4.4800  -10.0070    2.4770 C   0  0  0  0  0  0  0  0  0  0  0  0
    5.3600   -9.1290    3.1290 C   0  0  0  0  0  3  0  0  0  0  0  0
    5.4570   -7.8030    2.7060 C   0  0  0  0  0  3  0  0  0  0  0  0
    4.6630   -7.3560    1.6500 C   0  0  0  0  0  0  0  0  0  0  0  0
    4.7870   -5.7200    1.1270 Cl  0  0  0  0  0  0  0  0  0  0  0  0
    3.7610   -8.2160    1.0240 C   0  0  0  0  0  3  0  0  0  0  0  0
    3.6580   -9.5460    1.4460 C   0  0  0  0  0  0  0  0  0  0  0  0
    2.5030  -10.5470    0.6470 Cl  0  0  0  0  0  0  0  0  0  0  0  0
    3.2420  -13.1980    4.2270 C   0  0  2  0  0  3  0  0  0  0  0  0
    1.2040  -14.1760    3.4200 O   0  0  0  0  0  1  0  0  0  0  0  0
    2.4660  -14.1800    3.2780 C   0  0  0  0  0  0  0  0  0  0  0  0
    3.1470  -14.7730    2.3920 O   0  0  0  0  0  0  0  0  0  0  0  0
    2.8000  -13.2710    5.7040 C   0  0  0  0  0  2  0  0  0  0  0  0
    3.9530  -13.0700    6.6700 C   0  0  0  0  0  0  0  0  0  0  0  0
    5.2700  -13.0390    6.1940 C   0  0  0  0  0  3  0  0  0  0  0  0
    6.3350  -12.8320    7.0710 C   0  0  0  0  0  3  0  0  0  0  0  0
    6.0930  -12.6520    8.4320 C   0  0  0  0  0  3  0  0  0  0  0  0
    4.7860  -12.6770    8.9160 C   0  0  0  0  0  3  0  0  0  0  0  0
    3.7190  -12.8820    8.0390 C   0  0  0  0  0  3  0  0  0  0  0  0
    2.1810  -10.8990    4.1010 C   0  0  0  0  0  2  0  0  0  0  0  0
    2.5630   -9.7420    4.9760 C   0  0  0  0  0  0  0  0  0  0  0  0
    3.3380   -9.7320    6.1160 C   0  0  0  0  0  3  0  0  0  0  0  0
    3.5040   -8.4240    6.6550 C   0  0  0  0  0  3  0  0  0  0  0  0
    2.8300   -7.4630    5.9280 C   0  0  0  0  0  0  0  0  0  0  0  0
    1.9720   -8.1700    4.6240 S   0  0  0  0  0  0  0  0  0  0  0  0
    2.7980   -6.0430    6.1630 C   0  0  0  0  0  0  0  0  0  0  0  0
    2.7190   -5.0140    5.2350 C   0  0  0  0  0  3  0  0  0  0  0  0
    2.7040   -3.7880    5.9480 C   0  0  0  0  0  0  0  0  0  0  0  0
    2.6370   -2.4250    5.6100 C   0  0  0  0  0  3  0  0  0  0  0  0
    2.6430   -1.4760    6.6430 C   0  0  0  0  0  3  0  0  0  0  0  0
    2.7140   -1.8690    7.9820 C   0  0  0  0  0  3  0  0  0  0  0  0
    2.7820   -3.2200    8.3360 C   0  0  0  0  0  3  0  0  0  0  0  0
    2.7750   -4.1380    7.2880 C   0  0  0  0  0  0  0  0  0  0  0  0
    2.8330   -5.4890    7.4210 O   0  0  0  0  0  0  0  0  0  0  0  0
  1 23  1  0  0  0  0
  1 12  1  0  0  0  0
  2  1  1  0  0  0  0
  3  2  2  0  0  0  0
  4  2  1  0  0  0  0
  4  5  1  0  0  0  0
  6  5  2  0  0  0  0
  7  6  1  0  0  0  0
  8  7  1  0  0  0  0
  9 10  1  0  0  0  0
  9  7  2  0  0  0  0
 10  4  2  0  0  0  0
 11 10  1  0  0  0  0
 12 16  1  1  0  0  0
 14 13  1  0  0  0  0
 14 12  1  0  0  0  0
 15 14  2  0  0  0  0
 16 17  1  0  0  0  0
 17 22  1  0  0  0  0
 18 17  2  0  0  0  0
 18 19  1  0  0  0  0
 19 20  2  0  0  0  0
 20 21  1  0  0  0  0
 22 21  2  0  0  0  0
 23 24  1  0  0  0  0
 24 25  2  0  0  0  0
 25 26  1  0  0  0  0
 27 29  1  0  0  0  0
 27 26  2  0  0  0  0
 28 24  1  0  0  0  0
 28 27  1  0  0  0  0
 29 37  1  0  0  0  0
 30 31  1  0  0  0  0
 30 29  2  0  0  0  0
 31 36  1  0  0  0  0
 32 31  2  0  0  0  0
 32 33  1  0  0  0  0
 33 34  2  0  0  0  0
 34 35  1  0  0  0  0
 36 37  1  0  0  0  0
 36 35  2  0  0  0  0
M  END
>  <minimizedAffinity>
-7.43065834

$$$$
