REMARK  Name = 
REMARK  4 active torsions:
REMARK  status: ('A' for Active; 'I' for Inactive)
REMARK    1  A    between atoms: C_2  and  C_4
REMARK    2  A    between atoms: C_4  and  C_6
REMARK    3  A    between atoms: C_7  and  C_9
REMARK    4  A    between atoms: C_12  and  C_13
REMARK                            x       y       z     vdW  Elec       q    Type
REMARK                         _______ _______ _______ _____ _____    ______ ____
ROOT
ATOM      1  C   UNL     1       6.579  -0.423   0.454  0.00  0.00    +0.121 A 
ATOM      2  C   UNL     1       7.021   0.893   0.601  0.00  0.00    +0.049 A 
ATOM      3  C   UNL     1       8.427   0.884   0.746  0.00  0.00    +0.050 A 
ATOM      4  C   UNL     1       8.810  -0.437   0.690  0.00  0.00    +0.136 A 
ATOM      5  O   UNL     1       7.714  -1.220   0.505  0.00  0.00    -0.456 OA
ENDROOT
BRANCH   4   6
ATOM      6  C   UNL     1      10.087  -1.140   0.782  0.00  0.00    +0.019 A 
ATOM      7  C   UNL     1      11.292  -0.420   0.840  0.00  0.00    +0.014 A 
ATOM      8  C   UNL     1      12.519  -1.082   0.935  0.00  0.00    +0.040 A 
ATOM      9  C   UNL     1      12.547  -2.471   0.973  0.00  0.00    +0.142 A 
ATOM     10  F   UNL     1      13.737  -3.086   1.066  0.00  0.00    -0.204 F 
ATOM     11  C   UNL     1      11.365  -3.206   0.917  0.00  0.00    +0.077 A 
ATOM     12 CL   UNL     1      11.411  -4.928   0.968  0.00  0.00    -0.081 Cl
ATOM     13  C   UNL     1      10.140  -2.545   0.822  0.00  0.00    +0.034 A 
ENDBRANCH   4   6
BRANCH   1  15
ATOM     14  C   UNL     1       4.492  -0.236  -0.638  0.00  0.00    +0.048 C 
ATOM     15  C   UNL     1       5.227  -0.915   0.272  0.00  0.00    -0.061 C 
ATOM     16  O   UNL     1       4.993  -1.885   1.043  0.00  0.00    -0.871 OA
BRANCH  14  17
ATOM     17  C   UNL     1       3.059  -0.414  -1.067  0.00  0.00    +0.201 C 
ATOM     18  O   UNL     1       2.306  -1.324  -0.730  0.00  0.00    -0.286 OA
BRANCH  17  20
ATOM     19  O   UNL     1       1.285   0.459  -2.514  0.00  0.00    -0.541 OA
ATOM     20  C   UNL     1       2.460   0.648  -2.046  0.00  0.00    +0.111 C 
ATOM     21  O   UNL     1       3.198   1.658  -2.327  0.00  0.00    -0.541 OA
ENDBRANCH  17  20
ENDBRANCH  14  17
ENDBRANCH   1  15
TORSDOF 4
