
 OpenBabel09122222393D

 21 22  0  0  0  0  0  0  0  0999 V2000
    9.1360   -3.6070    0.8140 C   0  0  0  0  0  0  0  0  0  0  0  0
    9.3570   -3.8600   -0.5410 C   0  0  0  0  0  3  0  0  0  0  0  0
    8.4420   -4.8470   -0.9720 C   0  0  0  0  0  3  0  0  0  0  0  0
    7.6880   -5.1780    0.1300 C   0  0  0  0  0  0  0  0  0  0  0  0
    8.0890   -4.4350    1.1950 O   0  0  0  0  0  0  0  0  0  0  0  0
    6.5970   -6.1160    0.3830 C   0  0  0  0  0  0  0  0  0  0  0  0
    5.4910   -6.1690   -0.4820 C   0  0  0  0  0  3  0  0  0  0  0  0
    4.4450   -7.0670   -0.2540 C   0  0  0  0  0  3  0  0  0  0  0  0
    4.5000   -7.9190    0.8430 C   0  0  0  0  0  0  0  0  0  0  0  0
    3.4840   -8.7750    1.0420 F   0  0  0  0  0  0  0  0  0  0  0  0
    5.5860   -7.8850    1.7140 C   0  0  0  0  0  0  0  0  0  0  0  0
    5.6460   -8.9470    3.0690 Cl  0  0  0  0  0  0  0  0  0  0  0  0
    6.6310   -6.9880    1.4860 C   0  0  0  0  0  3  0  0  0  0  0  0
    9.0270   -1.7330    2.2490 C   0  0  0  0  0  2  0  0  0  0  0  0
    9.8200   -2.6770    1.6910 C   0  0  0  0  0  0  0  0  0  0  0  0
   11.0560   -2.9230    1.7340 O   0  0  0  0  0  0  0  0  0  0  0  0
    9.3680   -0.5860    3.1640 C   0  0  0  0  0  0  0  0  0  0  0  0
    9.5230   -0.6470    4.3810 O   0  0  0  0  0  0  0  0  0  0  0  0
    9.7990    1.8230    3.2780 O   0  0  0  0  0  1  0  0  0  0  0  0
    9.5320    0.8290    2.5190 C   0  0  0  0  0  0  0  0  0  0  0  0
    9.3820    0.9080    1.2480 O   0  0  0  0  0  0  0  0  0  0  0  0
  1  5  1  0  0  0  0
  1 15  1  0  0  0  0
  2  1  2  0  0  0  0
  3  2  1  0  0  0  0
  3  4  2  0  0  0  0
  4  6  1  0  0  0  0
  4  5  1  0  0  0  0
  6 13  1  0  0  0  0
  7  8  1  0  0  0  0
  7  6  2  0  0  0  0
  8  9  2  0  0  0  0
  9 10  1  0  0  0  0
  9 11  1  0  0  0  0
 11 12  1  0  0  0  0
 13 11  2  0  0  0  0
 14 17  1  0  0  0  0
 15 16  2  0  0  0  0
 15 14  1  0  0  0  0
 17 18  2  0  0  0  0
 20 17  1  0  0  0  0
 20 19  1  0  0  0  0
 21 20  2  0  0  0  0
M  END
>  <minimizedAffinity>
-7.1431098

$$$$
