REMARK  Name = 
REMARK  6 active torsions:
REMARK  status: ('A' for Active; 'I' for Inactive)
REMARK    1  A    between atoms: C_1  and  C_2
REMARK    2  A    between atoms: C_7  and  N_8
REMARK    3  A    between atoms: C_9  and  C_11
REMARK    4  A    between atoms: C_14  and  O_15
REMARK    5  A    between atoms: O_15  and  C_16
REMARK    6  A    between atoms: C_27  and  C_28
REMARK                            x       y       z     vdW  Elec       q    Type
REMARK                         _______ _______ _______ _____ _____    ______ ____
ROOT
ATOM      1  N   UNL     1       1.193  -2.286   0.125  0.00  0.00    -0.243 N 
ATOM      2  C   UNL     1       1.809  -3.013  -0.907  0.00  0.00    +0.253 C 
ATOM      3  O   UNL     1       2.082  -4.212  -0.911  0.00  0.00    -0.270 OA
ATOM      4  C   UNL     1       1.241  -2.810   1.428  0.00  0.00    +0.168 A 
ATOM      5  N   UNL     1       0.367  -2.515   2.368  0.00  0.00    -0.232 NA
ATOM      6  C   UNL     1       0.762  -3.083   3.568  0.00  0.00    +0.130 A 
ATOM      7  C   UNL     1       1.958  -3.762   3.538  0.00  0.00    +0.056 A 
ATOM      8  S   UNL     1       2.598  -3.724   1.957  0.00  0.00    -0.051 S 
ENDROOT
BRANCH   1  15
ATOM      9  C   UNL     1       1.780   0.661   0.777  0.00  0.00    +0.009 C 
ATOM     10  C   UNL     1       0.367   0.072   0.749  0.00  0.00    +0.007 C 
ATOM     11  C   UNL     1      -0.631   1.161   0.314  0.00  0.00    +0.005 C 
ATOM     12  C   UNL     1      -2.058   0.628   0.235  0.00  0.00    +0.000 C 
ATOM     13  C   UNL     1      -2.156  -0.572  -0.698  0.00  0.00    +0.002 C 
ATOM     14  C   UNL     1      -1.190  -1.679  -0.288  0.00  0.00    +0.023 C 
ATOM     15  C   UNL     1       0.262  -1.165  -0.188  0.00  0.00    +0.087 C 
ENDBRANCH   1  15
BRANCH   2  16
ATOM     16  C   UNL     1       2.130  -2.297  -2.163  0.00  0.00    +0.038 A 
ATOM     17  C   UNL     1       1.588  -2.758  -3.368  0.00  0.00    +0.016 A 
ATOM     18  C   UNL     1       1.883  -2.089  -4.556  0.00  0.00    +0.047 A 
ATOM     19  C   UNL     1       2.713  -0.967  -4.532  0.00  0.00    +0.128 A 
ATOM     20  C   UNL     1       3.298  -0.539  -3.336  0.00  0.00    +0.047 A 
ATOM     21  C   UNL     1       3.008  -1.208  -2.146  0.00  0.00    +0.016 A 
BRANCH  19  22
ATOM     22  O   UNL     1       2.987  -0.359  -5.737  0.00  0.00    -0.456 OA
BRANCH  22  23
ATOM     23  C   UNL     1       2.800   1.003  -5.802  0.00  0.00    +0.128 A 
ATOM     24  C   UNL     1       1.649   1.633  -5.322  0.00  0.00    +0.046 A 
ATOM     25  C   UNL     1       1.508   3.015  -5.455  0.00  0.00    +0.004 A 
ATOM     26  C   UNL     1       2.508   3.762  -6.079  0.00  0.00    +0.000 A 
ATOM     27  C   UNL     1       3.647   3.129  -6.578  0.00  0.00    +0.004 A 
ATOM     28  C   UNL     1       3.790   1.747  -6.447  0.00  0.00    +0.046 A 
ENDBRANCH  22  23
ENDBRANCH  19  22
ENDBRANCH   2  16
BRANCH   7  29
ATOM     29  C   UNL     1       2.570  -4.398   4.720  0.00  0.00    +0.080 C 
ATOM     30  O   UNL     1       3.692  -4.969   4.565  0.00  0.00    -0.544 OA
ATOM     31  O   UNL     1       1.918  -4.306   5.807  0.00  0.00    -0.544 OA
ENDBRANCH   7  29
TORSDOF 5
