
 OpenBabel09122222393D

 31 34  0  0  1  0  0  0  0  0999 V2000
    4.0210   -5.9140    4.6230 N   0  0  0  0  0  0  0  0  0  0  0  0
    3.5950   -7.1770    5.0670 C   0  0  0  0  0  0  0  0  0  0  0  0
    4.0660   -8.2700    4.7590 O   0  0  0  0  0  0  0  0  0  0  0  0
    4.7560   -5.8420    3.4280 C   0  0  0  0  0  0  0  0  0  0  0  0
    5.5820   -4.8590    3.1350 N   0  0  0  0  0  0  0  0  0  0  0  0
    6.0480   -5.0110    1.8390 C   0  0  0  0  0  3  0  0  0  0  0  0
    5.5320   -6.0810    1.1440 C   0  0  0  0  0  0  0  0  0  0  0  0
    4.4580   -6.9490    2.1460 S   0  0  0  0  0  0  0  0  0  0  0  0
    1.9820   -3.6290    4.3390 C   0  0  0  0  0  1  0  0  0  0  0  0
    3.3940   -3.4310    4.8990 C   0  0  1  0  0  3  0  0  0  0  0  0
    3.3760   -2.2940    5.9360 C   0  0  0  0  0  2  0  0  0  0  0  0
    4.7510   -2.0670    6.5570 C   0  0  0  0  0  2  0  0  0  0  0  0
    5.2970   -3.3410    7.1880 C   0  0  0  0  0  2  0  0  0  0  0  0
    5.3430   -4.4880    6.1840 C   0  0  0  0  0  2  0  0  0  0  0  0
    3.9660   -4.7320    5.5300 C   0  0  2  0  0  3  0  0  0  0  0  0
    2.4950   -7.2280    6.0570 C   0  0  0  0  0  0  0  0  0  0  0  0
    2.8040   -7.4050    7.4110 C   0  0  0  0  0  3  0  0  0  0  0  0
    1.7750   -7.4540    8.3510 C   0  0  0  0  0  3  0  0  0  0  0  0
    0.4490   -7.3230    7.9350 C   0  0  0  0  0  0  0  0  0  0  0  0
    0.1370   -7.2010    6.5770 C   0  0  0  0  0  3  0  0  0  0  0  0
    1.1640   -7.1560    5.6330 C   0  0  0  0  0  3  0  0  0  0  0  0
   -0.5270   -7.4000    8.9030 O   0  0  0  0  0  0  0  0  0  0  0  0
   -1.7910   -7.7470    8.4850 C   0  0  0  0  0  0  0  0  0  0  0  0
   -2.4080   -7.1650    7.3740 C   0  0  0  0  0  3  0  0  0  0  0  0
   -3.7080   -7.5370    7.0290 C   0  0  0  0  0  3  0  0  0  0  0  0
   -4.3940   -8.4760    7.8000 C   0  0  0  0  0  3  0  0  0  0  0  0
   -3.7850   -9.0400    8.9220 C   0  0  0  0  0  3  0  0  0  0  0  0
   -2.4860   -8.6700    9.2700 C   0  0  0  0  0  3  0  0  0  0  0  0
    5.8680   -6.3860   -0.2590 C   0  0  0  0  0  0  0  0  0  0  0  0
    6.7400   -5.6600   -0.8260 O   0  0  0  0  0  0  0  0  0  0  0  0
    5.2570   -7.3710   -0.7800 O   0  0  0  0  0  1  0  0  0  0  0  0
  1  2  1  0  0  0  0
  2 16  1  0  0  0  0
  3  2  2  0  0  0  0
  4  1  1  0  0  0  0
  5  4  2  0  0  0  0
  6  5  1  0  0  0  0
  7  6  2  0  0  0  0
  7  8  1  0  0  0  0
  8  4  1  0  0  0  0
 10  9  1  1  0  0  0
 10 15  1  0  0  0  0
 10 11  1  0  0  0  0
 11 12  1  0  0  0  0
 12 13  1  0  0  0  0
 14 13  1  0  0  0  0
 15  1  1  6  0  0  0
 15 14  1  0  0  0  0
 16 17  1  0  0  0  0
 17 18  2  0  0  0  0
 19 18  1  0  0  0  0
 19 22  1  0  0  0  0
 20 19  2  0  0  0  0
 21 16  2  0  0  0  0
 21 20  1  0  0  0  0
 23 22  1  0  0  0  0
 23 28  1  0  0  0  0
 24 23  2  0  0  0  0
 25 24  1  0  0  0  0
 25 26  2  0  0  0  0
 26 27  1  0  0  0  0
 27 28  2  0  0  0  0
 29  7  1  0  0  0  0
 30 29  2  0  0  0  0
 31 29  1  0  0  0  0
M  END
>  <minimizedAffinity>
-7.03297186

$$$$
