
 OpenBabel09122220443D

 31 34  0  0  1  0  0  0  0  0999 V2000
    4.0210   -5.9140    4.6230 N   0  0  0  0  0  0  0  0  0  0  0  0
    3.5950   -7.1770    5.0670 C   0  0  0  0  0  0  0  0  0  0  0  0
    4.0660   -8.2700    4.7590 O   0  0  0  0  0  0  0  0  0  0  0  0
    4.7560   -5.8420    3.4280 C   0  0  0  0  0  0  0  0  0  0  0  0
    5.5820   -4.8590    3.1350 N   0  0  0  0  0  0  0  0  0  0  0  0
    6.0480   -5.0110    1.8390 C   0  0  0  0  0  3  0  0  0  0  0  0
    5.5320   -6.0810    1.1440 C   0  0  0  0  0  0  0  0  0  0  0  0
    4.4580   -6.9490    2.1460 S   0  0  0  0  0  0  0  0  0  0  0  0
    1.9820   -3.6290    4.3390 C   0  0  0  0  0  1  0  0  0  0  0  0
    3.3940   -3.4310    4.8990 C   0  0  1  0  0  3  0  0  0  0  0  0
    3.3760   -2.2940    5.9360 C   0  0  0  0  0  2  0  0  0  0  0  0
    4.7510   -2.0670    6.5570 C   0  0  0  0  0  2  0  0  0  0  0  0
    5.2970   -3.3410    7.1880 C   0  0  0  0  0  2  0  0  0  0  0  0
    5.3430   -4.4880    6.1840 C   0  0  0  0  0  2  0  0  0  0  0  0
    3.9660   -4.7320    5.5300 C   0  0  2  0  0  3  0  0  0  0  0  0
    2.4950   -7.2280    6.0570 C   0  0  0  0  0  0  0  0  0  0  0  0
    2.8040   -7.4050    7.4110 C   0  0  0  0  0  3  0  0  0  0  0  0
    1.7750   -7.4540    8.3510 C   0  0  0  0  0  3  0  0  0  0  0  0
    0.4490   -7.3230    7.9350 C   0  0  0  0  0  0  0  0  0  0  0  0
    0.1370   -7.2010    6.5770 C   0  0  0  0  0  3  0  0  0  0  0  0
    1.1640   -7.1560    5.6330 C   0  0  0  0  0  3  0  0  0  0  0  0
   -0.5270   -7.4000    8.9030 O   0  0  0  0  0  0  0  0  0  0  0  0
   -1.7910   -7.7470    8.4850 C   0  0  0  0  0  0  0  0  0  0  0  0
   -2.4080   -7.1650    7.3740 C   0  0  0  0  0  3  0  0  0  0  0  0
   -3.7080   -7.5370    7.0290 C   0  0  0  0  0  3  0  0  0  0  0  0
   -4.3940   -8.4760    7.8000 C   0  0  0  0  0  3  0  0  0  0  0  0
   -3.7850   -9.0400    8.9220 C   0  0  0  0  0  3  0  0  0  0  0  0
   -2.4860   -8.6700    9.2700 C   0  0  0  0  0  3  0  0  0  0  0  0
    5.8680   -6.3860   -0.2590 C   0  0  0  0  0  0  0  0  0  0  0  0
    6.7400   -5.6600   -0.8260 O   0  0  0  0  0  0  0  0  0  0  0  0
    5.2570   -7.3710   -0.7800 O   0  0  0  0  0  1  0  0  0  0  0  0
  1  2  1  0  0  0  0
  2 16  1  0  0  0  0
  3  2  2  0  0  0  0
  4  1  1  0  0  0  0
  5  4  2  0  0  0  0
  6  5  1  0  0  0  0
  7  6  2  0  0  0  0
  7  8  1  0  0  0  0
  8  4  1  0  0  0  0
 10  9  1  1  0  0  0
 10 15  1  0  0  0  0
 10 11  1  0  0  0  0
 11 12  1  0  0  0  0
 12 13  1  0  0  0  0
 14 13  1  0  0  0  0
 15  1  1  6  0  0  0
 15 14  1  0  0  0  0
 16 17  1  0  0  0  0
 17 18  2  0  0  0  0
 19 18  1  0  0  0  0
 19 22  1  0  0  0  0
 20 19  2  0  0  0  0
 21 16  2  0  0  0  0
 21 20  1  0  0  0  0
 23 22  1  0  0  0  0
 23 28  1  0  0  0  0
 24 23  2  0  0  0  0
 25 24  1  0  0  0  0
 25 26  2  0  0  0  0
 26 27  1  0  0  0  0
 27 28  2  0  0  0  0
 29  7  1  0  0  0  0
 30 29  2  0  0  0  0
 31 29  1  0  0  0  0
M  END
>  <minimizedAffinity>
-7.03297186

$$$$

 OpenBabel09122220443D

 31 34  0  0  1  0  0  0  0  0999 V2000
    0.4580   -7.4340    7.3260 N   0  0  0  0  0  0  0  0  0  0  0  0
    0.5350   -6.9990    5.9920 C   0  0  0  0  0  0  0  0  0  0  0  0
   -0.3370   -6.4200    5.3480 O   0  0  0  0  0  0  0  0  0  0  0  0
   -0.8140   -7.6230    7.8910 C   0  0  0  0  0  0  0  0  0  0  0  0
   -1.0540   -7.5750    9.1850 N   0  0  0  0  0  0  0  0  0  0  0  0
   -2.3700   -7.9320    9.4300 C   0  0  0  0  0  3  0  0  0  0  0  0
   -3.1020   -8.2950    8.3230 C   0  0  0  0  0  0  0  0  0  0  0  0
   -2.1330   -8.1570    6.9260 S   0  0  0  0  0  0  0  0  0  0  0  0
    1.4620   -4.9060    8.7610 C   0  0  0  0  0  1  0  0  0  0  0  0
    2.3900   -6.0290    8.2880 C   0  0  1  0  0  3  0  0  0  0  0  0
    3.6010   -6.1210    9.2350 C   0  0  0  0  0  2  0  0  0  0  0  0
    4.5520   -7.2460    8.8360 C   0  0  0  0  0  2  0  0  0  0  0  0
    3.8350   -8.5880    8.7740 C   0  0  0  0  0  2  0  0  0  0  0  0
    2.6360   -8.5380    7.8320 C   0  0  0  0  0  2  0  0  0  0  0  0
    1.6620   -7.4000    8.2050 C   0  0  2  0  0  3  0  0  0  0  0  0
    1.8130   -7.1980    5.2710 C   0  0  0  0  0  0  0  0  0  0  0  0
    2.6300   -6.0910    5.0140 C   0  0  0  0  0  3  0  0  0  0  0  0
    3.8370   -6.2690    4.3370 C   0  0  0  0  0  3  0  0  0  0  0  0
    4.2190   -7.5470    3.9240 C   0  0  0  0  0  0  0  0  0  0  0  0
    3.3770   -8.6440    4.1330 C   0  0  0  0  0  3  0  0  0  0  0  0
    2.1670   -8.4690    4.8070 C   0  0  0  0  0  3  0  0  0  0  0  0
    5.4090   -7.6600    3.2420 O   0  0  0  0  0  0  0  0  0  0  0  0
    5.4280   -7.1980    1.9450 C   0  0  0  0  0  0  0  0  0  0  0  0
    4.5000   -7.6030    0.9830 C   0  0  0  0  0  3  0  0  0  0  0  0
    4.6010   -7.1240   -0.3240 C   0  0  0  0  0  3  0  0  0  0  0  0
    5.6360   -6.2540   -0.6700 C   0  0  0  0  0  3  0  0  0  0  0  0
    6.5760   -5.8670    0.2860 C   0  0  0  0  0  3  0  0  0  0  0  0
    6.4770   -6.3460    1.5930 C   0  0  0  0  0  3  0  0  0  0  0  0
   -4.5040   -8.7490    8.3800 C   0  0  0  0  0  0  0  0  0  0  0  0
   -5.0490   -8.8310    9.5230 O   0  0  0  0  0  1  0  0  0  0  0  0
   -5.0560   -9.0080    7.2650 O   0  0  0  0  0  0  0  0  0  0  0  0
  1  4  1  0  0  0  0
  2  1  1  0  0  0  0
  3  2  2  0  0  0  0
  4  5  2  0  0  0  0
  5  6  1  0  0  0  0
  7 29  1  0  0  0  0
  7  6  2  0  0  0  0
  8  4  1  0  0  0  0
  8  7  1  0  0  0  0
 10  9  1  1  0  0  0
 10 11  1  0  0  0  0
 12 11  1  0  0  0  0
 13 12  1  0  0  0  0
 14 15  1  0  0  0  0
 14 13  1  0  0  0  0
 15  1  1  6  0  0  0
 15 10  1  0  0  0  0
 16  2  1  0  0  0  0
 17 16  1  0  0  0  0
 18 17  2  0  0  0  0
 19 20  2  0  0  0  0
 19 18  1  0  0  0  0
 20 21  1  0  0  0  0
 21 16  2  0  0  0  0
 22 19  1  0  0  0  0
 23 22  1  0  0  0  0
 24 23  2  0  0  0  0
 25 24  1  0  0  0  0
 26 25  2  0  0  0  0
 26 27  1  0  0  0  0
 27 28  2  0  0  0  0
 28 23  1  0  0  0  0
 29 30  1  0  0  0  0
 31 29  2  0  0  0  0
M  END
>  <minimizedAffinity>
-7.01245451

$$$$

 OpenBabel09122220443D

 31 34  0  0  1  0  0  0  0  0999 V2000
    1.6470   -6.9670    6.6560 N   0  0  0  0  0  0  0  0  0  0  0  0
    1.9180   -6.9340    8.0340 C   0  0  0  0  0  0  0  0  0  0  0  0
    1.3220   -7.5400    8.9230 O   0  0  0  0  0  0  0  0  0  0  0  0
    0.3660   -7.3700    6.2390 C   0  0  0  0  0  0  0  0  0  0  0  0
    0.1100   -7.8770    5.0510 N   0  0  0  0  0  0  0  0  0  0  0  0
   -1.2570   -8.0470    4.9020 C   0  0  0  0  0  3  0  0  0  0  0  0
   -2.0270   -7.6200    5.9580 C   0  0  0  0  0  0  0  0  0  0  0  0
   -1.0190   -7.0190    7.1960 S   0  0  0  0  0  0  0  0  0  0  0  0
    2.4660   -4.3680    5.2320 C   0  0  0  0  0  1  0  0  0  0  0  0
    2.6080   -5.7540    4.5980 C   0  0  1  0  0  3  0  0  0  0  0  0
    3.8170   -5.7570    3.6440 C   0  0  0  0  0  2  0  0  0  0  0  0
    4.0330   -7.1240    3.0020 C   0  0  0  0  0  2  0  0  0  0  0  0
    4.1930   -8.2160    4.0510 C   0  0  0  0  0  2  0  0  0  0  0  0
    3.0040   -8.2520    5.0060 C   0  0  0  0  0  2  0  0  0  0  0  0
    2.7540   -6.8780    5.6630 C   0  0  2  0  0  3  0  0  0  0  0  0
    3.0750   -6.1330    8.4940 C   0  0  0  0  0  0  0  0  0  0  0  0
    4.2980   -6.7740    8.7250 C   0  0  0  0  0  3  0  0  0  0  0  0
    5.3950   -6.0270    9.1570 C   0  0  0  0  0  3  0  0  0  0  0  0
    5.2640   -4.6510    9.3510 C   0  0  0  0  0  0  0  0  0  0  0  0
    4.0280   -4.0210    9.1720 C   0  0  0  0  0  3  0  0  0  0  0  0
    2.9280   -4.7650    8.7440 C   0  0  0  0  0  3  0  0  0  0  0  0
    6.3730   -3.9690    9.7980 O   0  0  0  0  0  0  0  0  0  0  0  0
    6.8580   -2.9710    8.9840 C   0  0  0  0  0  0  0  0  0  0  0  0
    7.3400   -3.2140    7.6940 C   0  0  0  0  0  3  0  0  0  0  0  0
    7.8530   -2.1600    6.9370 C   0  0  0  0  0  3  0  0  0  0  0  0
    7.8990   -0.8720    7.4720 C   0  0  0  0  0  3  0  0  0  0  0  0
    7.4380   -0.6350    8.7670 C   0  0  0  0  0  3  0  0  0  0  0  0
    6.9250   -1.6870    9.5280 C   0  0  0  0  0  3  0  0  0  0  0  0
   -3.5020   -7.6750    5.9730 C   0  0  0  0  0  0  0  0  0  0  0  0
   -4.0450   -8.7730    6.3020 O   0  0  0  0  0  1  0  0  0  0  0  0
   -4.1060   -6.6000    5.6650 O   0  0  0  0  0  0  0  0  0  0  0  0
  1  2  1  0  0  0  0
  2 16  1  0  0  0  0
  2  3  2  0  0  0  0
  4  1  1  0  0  0  0
  4  8  1  0  0  0  0
  5  4  2  0  0  0  0
  6  5  1  0  0  0  0
  6  7  2  0  0  0  0
  7 29  1  0  0  0  0
  7  8  1  0  0  0  0
 10  9  1  1  0  0  0
 10 15  1  0  0  0  0
 11 10  1  0  0  0  0
 12 11  1  0  0  0  0
 12 13  1  0  0  0  0
 13 14  1  0  0  0  0
 14 15  1  0  0  0  0
 15  1  1  6  0  0  0
 16 17  2  0  0  0  0
 16 21  1  0  0  0  0
 17 18  1  0  0  0  0
 18 19  2  0  0  0  0
 19 22  1  0  0  0  0
 20 19  1  0  0  0  0
 21 20  2  0  0  0  0
 23 28  1  0  0  0  0
 23 22  1  0  0  0  0
 24 23  2  0  0  0  0
 25 26  2  0  0  0  0
 25 24  1  0  0  0  0
 26 27  1  0  0  0  0
 27 28  2  0  0  0  0
 29 30  1  0  0  0  0
 31 29  2  0  0  0  0
M  END
>  <minimizedAffinity>
-6.38837194

$$$$

 OpenBabel09122220443D

 31 34  0  0  1  0  0  0  0  0999 V2000
    3.5460   -6.3630    4.9320 N   0  0  0  0  0  0  0  0  0  0  0  0
    3.2240   -7.7230    5.0720 C   0  0  0  0  0  0  0  0  0  0  0  0
    3.9280   -8.6870    4.7750 O   0  0  0  0  0  0  0  0  0  0  0  0
    4.5520   -6.0070    4.0180 C   0  0  0  0  0  0  0  0  0  0  0  0
    5.2580   -4.8990    4.1010 N   0  0  0  0  0  0  0  0  0  0  0  0
    6.0690   -4.7770    2.9850 C   0  0  0  0  0  3  0  0  0  0  0  0
    5.9340   -5.7690    2.0420 C   0  0  0  0  0  0  0  0  0  0  0  0
    4.7850   -6.9120    2.5740 S   0  0  0  0  0  0  0  0  0  0  0  0
    2.0490   -3.7830    4.1840 C   0  0  0  0  0  1  0  0  0  0  0  0
    2.9590   -3.9010    5.4100 C   0  0  1  0  0  3  0  0  0  0  0  0
    2.4390   -2.9730    6.5230 C   0  0  0  0  0  2  0  0  0  0  0  0
    3.2870   -3.0680    7.7870 C   0  0  0  0  0  2  0  0  0  0  0  0
    3.3700   -4.5000    8.2990 C   0  0  0  0  0  2  0  0  0  0  0  0
    3.8970   -5.4470    7.2250 C   0  0  0  0  0  2  0  0  0  0  0  0
    3.0640   -5.3640    5.9280 C   0  0  2  0  0  3  0  0  0  0  0  0
    1.9230   -8.0680    5.6900 C   0  0  0  0  0  0  0  0  0  0  0  0
    0.7770   -8.1050    4.8880 C   0  0  0  0  0  3  0  0  0  0  0  0
   -0.4530   -8.4300    5.4610 C   0  0  0  0  0  3  0  0  0  0  0  0
   -0.5280   -8.7190    6.8250 C   0  0  0  0  0  0  0  0  0  0  0  0
    0.6080   -8.6290    7.6350 C   0  0  0  0  0  3  0  0  0  0  0  0
    1.8390   -8.3000    7.0670 C   0  0  0  0  0  3  0  0  0  0  0  0
   -1.7710   -9.0130    7.3400 O   0  0  0  0  0  0  0  0  0  0  0  0
   -2.6920   -7.9910    7.3620 C   0  0  0  0  0  0  0  0  0  0  0  0
   -3.4600   -7.6870    8.4890 C   0  0  0  0  0  3  0  0  0  0  0  0
   -4.4040   -6.6610    8.4290 C   0  0  0  0  0  3  0  0  0  0  0  0
   -4.5900   -5.9520    7.2420 C   0  0  0  0  0  3  0  0  0  0  0  0
   -3.8380   -6.2700    6.1100 C   0  0  0  0  0  3  0  0  0  0  0  0
   -2.8940   -7.2960    6.1670 C   0  0  0  0  0  3  0  0  0  0  0  0
    6.6760   -5.7950    0.7670 C   0  0  0  0  0  0  0  0  0  0  0  0
    7.6270   -4.9680    0.6230 O   0  0  0  0  0  1  0  0  0  0  0  0
    6.3010   -6.6630   -0.0820 O   0  0  0  0  0  0  0  0  0  0  0  0
  1  2  1  0  0  0  0
  2 16  1  0  0  0  0
  3  2  2  0  0  0  0
  4  5  2  0  0  0  0
  4  1  1  0  0  0  0
  6  5  1  0  0  0  0
  7  8  1  0  0  0  0
  7  6  2  0  0  0  0
  8  4  1  0  0  0  0
 10  9  1  6  0  0  0
 10 15  1  0  0  0  0
 10 11  1  0  0  0  0
 11 12  1  0  0  0  0
 12 13  1  0  0  0  0
 14 13  1  0  0  0  0
 15  1  1  6  0  0  0
 15 14  1  0  0  0  0
 16 21  1  0  0  0  0
 17 18  1  0  0  0  0
 17 16  2  0  0  0  0
 18 19  2  0  0  0  0
 19 22  1  0  0  0  0
 19 20  1  0  0  0  0
 21 20  2  0  0  0  0
 22 23  1  0  0  0  0
 23 24  1  0  0  0  0
 25 24  2  0  0  0  0
 26 25  1  0  0  0  0
 27 28  1  0  0  0  0
 27 26  2  0  0  0  0
 28 23  2  0  0  0  0
 29  7  1  0  0  0  0
 30 29  1  0  0  0  0
 31 29  2  0  0  0  0
M  END
>  <minimizedAffinity>
-5.60514879

$$$$

 OpenBabel09122220443D

 31 34  0  0  1  0  0  0  0  0999 V2000
    4.2590   -4.7490    5.4970 N   0  0  0  0  0  0  0  0  0  0  0  0
    2.9550   -4.3840    5.8700 C   0  0  0  0  0  0  0  0  0  0  0  0
    2.5380   -3.2500    6.1000 O   0  0  0  0  0  0  0  0  0  0  0  0
    5.3080   -3.8610    5.7910 C   0  0  0  0  0  0  0  0  0  0  0  0
    6.4500   -3.8340    5.1340 N   0  0  0  0  0  0  0  0  0  0  0  0
    7.3190   -2.9460    5.7460 C   0  0  0  0  0  3  0  0  0  0  0  0
    6.8470   -2.3460    6.8910 C   0  0  0  0  0  0  0  0  0  0  0  0
    5.2550   -2.8760    7.1990 S   0  0  0  0  0  0  0  0  0  0  0  0
    4.5350   -4.4170    2.4520 C   0  0  0  0  0  1  0  0  0  0  0  0
    3.9520   -5.6700    3.1120 C   0  0  1  0  0  3  0  0  0  0  0  0
    4.2650   -6.8990    2.2370 C   0  0  0  0  0  2  0  0  0  0  0  0
    3.7370   -8.1890    2.8570 C   0  0  0  0  0  2  0  0  0  0  0  0
    4.2820   -8.3970    4.2640 C   0  0  0  0  0  2  0  0  0  0  0  0
    3.9780   -7.2040    5.1640 C   0  0  0  0  0  2  0  0  0  0  0  0
    4.4900   -5.8810    4.5560 C   0  0  2  0  0  3  0  0  0  0  0  0
    1.9330   -5.4520    5.9520 C   0  0  0  0  0  0  0  0  0  0  0  0
    1.8650   -6.2430    7.1040 C   0  0  0  0  0  3  0  0  0  0  0  0
    0.9040   -7.2510    7.1910 C   0  0  0  0  0  3  0  0  0  0  0  0
    0.0200   -7.4600    6.1310 C   0  0  0  0  0  0  0  0  0  0  0  0
    0.1240   -6.7050    4.9580 C   0  0  0  0  0  3  0  0  0  0  0  0
    1.0860   -5.6990    4.8660 C   0  0  0  0  0  3  0  0  0  0  0  0
   -0.8930   -8.4820    6.2640 O   0  0  0  0  0  0  0  0  0  0  0  0
   -2.0700   -8.1830    6.9130 C   0  0  0  0  0  0  0  0  0  0  0  0
   -2.8990   -7.1270    6.5290 C   0  0  0  0  0  3  0  0  0  0  0  0
   -4.0590   -6.8560    7.2560 C   0  0  0  0  0  3  0  0  0  0  0  0
   -4.3800   -7.6290    8.3720 C   0  0  0  0  0  3  0  0  0  0  0  0
   -3.5390   -8.6700    8.7680 C   0  0  0  0  0  3  0  0  0  0  0  0
   -2.3780   -8.9420    8.0430 C   0  0  0  0  0  3  0  0  0  0  0  0
    7.6360   -1.4070    7.7100 C   0  0  0  0  0  0  0  0  0  0  0  0
    7.9380   -0.2880    7.1940 O   0  0  0  0  0  0  0  0  0  0  0  0
    7.9380   -1.7990    8.8800 O   0  0  0  0  0  1  0  0  0  0  0  0
  1  4  1  0  0  0  0
  1  2  1  0  0  0  0
  2 16  1  0  0  0  0
  2  3  2  0  0  0  0
  4  8  1  0  0  0  0
  5  6  1  0  0  0  0
  5  4  2  0  0  0  0
  6  7  2  0  0  0  0
  7  8  1  0  0  0  0
  7 29  1  0  0  0  0
 10  9  1  6  0  0  0
 10 15  1  0  0  0  0
 11 12  1  0  0  0  0
 11 10  1  0  0  0  0
 12 13  1  0  0  0  0
 13 14  1  0  0  0  0
 15 14  1  0  0  0  0
 15  1  1  1  0  0  0
 16 17  1  0  0  0  0
 17 18  2  0  0  0  0
 19 22  1  0  0  0  0
 19 18  1  0  0  0  0
 20 19  2  0  0  0  0
 21 20  1  0  0  0  0
 21 16  2  0  0  0  0
 22 23  1  0  0  0  0
 23 28  1  0  0  0  0
 24 23  2  0  0  0  0
 24 25  1  0  0  0  0
 25 26  2  0  0  0  0
 26 27  1  0  0  0  0
 28 27  2  0  0  0  0
 29 31  1  0  0  0  0
 30 29  2  0  0  0  0
M  END
>  <minimizedAffinity>
-5.35428762

$$$$

 OpenBabel09122220443D

 31 34  0  0  1  0  0  0  0  0999 V2000
    3.7380   -5.5910    7.0350 N   0  0  0  0  0  0  0  0  0  0  0  0
    3.4260   -6.1450    5.7830 C   0  0  0  0  0  0  0  0  0  0  0  0
    4.1910   -6.3190    4.8360 O   0  0  0  0  0  0  0  0  0  0  0  0
    4.8810   -4.7800    7.1370 C   0  0  0  0  0  0  0  0  0  0  0  0
    5.5380   -4.5800    8.2610 N   0  0  0  0  0  0  0  0  0  0  0  0
    6.5290   -3.6330    8.0600 C   0  0  0  0  0  3  0  0  0  0  0  0
    6.5820   -3.0880    6.7980 C   0  0  0  0  0  0  0  0  0  0  0  0
    5.3820   -3.7990    5.8170 S   0  0  0  0  0  0  0  0  0  0  0  0
    4.0090   -8.4640    8.0970 C   0  0  0  0  0  1  0  0  0  0  0  0
    2.7550   -7.6090    8.2970 C   0  0  1  0  0  3  0  0  0  0  0  0
    2.0810   -7.9960    9.6270 C   0  0  0  0  0  2  0  0  0  0  0  0
    0.8380   -7.1550    9.9020 C   0  0  0  0  0  2  0  0  0  0  0  0
    1.1570   -5.6660    9.8930 C   0  0  0  0  0  2  0  0  0  0  0  0
    1.8140   -5.2430    8.5820 C   0  0  0  0  0  2  0  0  0  0  0  0
    3.0690   -6.0860    8.2710 C   0  0  2  0  0  3  0  0  0  0  0  0
    2.0450   -6.6330    5.5650 C   0  0  0  0  0  0  0  0  0  0  0  0
    1.8230   -8.0060    5.4150 C   0  0  0  0  0  3  0  0  0  0  0  0
    0.5250   -8.4750    5.2120 C   0  0  0  0  0  3  0  0  0  0  0  0
   -0.5390   -7.5730    5.1620 C   0  0  0  0  0  0  0  0  0  0  0  0
   -0.3100   -6.1960    5.2580 C   0  0  0  0  0  3  0  0  0  0  0  0
    0.9880   -5.7230    5.4570 C   0  0  0  0  0  3  0  0  0  0  0  0
   -1.7950   -8.0900    4.9380 O   0  0  0  0  0  0  0  0  0  0  0  0
   -2.7150   -7.9500    5.9530 C   0  0  0  0  0  0  0  0  0  0  0  0
   -3.2920   -9.0400    6.6070 C   0  0  0  0  0  3  0  0  0  0  0  0
   -4.2470   -8.8260    7.6020 C   0  0  0  0  0  3  0  0  0  0  0  0
   -4.6340   -7.5260    7.9300 C   0  0  0  0  0  3  0  0  0  0  0  0
   -4.0720   -6.4380    7.2610 C   0  0  0  0  0  3  0  0  0  0  0  0
   -3.1180   -6.6500    6.2650 C   0  0  0  0  0  3  0  0  0  0  0  0
    7.5360   -2.0350    6.3990 C   0  0  0  0  0  0  0  0  0  0  0  0
    7.9420   -2.0360    5.1970 O   0  0  0  0  0  0  0  0  0  0  0  0
    7.8610   -1.2020    7.3010 O   0  0  0  0  0  1  0  0  0  0  0  0
  1  4  1  0  0  0  0
  2  1  1  0  0  0  0
  3  2  2  0  0  0  0
  4  5  2  0  0  0  0
  6  5  1  0  0  0  0
  7  6  2  0  0  0  0
  8  7  1  0  0  0  0
  8  4  1  0  0  0  0
 10  9  1  1  0  0  0
 10 11  1  0  0  0  0
 11 12  1  0  0  0  0
 13 12  1  0  0  0  0
 14 13  1  0  0  0  0
 15  1  1  6  0  0  0
 15 10  1  0  0  0  0
 15 14  1  0  0  0  0
 16  2  1  0  0  0  0
 17 16  2  0  0  0  0
 18 17  1  0  0  0  0
 19 18  2  0  0  0  0
 19 20  1  0  0  0  0
 20 21  2  0  0  0  0
 21 16  1  0  0  0  0
 22 19  1  0  0  0  0
 22 23  1  0  0  0  0
 23 28  2  0  0  0  0
 23 24  1  0  0  0  0
 24 25  2  0  0  0  0
 25 26  1  0  0  0  0
 27 26  2  0  0  0  0
 28 27  1  0  0  0  0
 29  7  1  0  0  0  0
 29 31  1  0  0  0  0
 30 29  2  0  0  0  0
M  END
>  <minimizedAffinity>
-5.16028929

$$$$

 OpenBabel09122220443D

 31 34  0  0  1  0  0  0  0  0999 V2000
    3.8810   -5.7330    4.0120 N   0  0  0  0  0  0  0  0  0  0  0  0
    4.1020   -4.3640    4.2370 C   0  0  0  0  0  0  0  0  0  0  0  0
    4.1100   -3.4650    3.3990 O   0  0  0  0  0  0  0  0  0  0  0  0
    4.0880   -6.2360    2.7160 C   0  0  0  0  0  0  0  0  0  0  0  0
    3.5110   -7.3250    2.2520 N   0  0  0  0  0  0  0  0  0  0  0  0
    4.0190   -7.6260    0.9990 C   0  0  0  0  0  3  0  0  0  0  0  0
    5.0130   -6.7900    0.5450 C   0  0  0  0  0  0  0  0  0  0  0  0
    5.3030   -5.5670    1.6990 S   0  0  0  0  0  0  0  0  0  0  0  0
    4.6280   -8.6380    4.6900 C   0  0  0  0  0  1  0  0  0  0  0  0
    3.1980   -8.0970    4.7720 C   0  0  1  0  0  3  0  0  0  0  0  0
    2.4360   -8.8380    5.8860 C   0  0  0  0  0  2  0  0  0  0  0  0
    1.0090   -8.3220    6.0410 C   0  0  0  0  0  2  0  0  0  0  0  0
    0.9820   -6.8220    6.3010 C   0  0  0  0  0  2  0  0  0  0  0  0
    1.7170   -6.0520    5.2080 C   0  0  0  0  0  2  0  0  0  0  0  0
    3.1610   -6.5620    5.0200 C   0  0  2  0  0  3  0  0  0  0  0  0
    4.2970   -3.9150    5.6350 C   0  0  0  0  0  0  0  0  0  0  0  0
    3.6740   -2.7390    6.0660 C   0  0  0  0  0  3  0  0  0  0  0  0
    3.8500   -2.3080    7.3810 C   0  0  0  0  0  3  0  0  0  0  0  0
    4.6430   -3.0550    8.2540 C   0  0  0  0  0  0  0  0  0  0  0  0
    5.3100   -4.2000    7.8080 C   0  0  0  0  0  3  0  0  0  0  0  0
    5.1380   -4.6320    6.4920 C   0  0  0  0  0  3  0  0  0  0  0  0
    4.7990   -2.5710    9.5340 O   0  0  0  0  0  0  0  0  0  0  0  0
    5.5940   -1.4580    9.6850 C   0  0  0  0  0  0  0  0  0  0  0  0
    5.0740   -0.1650    9.7890 C   0  0  0  0  0  3  0  0  0  0  0  0
    5.9390    0.9240    9.9020 C   0  0  0  0  0  3  0  0  0  0  0  0
    7.3200    0.7210    9.8950 C   0  0  0  0  0  3  0  0  0  0  0  0
    7.8390   -0.5680    9.7690 C   0  0  0  0  0  3  0  0  0  0  0  0
    6.9750   -1.6580    9.6550 C   0  0  0  0  0  3  0  0  0  0  0  0
    5.7110   -6.9680   -0.7420 C   0  0  0  0  0  0  0  0  0  0  0  0
    6.4190   -6.0040   -1.1650 O   0  0  0  0  0  1  0  0  0  0  0  0
    5.5500   -8.0910   -1.3160 O   0  0  0  0  0  0  0  0  0  0  0  0
  1  2  1  0  0  0  0
  2 16  1  0  0  0  0
  3  2  2  0  0  0  0
  4  1  1  0  0  0  0
  5  4  2  0  0  0  0
  6  5  1  0  0  0  0
  7  6  2  0  0  0  0
  7  8  1  0  0  0  0
  8  4  1  0  0  0  0
 10  9  1  1  0  0  0
 10 15  1  0  0  0  0
 10 11  1  0  0  0  0
 11 12  1  0  0  0  0
 12 13  1  0  0  0  0
 14 13  1  0  0  0  0
 15  1  1  6  0  0  0
 15 14  1  0  0  0  0
 16 17  2  0  0  0  0
 16 21  1  0  0  0  0
 17 18  1  0  0  0  0
 18 19  2  0  0  0  0
 19 22  1  0  0  0  0
 20 19  1  0  0  0  0
 21 20  2  0  0  0  0
 22 23  1  0  0  0  0
 23 24  1  0  0  0  0
 24 25  2  0  0  0  0
 26 25  1  0  0  0  0
 27 26  2  0  0  0  0
 28 23  2  0  0  0  0
 28 27  1  0  0  0  0
 29  7  1  0  0  0  0
 30 29  1  0  0  0  0
 31 29  2  0  0  0  0
M  END
>  <minimizedAffinity>
-4.84174967

$$$$
