
 OpenBabel09122222393D

 31 34  0  0  1  0  0  0  0  0999 V2000
    3.5460   -6.3630    4.9320 N   0  0  0  0  0  0  0  0  0  0  0  0
    3.2240   -7.7230    5.0720 C   0  0  0  0  0  0  0  0  0  0  0  0
    3.9280   -8.6870    4.7750 O   0  0  0  0  0  0  0  0  0  0  0  0
    4.5520   -6.0070    4.0180 C   0  0  0  0  0  0  0  0  0  0  0  0
    5.2580   -4.8990    4.1010 N   0  0  0  0  0  0  0  0  0  0  0  0
    6.0690   -4.7770    2.9850 C   0  0  0  0  0  3  0  0  0  0  0  0
    5.9340   -5.7690    2.0420 C   0  0  0  0  0  0  0  0  0  0  0  0
    4.7850   -6.9120    2.5740 S   0  0  0  0  0  0  0  0  0  0  0  0
    2.0490   -3.7830    4.1840 C   0  0  0  0  0  1  0  0  0  0  0  0
    2.9590   -3.9010    5.4100 C   0  0  1  0  0  3  0  0  0  0  0  0
    2.4390   -2.9730    6.5230 C   0  0  0  0  0  2  0  0  0  0  0  0
    3.2870   -3.0680    7.7870 C   0  0  0  0  0  2  0  0  0  0  0  0
    3.3700   -4.5000    8.2990 C   0  0  0  0  0  2  0  0  0  0  0  0
    3.8970   -5.4470    7.2250 C   0  0  0  0  0  2  0  0  0  0  0  0
    3.0640   -5.3640    5.9280 C   0  0  2  0  0  3  0  0  0  0  0  0
    1.9230   -8.0680    5.6900 C   0  0  0  0  0  0  0  0  0  0  0  0
    0.7770   -8.1050    4.8880 C   0  0  0  0  0  3  0  0  0  0  0  0
   -0.4530   -8.4300    5.4610 C   0  0  0  0  0  3  0  0  0  0  0  0
   -0.5280   -8.7190    6.8250 C   0  0  0  0  0  0  0  0  0  0  0  0
    0.6080   -8.6290    7.6350 C   0  0  0  0  0  3  0  0  0  0  0  0
    1.8390   -8.3000    7.0670 C   0  0  0  0  0  3  0  0  0  0  0  0
   -1.7710   -9.0130    7.3400 O   0  0  0  0  0  0  0  0  0  0  0  0
   -2.6920   -7.9910    7.3620 C   0  0  0  0  0  0  0  0  0  0  0  0
   -3.4600   -7.6870    8.4890 C   0  0  0  0  0  3  0  0  0  0  0  0
   -4.4040   -6.6610    8.4290 C   0  0  0  0  0  3  0  0  0  0  0  0
   -4.5900   -5.9520    7.2420 C   0  0  0  0  0  3  0  0  0  0  0  0
   -3.8380   -6.2700    6.1100 C   0  0  0  0  0  3  0  0  0  0  0  0
   -2.8940   -7.2960    6.1670 C   0  0  0  0  0  3  0  0  0  0  0  0
    6.6760   -5.7950    0.7670 C   0  0  0  0  0  0  0  0  0  0  0  0
    7.6270   -4.9680    0.6230 O   0  0  0  0  0  1  0  0  0  0  0  0
    6.3010   -6.6630   -0.0820 O   0  0  0  0  0  0  0  0  0  0  0  0
  1  2  1  0  0  0  0
  2 16  1  0  0  0  0
  3  2  2  0  0  0  0
  4  5  2  0  0  0  0
  4  1  1  0  0  0  0
  6  5  1  0  0  0  0
  7  8  1  0  0  0  0
  7  6  2  0  0  0  0
  8  4  1  0  0  0  0
 10  9  1  6  0  0  0
 10 15  1  0  0  0  0
 10 11  1  0  0  0  0
 11 12  1  0  0  0  0
 12 13  1  0  0  0  0
 14 13  1  0  0  0  0
 15  1  1  6  0  0  0
 15 14  1  0  0  0  0
 16 21  1  0  0  0  0
 17 18  1  0  0  0  0
 17 16  2  0  0  0  0
 18 19  2  0  0  0  0
 19 22  1  0  0  0  0
 19 20  1  0  0  0  0
 21 20  2  0  0  0  0
 22 23  1  0  0  0  0
 23 24  1  0  0  0  0
 25 24  2  0  0  0  0
 26 25  1  0  0  0  0
 27 28  1  0  0  0  0
 27 26  2  0  0  0  0
 28 23  2  0  0  0  0
 29  7  1  0  0  0  0
 30 29  1  0  0  0  0
 31 29  2  0  0  0  0
M  END
>  <minimizedAffinity>
-5.60514879

$$$$
