REMARK  Name = 
REMARK  6 active torsions:
REMARK  status: ('A' for Active; 'I' for Inactive)
REMARK    1  A    between atoms: C_1  and  C_2
REMARK    2  A    between atoms: C_2  and  O_3
REMARK    3  A    between atoms: O_3  and  C_4
REMARK    4  A    between atoms: C_4  and  C_6
REMARK    5  A    between atoms: C_10  and  O_11
REMARK    6  A    between atoms: C_12  and  C_13
REMARK                            x       y       z     vdW  Elec       q    Type
REMARK                         _______ _______ _______ _____ _____    ______ ____
ROOT
ATOM      1  C   UNL     1       2.734   3.671  -1.144  0.00  0.00    +0.216 A 
ATOM      2  C   UNL     1       1.845   4.674  -1.136  0.00  0.00    +0.108 A 
ATOM      3  C   UNL     1       2.120   5.870  -1.943  0.00  0.00    +0.228 A 
ATOM      4  O   UNL     1       1.337   6.818  -1.966  0.00  0.00    -0.284 OA
ATOM      5  C   UNL     1       3.371   5.903  -2.736  0.00  0.00    +0.209 A 
ATOM      6  C   UNL     1       4.178   4.838  -2.656  0.00  0.00    +0.196 A 
ATOM      7  O   UNL     1       3.909   3.718  -1.879  0.00  0.00    -0.443 OA
ENDROOT
BRANCH   6   8
ATOM      8  C   UNL     1       5.484   4.798  -3.450  0.00  0.00    +0.111 C 
ATOM      9  O   UNL     1       6.496   5.246  -2.837  0.00  0.00    -0.541 OA
ATOM     10  O   UNL     1       5.397   4.259  -4.592  0.00  0.00    -0.541 OA
ENDBRANCH   6   8
BRANCH   1  11
ATOM     11  C   UNL     1       2.504   2.434  -0.341  0.00  0.00    +0.375 C 
ATOM     12  O   UNL     1       3.312   1.523  -0.235  0.00  0.00    -0.241 OA
BRANCH  11  13
ATOM     13  O   UNL     1       1.274   2.449   0.248  0.00  0.00    -0.459 OA
BRANCH  13  15
ATOM     14  C   UNL     1       0.372   0.202   0.154  0.00  0.00    +0.048 C 
ATOM     15  C   UNL     1       0.950   1.294   1.035  0.00  0.00    +0.229 C 
ENDBRANCH  13  15
ENDBRANCH  11  13
ENDBRANCH   1  11
BRANCH   5  16
ATOM     16  O   UNL     1       3.615   7.026  -3.499  0.00  0.00    -0.501 OA
ATOM     17  H   UNL     1       2.851   7.613  -3.340  0.00  0.00    +0.292 HD
ENDBRANCH   5  16
TORSDOF 5
