
 OpenBabel09122222553D

 17 17  0  0  0  0  0  0  0  0999 V2000
    9.4540    0.0780    1.6030 C   0  0  0  0  0  0  0  0  0  0  0  0
    9.8850   -0.2160    0.3690 C   0  0  0  0  0  3  0  0  0  0  0  0
    9.9170   -1.6220   -0.0540 C   0  0  0  0  0  0  0  0  0  0  0  0
   10.3070   -1.9430   -1.1750 O   0  0  0  0  0  0  0  0  0  0  0  0
    9.4610   -2.6500    0.9110 C   0  0  0  0  0  0  0  0  0  0  0  0
    9.0570   -2.2270    2.1150 C   0  0  0  0  0  0  0  0  0  0  0  0
    9.0430   -0.8930    2.5040 O   0  0  0  0  0  0  0  0  0  0  0  0
    8.5680   -3.2290    3.1610 C   0  0  0  0  0  0  0  0  0  0  0  0
    9.2240   -3.2350    4.2430 O   0  0  0  0  0  1  0  0  0  0  0  0
    7.5300   -3.8750    2.8360 O   0  0  0  0  0  0  0  0  0  0  0  0
    9.4020    1.4900    2.0830 C   0  0  0  0  0  0  0  0  0  0  0  0
    9.3690    1.8160    3.2610 O   0  0  0  0  0  0  0  0  0  0  0  0
    9.3860    2.3670    1.0380 O   0  0  0  0  0  0  0  0  0  0  0  0
    9.8770    4.5540    0.1180 C   0  0  0  0  0  1  0  0  0  0  0  0
   10.1970    3.5390    1.2000 C   0  0  0  0  0  2  0  0  0  0  0  0
    9.4850   -3.9670    0.5010 O   0  0  0  0  0  0  0  0  0  0  0  0
    9.8300   -3.9440   -0.4120 H   0  0  0  0  0  0  0  0  0  0  0  0
  1 11  1  0  0  0  0
  1  7  1  0  0  0  0
  2  1  2  0  0  0  0
  3  2  1  0  0  0  0
  3  5  1  0  0  0  0
  4  3  2  0  0  0  0
  5  6  2  0  0  0  0
  6  7  1  0  0  0  0
  6  8  1  0  0  0  0
  8  9  1  0  0  0  0
 10  8  2  0  0  0  0
 11 12  2  0  0  0  0
 13 15  1  0  0  0  0
 13 11  1  0  0  0  0
 14 15  1  0  0  0  0
 16  5  1  0  0  0  0
 17 16  1  0  0  0  0
M  END
>  <minimizedAffinity>
-5.18565989

$$$$

 OpenBabel09122222553D

 17 17  0  0  0  0  0  0  0  0999 V2000
    9.6850    8.6490   -1.4020 C   0  0  0  0  0  0  0  0  0  0  0  0
    9.5790    7.3260   -1.2170 C   0  0  0  0  0  3  0  0  0  0  0  0
    9.4140    6.8130    0.1500 C   0  0  0  0  0  0  0  0  0  0  0  0
    9.3160    5.6080    0.3710 O   0  0  0  0  0  0  0  0  0  0  0  0
    9.3650    7.7930    1.2600 C   0  0  0  0  0  0  0  0  0  0  0  0
    9.4850    9.0880    0.9430 C   0  0  0  0  0  0  0  0  0  0  0  0
    9.6520    9.5570   -0.3540 O   0  0  0  0  0  0  0  0  0  0  0  0
    9.4390   10.1570    2.0350 C   0  0  0  0  0  0  0  0  0  0  0  0
   10.1580   11.1750    1.8170 O   0  0  0  0  0  0  0  0  0  0  0  0
    8.6350    9.9160    2.9830 O   0  0  0  0  0  1  0  0  0  0  0  0
    9.8560    9.2220   -2.7700 C   0  0  0  0  0  0  0  0  0  0  0  0
   10.5590    8.7280   -3.6390 O   0  0  0  0  0  0  0  0  0  0  0  0
    9.1350   10.3710   -2.9170 O   0  0  0  0  0  0  0  0  0  0  0  0
    8.0140   10.9980   -4.9720 C   0  0  0  0  0  1  0  0  0  0  0  0
    9.3020   11.0490   -4.1700 C   0  0  0  0  0  2  0  0  0  0  0  0
    9.1990    7.3030    2.5390 O   0  0  0  0  0  0  0  0  0  0  0  0
    9.1480    6.3330    2.4350 H   0  0  0  0  0  0  0  0  0  0  0  0
  1  2  2  0  0  0  0
  1  7  1  0  0  0  0
  2  3  1  0  0  0  0
  3  4  2  0  0  0  0
  3  5  1  0  0  0  0
  5 16  1  0  0  0  0
  6  5  2  0  0  0  0
  6  8  1  0  0  0  0
  7  6  1  0  0  0  0
  8 10  1  0  0  0  0
  9  8  2  0  0  0  0
 11  1  1  0  0  0  0
 12 11  2  0  0  0  0
 13 11  1  0  0  0  0
 14 15  1  0  0  0  0
 15 13  1  0  0  0  0
 17 16  1  0  0  0  0
M  END
>  <minimizedAffinity>
-4.79926014

$$$$

 OpenBabel09122222553D

 17 17  0  0  0  0  0  0  0  0999 V2000
    9.5850    9.9880   -0.5110 C   0  0  0  0  0  0  0  0  0  0  0  0
    9.3160   10.6210    0.6390 C   0  0  0  0  0  3  0  0  0  0  0  0
    9.1100    9.8230    1.8550 C   0  0  0  0  0  0  0  0  0  0  0  0
    8.8570   10.3570    2.9340 O   0  0  0  0  0  0  0  0  0  0  0  0
    9.2180    8.3490    1.7480 C   0  0  0  0  0  0  0  0  0  0  0  0
    9.4880    7.8390    0.5400 C   0  0  0  0  0  0  0  0  0  0  0  0
    9.6700    8.6070   -0.6030 O   0  0  0  0  0  0  0  0  0  0  0  0
    9.6200    6.3270    0.3530 C   0  0  0  0  0  0  0  0  0  0  0  0
    8.8240    5.8220   -0.4900 O   0  0  0  0  0  0  0  0  0  0  0  0
   10.5540    5.7880    1.0150 O   0  0  0  0  0  1  0  0  0  0  0  0
    9.8010   10.7510   -1.7760 C   0  0  0  0  0  0  0  0  0  0  0  0
   10.4680   11.7720   -1.8570 O   0  0  0  0  0  0  0  0  0  0  0  0
    9.1510   10.1670   -2.8230 O   0  0  0  0  0  0  0  0  0  0  0  0
    8.0490   11.3020   -4.6580 C   0  0  0  0  0  1  0  0  0  0  0  0
    9.3620   10.7800   -4.1020 C   0  0  0  0  0  2  0  0  0  0  0  0
    9.0340    7.6090    2.8970 O   0  0  0  0  0  0  0  0  0  0  0  0
    8.8520    8.2660    3.5960 H   0  0  0  0  0  0  0  0  0  0  0  0
  1  2  2  0  0  0  0
  2  3  1  0  0  0  0
  3  4  2  0  0  0  0
  5  3  1  0  0  0  0
  5 16  1  0  0  0  0
  6  5  2  0  0  0  0
  7  1  1  0  0  0  0
  7  6  1  0  0  0  0
  8  6  1  0  0  0  0
  8 10  1  0  0  0  0
  9  8  2  0  0  0  0
 11  1  1  0  0  0  0
 12 11  2  0  0  0  0
 13 11  1  0  0  0  0
 14 15  1  0  0  0  0
 15 13  1  0  0  0  0
 16 17  1  0  0  0  0
M  END
>  <minimizedAffinity>
-4.75196934

$$$$

 OpenBabel09122222553D

 17 17  0  0  0  0  0  0  0  0999 V2000
    9.8040    5.4430    0.4490 C   0  0  0  0  0  0  0  0  0  0  0  0
    9.5080    5.8260   -0.8010 C   0  0  0  0  0  3  0  0  0  0  0  0
    9.1060    7.2180   -1.0380 C   0  0  0  0  0  0  0  0  0  0  0  0
    8.8220    7.6170   -2.1660 O   0  0  0  0  0  0  0  0  0  0  0  0
    9.0550    8.1360    0.1240 C   0  0  0  0  0  0  0  0  0  0  0  0
    9.3710    7.6300    1.3220 C   0  0  0  0  0  0  0  0  0  0  0  0
    9.7390    6.3070    1.5320 O   0  0  0  0  0  0  0  0  0  0  0  0
    9.3450    8.5180    2.5670 C   0  0  0  0  0  0  0  0  0  0  0  0
    8.1970    8.9230    2.9110 O   0  0  0  0  0  0  0  0  0  0  0  0
   10.4670    8.6770    3.1310 O   0  0  0  0  0  1  0  0  0  0  0  0
   10.2170    4.0390    0.7460 C   0  0  0  0  0  0  0  0  0  0  0  0
   10.2380    3.1400   -0.0820 O   0  0  0  0  0  0  0  0  0  0  0  0
   10.5560    3.8910    2.0580 O   0  0  0  0  0  0  0  0  0  0  0  0
   10.4290    2.6220    4.1190 C   0  0  0  0  0  1  0  0  0  0  0  0
   10.3620    2.5780    2.6030 C   0  0  0  0  0  2  0  0  0  0  0  0
    8.6860    9.4450   -0.1100 O   0  0  0  0  0  0  0  0  0  0  0  0
    8.5190    9.4940   -1.0710 H   0  0  0  0  0  0  0  0  0  0  0  0
  1 11  1  0  0  0  0
  1  7  1  0  0  0  0
  2  1  2  0  0  0  0
  3  2  1  0  0  0  0
  3  5  1  0  0  0  0
  4  3  2  0  0  0  0
  5  6  2  0  0  0  0
  6  7  1  0  0  0  0
  6  8  1  0  0  0  0
  8  9  2  0  0  0  0
  8 10  1  0  0  0  0
 11 13  1  0  0  0  0
 12 11  2  0  0  0  0
 13 15  1  0  0  0  0
 15 14  1  0  0  0  0
 16  5  1  0  0  0  0
 17 16  1  0  0  0  0
M  END
>  <minimizedAffinity>
-4.67241287

$$$$

 OpenBabel09122222553D

 17 17  0  0  0  0  0  0  0  0999 V2000
    9.5330    8.3110   -1.9440 C   0  0  0  0  0  0  0  0  0  0  0  0
   10.1160    9.5090   -1.8010 C   0  0  0  0  0  3  0  0  0  0  0  0
   10.0370   10.4710   -2.9090 C   0  0  0  0  0  0  0  0  0  0  0  0
   10.5580   11.5820   -2.8270 O   0  0  0  0  0  0  0  0  0  0  0  0
    9.3060   10.0660   -4.1320 C   0  0  0  0  0  0  0  0  0  0  0  0
    8.7710    8.8390   -4.1510 C   0  0  0  0  0  0  0  0  0  0  0  0
    8.8630    7.9370   -3.0990 O   0  0  0  0  0  0  0  0  0  0  0  0
    7.9980    8.3540   -5.3780 C   0  0  0  0  0  0  0  0  0  0  0  0
    8.0620    7.1080   -5.5910 O   0  0  0  0  0  1  0  0  0  0  0  0
    7.3380    9.2500   -5.9810 O   0  0  0  0  0  0  0  0  0  0  0  0
    9.5840    7.2970   -0.8500 C   0  0  0  0  0  0  0  0  0  0  0  0
    9.0340    6.2060   -0.8970 O   0  0  0  0  0  0  0  0  0  0  0  0
   10.3140    7.7490    0.2100 O   0  0  0  0  0  0  0  0  0  0  0  0
    9.1330    8.8730    2.0030 C   0  0  0  0  0  1  0  0  0  0  0  0
    9.7130    7.5640    1.5000 C   0  0  0  0  0  2  0  0  0  0  0  0
    9.2290   10.9800   -5.1630 O   0  0  0  0  0  0  0  0  0  0  0  0
    9.7160   11.7650   -4.8440 H   0  0  0  0  0  0  0  0  0  0  0  0
  1  2  2  0  0  0  0
  1 11  1  0  0  0  0
  3  4  2  0  0  0  0
  3  2  1  0  0  0  0
  5  3  1  0  0  0  0
  6  5  2  0  0  0  0
  6  7  1  0  0  0  0
  7  1  1  0  0  0  0
  8  6  1  0  0  0  0
  9  8  1  0  0  0  0
 10  8  2  0  0  0  0
 11 13  1  0  0  0  0
 12 11  2  0  0  0  0
 13 15  1  0  0  0  0
 15 14  1  0  0  0  0
 16 17  1  0  0  0  0
 16  5  1  0  0  0  0
M  END
>  <minimizedAffinity>
-4.6602602

$$$$

 OpenBabel09122222553D

 17 17  0  0  0  0  0  0  0  0999 V2000
    9.6150    7.7430   -0.8170 C   0  0  0  0  0  0  0  0  0  0  0  0
    9.8500    6.4780   -0.4430 C   0  0  0  0  0  3  0  0  0  0  0  0
    9.9390    6.1680    0.9910 C   0  0  0  0  0  0  0  0  0  0  0  0
   10.1560    5.0240    1.3840 O   0  0  0  0  0  0  0  0  0  0  0  0
    9.7550    7.2770    1.9550 C   0  0  0  0  0  0  0  0  0  0  0  0
    9.5290    8.4980    1.4540 C   0  0  0  0  0  0  0  0  0  0  0  0
    9.4590    8.7760    0.0940 O   0  0  0  0  0  0  0  0  0  0  0  0
    9.3240    9.6900    2.3880 C   0  0  0  0  0  0  0  0  0  0  0  0
    8.3070    9.6150    3.1360 O   0  0  0  0  0  1  0  0  0  0  0  0
   10.2360   10.5670    2.3410 O   0  0  0  0  0  0  0  0  0  0  0  0
    9.5170    8.1120   -2.2600 C   0  0  0  0  0  0  0  0  0  0  0  0
    8.6690    7.6750   -3.0250 O   0  0  0  0  0  0  0  0  0  0  0  0
   10.5010    8.9870   -2.6140 O   0  0  0  0  0  0  0  0  0  0  0  0
    9.5540   11.1520   -3.1540 C   0  0  0  0  0  1  0  0  0  0  0  0
   10.1790    9.8780   -3.6920 C   0  0  0  0  0  2  0  0  0  0  0  0
    9.8290    6.9750    3.2990 O   0  0  0  0  0  0  0  0  0  0  0  0
   10.0060    6.0150    3.3350 H   0  0  0  0  0  0  0  0  0  0  0  0
  1  2  2  0  0  0  0
  1  7  1  0  0  0  0
  2  3  1  0  0  0  0
  3  4  2  0  0  0  0
  3  5  1  0  0  0  0
  5 16  1  0  0  0  0
  6  5  2  0  0  0  0
  6  8  1  0  0  0  0
  7  6  1  0  0  0  0
  8  9  1  0  0  0  0
 10  8  2  0  0  0  0
 11  1  1  0  0  0  0
 12 11  2  0  0  0  0
 13 11  1  0  0  0  0
 15 14  1  0  0  0  0
 15 13  1  0  0  0  0
 16 17  1  0  0  0  0
M  END
>  <minimizedAffinity>
-4.56059027

$$$$

 OpenBabel09122222553D

 17 17  0  0  0  0  0  0  0  0999 V2000
    9.9110    6.2260    1.6180 C   0  0  0  0  0  0  0  0  0  0  0  0
    9.5560    6.0720    0.3350 C   0  0  0  0  0  3  0  0  0  0  0  0
    9.1290    7.2510   -0.4280 C   0  0  0  0  0  0  0  0  0  0  0  0
    8.7900    7.1610   -1.6070 O   0  0  0  0  0  0  0  0  0  0  0  0
    9.1200    8.5620    0.2620 C   0  0  0  0  0  0  0  0  0  0  0  0
    9.4940    8.5830    1.5470 C   0  0  0  0  0  0  0  0  0  0  0  0
    9.8850    7.4560    2.2590 O   0  0  0  0  0  0  0  0  0  0  0  0
    9.5150    9.9000    2.3240 C   0  0  0  0  0  0  0  0  0  0  0  0
   10.3900   10.7300    1.9440 O   0  0  0  0  0  0  0  0  0  0  0  0
    8.6090   10.0160    3.2010 O   0  0  0  0  0  1  0  0  0  0  0  0
   10.3510    5.0600    2.4400 C   0  0  0  0  0  0  0  0  0  0  0  0
   10.5360    5.1000    3.6470 O   0  0  0  0  0  0  0  0  0  0  0  0
   10.5310    3.9510    1.6660 O   0  0  0  0  0  0  0  0  0  0  0  0
    9.3860    1.8190    1.7940 C   0  0  0  0  0  1  0  0  0  0  0  0
   10.4860    2.6970    2.3620 C   0  0  0  0  0  2  0  0  0  0  0  0
    8.7270    9.6660   -0.4660 O   0  0  0  0  0  0  0  0  0  0  0  0
    8.5170    9.3230   -1.3560 H   0  0  0  0  0  0  0  0  0  0  0  0
  1  7  1  0  0  0  0
  1 11  1  0  0  0  0
  2  1  2  0  0  0  0
  3  5  1  0  0  0  0
  3  2  1  0  0  0  0
  4  3  2  0  0  0  0
  5  6  2  0  0  0  0
  6  7  1  0  0  0  0
  6  8  1  0  0  0  0
  8 10  1  0  0  0  0
  9  8  2  0  0  0  0
 11 12  2  0  0  0  0
 13 15  1  0  0  0  0
 13 11  1  0  0  0  0
 14 15  1  0  0  0  0
 16  5  1  0  0  0  0
 17 16  1  0  0  0  0
M  END
>  <minimizedAffinity>
-4.27535582

$$$$

 OpenBabel09122222553D

 17 17  0  0  0  0  0  0  0  0999 V2000
   10.2340    4.4260    1.1040 C   0  0  0  0  0  0  0  0  0  0  0  0
   10.4730    4.7900    2.3710 C   0  0  0  0  0  3  0  0  0  0  0  0
   10.2970    6.1990    2.7490 C   0  0  0  0  0  0  0  0  0  0  0  0
   10.5070    6.5820    3.8980 O   0  0  0  0  0  0  0  0  0  0  0  0
    9.8540    7.1500    1.7030 C   0  0  0  0  0  0  0  0  0  0  0  0
    9.6520    6.6620    0.4730 C   0  0  0  0  0  0  0  0  0  0  0  0
    9.8330    5.3280    0.1290 O   0  0  0  0  0  0  0  0  0  0  0  0
    9.1890    7.5820   -0.6560 C   0  0  0  0  0  0  0  0  0  0  0  0
    9.7800    7.4120   -1.7620 O   0  0  0  0  0  0  0  0  0  0  0  0
    8.2270    8.3490   -0.3580 O   0  0  0  0  0  1  0  0  0  0  0  0
   10.3980    3.0090    0.6670 C   0  0  0  0  0  0  0  0  0  0  0  0
   10.5580    2.6610   -0.4940 O   0  0  0  0  0  0  0  0  0  0  0  0
   10.3360    2.1540    1.7280 O   0  0  0  0  0  0  0  0  0  0  0  0
    9.5000   -0.0400    1.1290 C   0  0  0  0  0  1  0  0  0  0  0  0
    9.1840    1.3000    1.7690 C   0  0  0  0  0  2  0  0  0  0  0  0
    9.6820    8.4690    2.0700 O   0  0  0  0  0  0  0  0  0  0  0  0
    9.9100    8.5010    3.0180 H   0  0  0  0  0  0  0  0  0  0  0  0
  1  2  2  0  0  0  0
  2  3  1  0  0  0  0
  3  4  2  0  0  0  0
  5 16  1  0  0  0  0
  5  3  1  0  0  0  0
  6  5  2  0  0  0  0
  7  6  1  0  0  0  0
  7  1  1  0  0  0  0
  8 10  1  0  0  0  0
  8  6  1  0  0  0  0
  9  8  2  0  0  0  0
 11  1  1  0  0  0  0
 11 13  1  0  0  0  0
 12 11  2  0  0  0  0
 13 15  1  0  0  0  0
 14 15  1  0  0  0  0
 16 17  1  0  0  0  0
M  END
>  <minimizedAffinity>
-4.1838131

$$$$

 OpenBabel09122222553D

 17 17  0  0  0  0  0  0  0  0999 V2000
    9.4440    7.8680    0.6800 C   0  0  0  0  0  0  0  0  0  0  0  0
    9.9530    8.0390    1.9080 C   0  0  0  0  0  3  0  0  0  0  0  0
    9.8750    9.3690    2.5270 C   0  0  0  0  0  0  0  0  0  0  0  0
   10.3300    9.5770    3.6500 O   0  0  0  0  0  0  0  0  0  0  0  0
    9.2250   10.4570    1.7610 C   0  0  0  0  0  0  0  0  0  0  0  0
    8.7580   10.1580    0.5430 C   0  0  0  0  0  0  0  0  0  0  0  0
    8.8500    8.8970   -0.0350 O   0  0  0  0  0  0  0  0  0  0  0  0
    8.0710   11.2290   -0.3050 C   0  0  0  0  0  0  0  0  0  0  0  0
    7.0730   11.7820    0.2400 O   0  0  0  0  0  1  0  0  0  0  0  0
    8.6310   11.4700   -1.4150 O   0  0  0  0  0  0  0  0  0  0  0  0
    9.4990    6.5380    0.0040 C   0  0  0  0  0  0  0  0  0  0  0  0
    8.6910    6.1570   -0.8300 O   0  0  0  0  0  0  0  0  0  0  0  0
   10.5590    5.8030    0.4460 O   0  0  0  0  0  0  0  0  0  0  0  0
   10.5570    3.4410   -0.0960 C   0  0  0  0  0  1  0  0  0  0  0  0
   10.2400    4.4970    0.9470 C   0  0  0  0  0  2  0  0  0  0  0  0
    9.1460   11.6990    2.3560 O   0  0  0  0  0  0  0  0  0  0  0  0
    9.5740   11.5920    3.2270 H   0  0  0  0  0  0  0  0  0  0  0  0
  1  2  2  0  0  0  0
  2  3  1  0  0  0  0
  3  4  2  0  0  0  0
  5 16  1  0  0  0  0
  5  3  1  0  0  0  0
  6  5  2  0  0  0  0
  7  6  1  0  0  0  0
  7  1  1  0  0  0  0
  8  9  1  0  0  0  0
  8  6  1  0  0  0  0
 10  8  2  0  0  0  0
 11 13  1  0  0  0  0
 11  1  1  0  0  0  0
 12 11  2  0  0  0  0
 13 15  1  0  0  0  0
 14 15  1  0  0  0  0
 16 17  1  0  0  0  0
M  END
>  <minimizedAffinity>
-4.1036787

$$$$

 OpenBabel09122222553D

 17 17  0  0  0  0  0  0  0  0999 V2000
    9.9850    4.5500    0.4680 C   0  0  0  0  0  0  0  0  0  0  0  0
    9.4220    5.2310   -0.5390 C   0  0  0  0  0  3  0  0  0  0  0  0
    9.1020    6.6510   -0.3430 C   0  0  0  0  0  0  0  0  0  0  0  0
    8.5820    7.3170   -1.2360 O   0  0  0  0  0  0  0  0  0  0  0  0
    9.4290    7.2640    0.9660 C   0  0  0  0  0  0  0  0  0  0  0  0
    9.9880    6.4750    1.8920 C   0  0  0  0  0  0  0  0  0  0  0  0
   10.2740    5.1300    1.6940 O   0  0  0  0  0  0  0  0  0  0  0  0
   10.3570    7.0390    3.2640 C   0  0  0  0  0  0  0  0  0  0  0  0
   10.4830    6.1760    4.1800 O   0  0  0  0  0  1  0  0  0  0  0  0
   10.5570    8.2890    3.2910 O   0  0  0  0  0  0  0  0  0  0  0  0
   10.3290    3.1050    0.3220 C   0  0  0  0  0  0  0  0  0  0  0  0
   10.5590    2.5580   -0.7470 O   0  0  0  0  0  0  0  0  0  0  0  0
   10.3420    2.4750    1.5320 O   0  0  0  0  0  0  0  0  0  0  0  0
    9.4200    0.2350    1.5080 C   0  0  0  0  0  1  0  0  0  0  0  0
    9.1770    1.6960    1.8370 C   0  0  0  0  0  2  0  0  0  0  0  0
    9.1350    8.6010    1.1370 O   0  0  0  0  0  0  0  0  0  0  0  0
    8.7370    8.8840    0.2910 H   0  0  0  0  0  0  0  0  0  0  0  0
  1  7  1  0  0  0  0
  2  3  1  0  0  0  0
  2  1  2  0  0  0  0
  3  5  1  0  0  0  0
  4  3  2  0  0  0  0
  5 16  1  0  0  0  0
  5  6  2  0  0  0  0
  6  8  1  0  0  0  0
  7  6  1  0  0  0  0
  8 10  2  0  0  0  0
  8  9  1  0  0  0  0
 11  1  1  0  0  0  0
 11 13  1  0  0  0  0
 12 11  2  0  0  0  0
 13 15  1  0  0  0  0
 14 15  1  0  0  0  0
 17 16  1  0  0  0  0
M  END
>  <minimizedAffinity>
-4.04412746

$$$$
