
 OpenBabel09132204463D

 17 17  0  0  0  0  0  0  0  0999 V2000
   10.2340    4.4260    1.1040 C   0  0  0  0  0  0  0  0  0  0  0  0
   10.4730    4.7900    2.3710 C   0  0  0  0  0  3  0  0  0  0  0  0
   10.2970    6.1990    2.7490 C   0  0  0  0  0  0  0  0  0  0  0  0
   10.5070    6.5820    3.8980 O   0  0  0  0  0  0  0  0  0  0  0  0
    9.8540    7.1500    1.7030 C   0  0  0  0  0  0  0  0  0  0  0  0
    9.6520    6.6620    0.4730 C   0  0  0  0  0  0  0  0  0  0  0  0
    9.8330    5.3280    0.1290 O   0  0  0  0  0  0  0  0  0  0  0  0
    9.1890    7.5820   -0.6560 C   0  0  0  0  0  0  0  0  0  0  0  0
    9.7800    7.4120   -1.7620 O   0  0  0  0  0  0  0  0  0  0  0  0
    8.2270    8.3490   -0.3580 O   0  0  0  0  0  1  0  0  0  0  0  0
   10.3980    3.0090    0.6670 C   0  0  0  0  0  0  0  0  0  0  0  0
   10.5580    2.6610   -0.4940 O   0  0  0  0  0  0  0  0  0  0  0  0
   10.3360    2.1540    1.7280 O   0  0  0  0  0  0  0  0  0  0  0  0
    9.5000   -0.0400    1.1290 C   0  0  0  0  0  1  0  0  0  0  0  0
    9.1840    1.3000    1.7690 C   0  0  0  0  0  2  0  0  0  0  0  0
    9.6820    8.4690    2.0700 O   0  0  0  0  0  0  0  0  0  0  0  0
    9.9100    8.5010    3.0180 H   0  0  0  0  0  0  0  0  0  0  0  0
  1  2  2  0  0  0  0
  2  3  1  0  0  0  0
  3  4  2  0  0  0  0
  5 16  1  0  0  0  0
  5  3  1  0  0  0  0
  6  5  2  0  0  0  0
  7  6  1  0  0  0  0
  7  1  1  0  0  0  0
  8 10  1  0  0  0  0
  8  6  1  0  0  0  0
  9  8  2  0  0  0  0
 11  1  1  0  0  0  0
 11 13  1  0  0  0  0
 12 11  2  0  0  0  0
 13 15  1  0  0  0  0
 14 15  1  0  0  0  0
 16 17  1  0  0  0  0
M  END
>  <minimizedAffinity>
-4.1838131

$$$$
