
 OpenBabel09132204463D

 17 17  0  0  0  0  0  0  0  0999 V2000
    9.6850    8.6490   -1.4020 C   0  0  0  0  0  0  0  0  0  0  0  0
    9.5790    7.3260   -1.2170 C   0  0  0  0  0  3  0  0  0  0  0  0
    9.4140    6.8130    0.1500 C   0  0  0  0  0  0  0  0  0  0  0  0
    9.3160    5.6080    0.3710 O   0  0  0  0  0  0  0  0  0  0  0  0
    9.3650    7.7930    1.2600 C   0  0  0  0  0  0  0  0  0  0  0  0
    9.4850    9.0880    0.9430 C   0  0  0  0  0  0  0  0  0  0  0  0
    9.6520    9.5570   -0.3540 O   0  0  0  0  0  0  0  0  0  0  0  0
    9.4390   10.1570    2.0350 C   0  0  0  0  0  0  0  0  0  0  0  0
   10.1580   11.1750    1.8170 O   0  0  0  0  0  0  0  0  0  0  0  0
    8.6350    9.9160    2.9830 O   0  0  0  0  0  1  0  0  0  0  0  0
    9.8560    9.2220   -2.7700 C   0  0  0  0  0  0  0  0  0  0  0  0
   10.5590    8.7280   -3.6390 O   0  0  0  0  0  0  0  0  0  0  0  0
    9.1350   10.3710   -2.9170 O   0  0  0  0  0  0  0  0  0  0  0  0
    8.0140   10.9980   -4.9720 C   0  0  0  0  0  1  0  0  0  0  0  0
    9.3020   11.0490   -4.1700 C   0  0  0  0  0  2  0  0  0  0  0  0
    9.1990    7.3030    2.5390 O   0  0  0  0  0  0  0  0  0  0  0  0
    9.1480    6.3330    2.4350 H   0  0  0  0  0  0  0  0  0  0  0  0
  1  2  2  0  0  0  0
  1  7  1  0  0  0  0
  2  3  1  0  0  0  0
  3  4  2  0  0  0  0
  3  5  1  0  0  0  0
  5 16  1  0  0  0  0
  6  5  2  0  0  0  0
  6  8  1  0  0  0  0
  7  6  1  0  0  0  0
  8 10  1  0  0  0  0
  9  8  2  0  0  0  0
 11  1  1  0  0  0  0
 12 11  2  0  0  0  0
 13 11  1  0  0  0  0
 14 15  1  0  0  0  0
 15 13  1  0  0  0  0
 17 16  1  0  0  0  0
M  END
>  <minimizedAffinity>
-4.79926014

$$$$
