
 OpenBabel09132204463D

 17 17  0  0  0  0  0  0  0  0999 V2000
    9.4540    0.0780    1.6030 C   0  0  0  0  0  0  0  0  0  0  0  0
    9.8850   -0.2160    0.3690 C   0  0  0  0  0  3  0  0  0  0  0  0
    9.9170   -1.6220   -0.0540 C   0  0  0  0  0  0  0  0  0  0  0  0
   10.3070   -1.9430   -1.1750 O   0  0  0  0  0  0  0  0  0  0  0  0
    9.4610   -2.6500    0.9110 C   0  0  0  0  0  0  0  0  0  0  0  0
    9.0570   -2.2270    2.1150 C   0  0  0  0  0  0  0  0  0  0  0  0
    9.0430   -0.8930    2.5040 O   0  0  0  0  0  0  0  0  0  0  0  0
    8.5680   -3.2290    3.1610 C   0  0  0  0  0  0  0  0  0  0  0  0
    9.2240   -3.2350    4.2430 O   0  0  0  0  0  1  0  0  0  0  0  0
    7.5300   -3.8750    2.8360 O   0  0  0  0  0  0  0  0  0  0  0  0
    9.4020    1.4900    2.0830 C   0  0  0  0  0  0  0  0  0  0  0  0
    9.3690    1.8160    3.2610 O   0  0  0  0  0  0  0  0  0  0  0  0
    9.3860    2.3670    1.0380 O   0  0  0  0  0  0  0  0  0  0  0  0
    9.8770    4.5540    0.1180 C   0  0  0  0  0  1  0  0  0  0  0  0
   10.1970    3.5390    1.2000 C   0  0  0  0  0  2  0  0  0  0  0  0
    9.4850   -3.9670    0.5010 O   0  0  0  0  0  0  0  0  0  0  0  0
    9.8300   -3.9440   -0.4120 H   0  0  0  0  0  0  0  0  0  0  0  0
  1 11  1  0  0  0  0
  1  7  1  0  0  0  0
  2  1  2  0  0  0  0
  3  2  1  0  0  0  0
  3  5  1  0  0  0  0
  4  3  2  0  0  0  0
  5  6  2  0  0  0  0
  6  7  1  0  0  0  0
  6  8  1  0  0  0  0
  8  9  1  0  0  0  0
 10  8  2  0  0  0  0
 11 12  2  0  0  0  0
 13 15  1  0  0  0  0
 13 11  1  0  0  0  0
 14 15  1  0  0  0  0
 16  5  1  0  0  0  0
 17 16  1  0  0  0  0
M  END
>  <minimizedAffinity>
-5.18565989

$$$$
