
 OpenBabel09132204463D

 17 17  0  0  0  0  0  0  0  0999 V2000
    9.5850    9.9880   -0.5110 C   0  0  0  0  0  0  0  0  0  0  0  0
    9.3160   10.6210    0.6390 C   0  0  0  0  0  3  0  0  0  0  0  0
    9.1100    9.8230    1.8550 C   0  0  0  0  0  0  0  0  0  0  0  0
    8.8570   10.3570    2.9340 O   0  0  0  0  0  0  0  0  0  0  0  0
    9.2180    8.3490    1.7480 C   0  0  0  0  0  0  0  0  0  0  0  0
    9.4880    7.8390    0.5400 C   0  0  0  0  0  0  0  0  0  0  0  0
    9.6700    8.6070   -0.6030 O   0  0  0  0  0  0  0  0  0  0  0  0
    9.6200    6.3270    0.3530 C   0  0  0  0  0  0  0  0  0  0  0  0
    8.8240    5.8220   -0.4900 O   0  0  0  0  0  0  0  0  0  0  0  0
   10.5540    5.7880    1.0150 O   0  0  0  0  0  1  0  0  0  0  0  0
    9.8010   10.7510   -1.7760 C   0  0  0  0  0  0  0  0  0  0  0  0
   10.4680   11.7720   -1.8570 O   0  0  0  0  0  0  0  0  0  0  0  0
    9.1510   10.1670   -2.8230 O   0  0  0  0  0  0  0  0  0  0  0  0
    8.0490   11.3020   -4.6580 C   0  0  0  0  0  1  0  0  0  0  0  0
    9.3620   10.7800   -4.1020 C   0  0  0  0  0  2  0  0  0  0  0  0
    9.0340    7.6090    2.8970 O   0  0  0  0  0  0  0  0  0  0  0  0
    8.8520    8.2660    3.5960 H   0  0  0  0  0  0  0  0  0  0  0  0
  1  2  2  0  0  0  0
  2  3  1  0  0  0  0
  3  4  2  0  0  0  0
  5  3  1  0  0  0  0
  5 16  1  0  0  0  0
  6  5  2  0  0  0  0
  7  1  1  0  0  0  0
  7  6  1  0  0  0  0
  8  6  1  0  0  0  0
  8 10  1  0  0  0  0
  9  8  2  0  0  0  0
 11  1  1  0  0  0  0
 12 11  2  0  0  0  0
 13 11  1  0  0  0  0
 14 15  1  0  0  0  0
 15 13  1  0  0  0  0
 16 17  1  0  0  0  0
M  END
>  <minimizedAffinity>
-4.75196934

$$$$
