
 OpenBabel09092210413D

 45 50  0  0  0  0  0  0  0  0999 V2000
    2.5650    7.9180    8.6000 C   0  0  0  0  0  0  0  0  0  0  0  0
    3.4290    8.9070    8.1440 C   0  0  0  0  0  3  0  0  0  0  0  0
    4.5590    8.5590    7.4030 C   0  0  0  0  0  3  0  0  0  0  0  0
    4.8400    7.2190    7.0910 C   0  0  0  0  0  0  0  0  0  0  0  0
    3.9810    6.1940    7.5780 C   0  0  0  0  0  0  0  0  0  0  0  0
    2.8500    6.5760    8.3220 C   0  0  0  0  0  3  0  0  0  0  0  0
    4.2200    4.7340    7.3160 C   0  0  0  0  0  0  0  0  0  0  0  0
    3.0080    3.9090    6.9560 C   0  0  0  0  0  1  0  0  0  0  0  0
    5.4800    4.2410    7.3720 C   0  0  0  0  0  0  0  0  0  0  0  0
    6.6770    5.0490    7.7940 C   0  0  0  0  0  2  0  0  0  0  0  0
    6.9720    5.9880    6.7170 N   0  0  0  0  0  0  0  0  0  0  0  0
    6.0540    6.9300    6.2970 C   0  0  0  0  0  0  0  0  0  0  0  0
    6.4460    7.3480    5.0220 C   0  0  0  0  0  0  0  0  0  0  0  0
    7.6630    6.6370    4.7030 C   0  0  0  0  0  0  0  0  0  0  0  0
    8.4940    6.5440    3.5600 C   0  0  0  0  0  3  0  0  0  0  0  0
    9.6050    5.6870    3.5540 C   0  0  0  0  0  3  0  0  0  0  0  0
    9.9130    4.9380    4.6880 C   0  0  0  0  0  0  0  0  0  0  0  0
    9.1260    5.0200    5.8380 C   0  0  0  0  0  3  0  0  0  0  0  0
    7.9930    5.8490    5.8070 C   0  0  0  0  0  0  0  0  0  0  0  0
   10.9950    3.9290    4.6990 C   0  0  0  0  0  0  0  0  0  0  0  0
   11.7440    3.8300    5.6560 O   0  0  0  0  0  0  0  0  0  0  0  0
   10.9750    3.0850    3.5860 N   0  0  0  0  0  0  0  0  0  0  0  0
   11.7440    1.6300    3.4610 S   0  0  0  0  0  0  0  0  0  0  0  0
   11.4410    1.1880    2.1180 O   0  0  0  0  0  0  0  0  0  0  0  0
   13.0980    1.7140    3.9420 O   0  0  0  0  0  0  0  0  0  0  0  0
   10.7930    0.7280    4.5340 N   0  0  0  0  0  0  0  0  0  0  0  0
   11.3480    0.5670    5.8980 C   0  0  0  0  0  1  0  0  0  0  0  0
   10.2130   -0.5400    4.0050 C   0  0  0  0  0  2  0  0  0  0  0  0
    8.9190   -0.2830    3.2220 C   0  0  0  0  0  2  0  0  0  0  0  0
    7.7580   -0.2040    4.0590 O   0  0  0  0  0  0  0  0  0  0  0  0
    7.6120    1.0440    4.7410 C   0  0  0  0  0  2  0  0  0  0  0  0
    6.1600    1.1660    5.2230 C   0  0  0  0  0  2  0  0  0  0  0  0
    5.7870    2.5260    5.6250 N   0  0  0  0  0  0  0  0  0  0  0  0
    5.4410    3.4370    4.5350 C   0  0  0  0  0  1  0  0  0  0  0  0
    5.8410    2.8540    6.9730 C   0  0  0  0  0  0  0  0  0  0  0  0
    6.2440    2.0840    7.8430 O   0  0  0  0  0  0  0  0  0  0  0  0
   10.2140    3.1470    2.9210 H   0  0  0  0  0  0  0  0  0  0  0  0
    5.6340    8.2600    4.1240 C   0  0  0  0  0  3  0  0  0  0  0  0
    6.3700    9.5210    3.6480 C   0  0  0  0  0  2  0  0  0  0  0  0
    5.4550   10.4110    2.8070 C   0  0  0  0  0  2  0  0  0  0  0  0
    4.8350    9.6450    1.6400 C   0  0  0  0  0  2  0  0  0  0  0  0
    4.1160    8.3820    2.1060 C   0  0  0  0  0  2  0  0  0  0  0  0
    5.0320    7.4880    2.9390 C   0  0  0  0  0  2  0  0  0  0  0  0
    0.1880    7.9110    8.6620 C   0  0  0  0  0  1  0  0  0  0  0  0
    1.4260    8.1190    9.3300 O   0  0  0  0  0  0  0  0  0  0  0  0
  1 45  1  0  0  0  0
  2  1  2  0  0  0  0
  3  2  1  0  0  0  0
  4  3  2  0  0  0  0
  4  5  1  0  0  0  0
  5  6  2  0  0  0  0
  6  1  1  0  0  0  0
  7  9  2  0  0  0  0
  7  5  1  0  0  0  0
  8  7  1  0  0  0  0
  9 10  1  0  0  0  0
 11 10  1  0  0  0  0
 12 11  1  0  0  0  0
 12  4  1  0  0  0  0
 13 12  2  0  0  0  0
 14 13  1  0  0  0  0
 14 19  1  0  0  0  0
 15 14  2  0  0  0  0
 16 15  1  0  0  0  0
 16 17  2  0  0  0  0
 17 20  1  0  0  0  0
 17 18  1  0  0  0  0
 19 18  2  0  0  0  0
 19 11  1  0  0  0  0
 20 21  2  0  0  0  0
 22 20  1  0  0  0  0
 23 22  1  0  0  0  0
 23 25  2  0  0  0  0
 23 26  1  0  0  0  0
 24 23  2  0  0  0  0
 26 27  1  0  0  0  0
 28 26  1  0  0  0  0
 29 28  1  0  0  0  0
 29 30  1  0  0  0  0
 30 31  1  0  0  0  0
 31 32  1  0  0  0  0
 32 33  1  0  0  0  0
 33 35  1  0  0  0  0
 34 33  1  0  0  0  0
 35  9  1  0  0  0  0
 35 36  2  0  0  0  0
 37 22  1  0  0  0  0
 38 13  1  0  0  0  0
 39 38  1  0  0  0  0
 40 39  1  0  0  0  0
 41 42  1  0  0  0  0
 41 40  1  0  0  0  0
 42 43  1  0  0  0  0
 43 38  1  0  0  0  0
 44 45  1  0  0  0  0
M  END
>  <minimizedAffinity>
-4.70262098

$$$$
