
 OpenBabel09092210413D

 45 50  0  0  0  0  0  0  0  0999 V2000
    7.4230   -1.1350    3.0010 C   0  0  0  0  0  0  0  0  0  0  0  0
    8.7570   -1.1540    2.6110 C   0  0  0  0  0  3  0  0  0  0  0  0
    9.6340   -0.1750    3.0790 C   0  0  0  0  0  3  0  0  0  0  0  0
    9.2000    0.8310    3.9570 C   0  0  0  0  0  0  0  0  0  0  0  0
    7.8300    0.8810    4.3390 C   0  0  0  0  0  0  0  0  0  0  0  0
    6.9700   -0.1190    3.8510 C   0  0  0  0  0  3  0  0  0  0  0  0
    7.2740    1.9380    5.2510 C   0  0  0  0  0  0  0  0  0  0  0  0
    6.3030    1.4700    6.3070 C   0  0  0  0  0  1  0  0  0  0  0  0
    7.6840    3.2210    5.1170 C   0  0  0  0  0  0  0  0  0  0  0  0
    8.6010    3.6980    4.0240 C   0  0  0  0  0  2  0  0  0  0  0  0
    9.9350    3.1840    4.3170 N   0  0  0  0  0  0  0  0  0  0  0  0
   10.1910    1.8300    4.4130 C   0  0  0  0  0  0  0  0  0  0  0  0
   11.3930    1.6870    5.1130 C   0  0  0  0  0  0  0  0  0  0  0  0
   11.8690    3.0200    5.4080 C   0  0  0  0  0  0  0  0  0  0  0  0
   12.9520    3.5520    6.1480 C   0  0  0  0  0  3  0  0  0  0  0  0
   13.1000    4.9390    6.2970 C   0  0  0  0  0  3  0  0  0  0  0  0
   12.1930    5.8050    5.6920 C   0  0  0  0  0  0  0  0  0  0  0  0
   11.1240    5.3150    4.9390 C   0  0  0  0  0  3  0  0  0  0  0  0
   10.9670    3.9230    4.8420 C   0  0  0  0  0  0  0  0  0  0  0  0
   12.2270    7.2690    5.9150 C   0  0  0  0  0  0  0  0  0  0  0  0
   12.0530    8.0430    4.9900 O   0  0  0  0  0  0  0  0  0  0  0  0
   12.3680    7.6190    7.2600 N   0  0  0  0  0  0  0  0  0  0  0  0
   12.0410    9.1000    7.9120 S   0  0  0  0  0  0  0  0  0  0  0  0
   12.3830    8.9490    9.3100 O   0  0  0  0  0  0  0  0  0  0  0  0
   12.5960   10.1570    7.1080 O   0  0  0  0  0  0  0  0  0  0  0  0
   10.3520    9.0860    7.7840 N   0  0  0  0  0  0  0  0  0  0  0  0
    9.7950    9.8090    6.6170 C   0  0  0  0  0  1  0  0  0  0  0  0
    9.5870    9.3550    9.0350 C   0  0  0  0  0  2  0  0  0  0  0  0
    9.4380    8.0880    9.8880 C   0  0  0  0  0  2  0  0  0  0  0  0
    8.3320    7.2670    9.4920 O   0  0  0  0  0  0  0  0  0  0  0  0
    8.5780    6.4750    8.3270 C   0  0  0  0  0  2  0  0  0  0  0  0
    7.5320    5.3530    8.2750 C   0  0  0  0  0  2  0  0  0  0  0  0
    7.8730    4.2760    7.3400 N   0  0  0  0  0  0  0  0  0  0  0  0
    8.8270    3.2850    7.8350 C   0  0  0  0  0  1  0  0  0  0  0  0
    7.3190    4.3070    6.0670 C   0  0  0  0  0  0  0  0  0  0  0  0
    6.6060    5.2220    5.6600 O   0  0  0  0  0  0  0  0  0  0  0  0
   12.3470    6.9000    7.9730 H   0  0  0  0  0  0  0  0  0  0  0  0
   11.9690    0.3650    5.5810 C   0  0  0  0  0  3  0  0  0  0  0  0
   11.0720   -0.4250    6.5460 C   0  0  0  0  0  2  0  0  0  0  0  0
   11.7610   -1.7060    7.0170 C   0  0  0  0  0  2  0  0  0  0  0  0
   12.2220   -2.5660    5.8420 C   0  0  0  0  0  2  0  0  0  0  0  0
   13.1000   -1.7810    4.8720 C   0  0  0  0  0  2  0  0  0  0  0  0
   12.4100   -0.5060    4.3940 C   0  0  0  0  0  2  0  0  0  0  0  0
    6.6860   -2.7440    1.4120 C   0  0  0  0  0  1  0  0  0  0  0  0
    6.4610   -2.0310    2.6210 O   0  0  0  0  0  0  0  0  0  0  0  0
  1  6  1  0  0  0  0
  2  1  2  0  0  0  0
  2  3  1  0  0  0  0
  3  4  2  0  0  0  0
  4  5  1  0  0  0  0
  4 12  1  0  0  0  0
  5  7  1  0  0  0  0
  6  5  2  0  0  0  0
  7  8  1  0  0  0  0
  9  7  2  0  0  0  0
  9 35  1  0  0  0  0
 10 11  1  0  0  0  0
 10  9  1  0  0  0  0
 11 12  1  0  0  0  0
 11 19  1  0  0  0  0
 12 13  2  0  0  0  0
 13 14  1  0  0  0  0
 13 38  1  0  0  0  0
 14 15  1  0  0  0  0
 15 16  2  0  0  0  0
 17 20  1  0  0  0  0
 17 16  1  0  0  0  0
 18 17  2  0  0  0  0
 19 18  1  0  0  0  0
 19 14  2  0  0  0  0
 20 22  1  0  0  0  0
 21 20  2  0  0  0  0
 22 23  1  0  0  0  0
 22 37  1  0  0  0  0
 23 24  2  0  0  0  0
 25 23  2  0  0  0  0
 26 23  1  0  0  0  0
 26 28  1  0  0  0  0
 27 26  1  0  0  0  0
 28 29  1  0  0  0  0
 30 29  1  0  0  0  0
 31 30  1  0  0  0  0
 32 31  1  0  0  0  0
 33 34  1  0  0  0  0
 33 32  1  0  0  0  0
 35 33  1  0  0  0  0
 36 35  2  0  0  0  0
 38 39  1  0  0  0  0
 39 40  1  0  0  0  0
 41 40  1  0  0  0  0
 42 41  1  0  0  0  0
 43 42  1  0  0  0  0
 43 38  1  0  0  0  0
 44 45  1  0  0  0  0
 45  1  1  0  0  0  0
M  END
>  <minimizedAffinity>
-5.08718443

$$$$
