
 OpenBabel09082221113D

 45 50  0  0  0  0  0  0  0  0999 V2000
   11.0980    8.6010    4.2800 C   0  0  0  0  0  0  0  0  0  0  0  0
    9.8870    8.4390    3.6170 C   0  0  0  0  0  3  0  0  0  0  0  0
    9.2300    7.2080    3.6570 C   0  0  0  0  0  3  0  0  0  0  0  0
    9.7620    6.1220    4.3700 C   0  0  0  0  0  0  0  0  0  0  0  0
   11.0160    6.2650    5.0270 C   0  0  0  0  0  0  0  0  0  0  0  0
   11.6540    7.5180    4.9690 C   0  0  0  0  0  3  0  0  0  0  0  0
   11.6710    5.1490    5.7900 C   0  0  0  0  0  0  0  0  0  0  0  0
   12.3010    5.5180    7.1110 C   0  0  0  0  0  1  0  0  0  0  0  0
   11.6360    3.8890    5.2950 C   0  0  0  0  0  0  0  0  0  0  0  0
   11.0650    3.5330    3.9490 C   0  0  0  0  0  2  0  0  0  0  0  0
    9.6150    3.6580    4.0430 N   0  0  0  0  0  0  0  0  0  0  0  0
    9.0030    4.8520    4.3690 C   0  0  0  0  0  0  0  0  0  0  0  0
    7.7090    4.5480    4.7990 C   0  0  0  0  0  0  0  0  0  0  0  0
    7.5540    3.1160    4.6870 C   0  0  0  0  0  0  0  0  0  0  0  0
    6.5400    2.1900    5.0360 C   0  0  0  0  0  3  0  0  0  0  0  0
    6.7350    0.8140    4.8450 C   0  0  0  0  0  3  0  0  0  0  0  0
    7.9220    0.3500    4.2840 C   0  0  0  0  0  0  0  0  0  0  0  0
    8.9350    1.2360    3.9110 C   0  0  0  0  0  3  0  0  0  0  0  0
    8.7390    2.6050    4.1530 C   0  0  0  0  0  0  0  0  0  0  0  0
    8.2340   -1.0930    4.1730 C   0  0  0  0  0  0  0  0  0  0  0  0
    8.7520   -1.5420    3.1650 O   0  0  0  0  0  0  0  0  0  0  0  0
    7.9720   -1.8060    5.3450 N   0  0  0  0  0  0  0  0  0  0  0  0
    8.5610   -3.3020    5.7190 S   0  0  0  0  0  0  0  0  0  0  0  0
    7.9690   -3.6000    7.0050 O   0  0  0  0  0  0  0  0  0  0  0  0
    8.4390   -4.2030    4.6040 O   0  0  0  0  0  0  0  0  0  0  0  0
   10.1860   -2.8970    5.9740 N   0  0  0  0  0  0  0  0  0  0  0  0
   11.0940   -3.1530    4.8330 C   0  0  0  0  0  1  0  0  0  0  0  0
   10.7800   -3.3180    7.2760 C   0  0  0  0  0  2  0  0  0  0  0  0
   10.4540   -2.3180    8.3930 C   0  0  0  0  0  2  0  0  0  0  0  0
   11.3580   -1.2060    8.4390 O   0  0  0  0  0  0  0  0  0  0  0  0
   11.1070   -0.2070    7.4470 C   0  0  0  0  0  2  0  0  0  0  0  0
   11.8200    1.0850    7.8720 C   0  0  0  0  0  2  0  0  0  0  0  0
   11.3680    2.2720    7.1390 N   0  0  0  0  0  0  0  0  0  0  0  0
   10.1220    2.8720    7.6120 C   0  0  0  0  0  1  0  0  0  0  0  0
   12.1110    2.6950    6.0450 C   0  0  0  0  0  0  0  0  0  0  0  0
   13.0940    2.0920    5.6190 O   0  0  0  0  0  0  0  0  0  0  0  0
    7.6890   -1.3130    6.1830 H   0  0  0  0  0  0  0  0  0  0  0  0
    6.7400    5.5480    5.4020 C   0  0  0  0  0  3  0  0  0  0  0  0
    5.3690    5.6130    4.7150 C   0  0  0  0  0  2  0  0  0  0  0  0
    4.4870    6.6930    5.3440 C   0  0  0  0  0  2  0  0  0  0  0  0
    4.3540    6.5060    6.8550 C   0  0  0  0  0  2  0  0  0  0  0  0
    5.7150    6.4230    7.5400 C   0  0  0  0  0  2  0  0  0  0  0  0
    6.5930    5.3400    6.9180 C   0  0  0  0  0  2  0  0  0  0  0  0
   11.9210   10.4160    5.5780 C   0  0  0  0  0  1  0  0  0  0  0  0
   11.8430    9.7480    4.3250 O   0  0  0  0  0  0  0  0  0  0  0  0
  1 45  1  0  0  0  0
  1  6  1  0  0  0  0
  2  3  1  0  0  0  0
  2  1  2  0  0  0  0
  3  4  2  0  0  0  0
  4  5  1  0  0  0  0
  5  7  1  0  0  0  0
  6  5  2  0  0  0  0
  7  8  1  0  0  0  0
  9  7  2  0  0  0  0
  9 35  1  0  0  0  0
 10 11  1  0  0  0  0
 10  9  1  0  0  0  0
 11 19  1  0  0  0  0
 11 12  1  0  0  0  0
 12  4  1  0  0  0  0
 12 13  2  0  0  0  0
 13 38  1  0  0  0  0
 14 13  1  0  0  0  0
 14 15  1  0  0  0  0
 16 15  2  0  0  0  0
 17 16  1  0  0  0  0
 18 19  1  0  0  0  0
 18 17  2  0  0  0  0
 19 14  2  0  0  0  0
 20 17  1  0  0  0  0
 20 22  1  0  0  0  0
 21 20  2  0  0  0  0
 22 23  1  0  0  0  0
 22 37  1  0  0  0  0
 23 26  1  0  0  0  0
 23 24  2  0  0  0  0
 25 23  2  0  0  0  0
 26 28  1  0  0  0  0
 27 26  1  0  0  0  0
 28 29  1  0  0  0  0
 29 30  1  0  0  0  0
 31 32  1  0  0  0  0
 31 30  1  0  0  0  0
 33 34  1  0  0  0  0
 33 32  1  0  0  0  0
 35 33  1  0  0  0  0
 36 35  2  0  0  0  0
 38 43  1  0  0  0  0
 39 40  1  0  0  0  0
 39 38  1  0  0  0  0
 40 41  1  0  0  0  0
 41 42  1  0  0  0  0
 43 42  1  0  0  0  0
 45 44  1  0  0  0  0
M  END
>  <minimizedAffinity>
-5.19899559

$$$$

 OpenBabel09082221113D

 45 50  0  0  0  0  0  0  0  0999 V2000
   12.7660    8.0170    9.7460 C   0  0  0  0  0  0  0  0  0  0  0  0
   13.0540    8.2660    8.4090 C   0  0  0  0  0  3  0  0  0  0  0  0
   12.8200    7.2790    7.4500 C   0  0  0  0  0  3  0  0  0  0  0  0
   12.2800    6.0330    7.8050 C   0  0  0  0  0  0  0  0  0  0  0  0
   12.0090    5.7540    9.1740 C   0  0  0  0  0  0  0  0  0  0  0  0
   12.2550    6.7680   10.1180 C   0  0  0  0  0  3  0  0  0  0  0  0
   11.4570    4.4390    9.6470 C   0  0  0  0  0  0  0  0  0  0  0  0
   10.3730    4.5040   10.6950 C   0  0  0  0  0  1  0  0  0  0  0  0
   11.9120    3.2870    9.1010 C   0  0  0  0  0  0  0  0  0  0  0  0
   13.0360    3.2190    8.1030 C   0  0  0  0  0  2  0  0  0  0  0  0
   12.5340    3.7510    6.8410 N   0  0  0  0  0  0  0  0  0  0  0  0
   12.0550    5.0420    6.7310 C   0  0  0  0  0  0  0  0  0  0  0  0
   11.2720    5.0930    5.5740 C   0  0  0  0  0  0  0  0  0  0  0  0
   11.3250    3.7800    4.9720 C   0  0  0  0  0  0  0  0  0  0  0  0
   10.6940    3.1640    3.8640 C   0  0  0  0  0  3  0  0  0  0  0  0
   10.9230    1.8090    3.5760 C   0  0  0  0  0  3  0  0  0  0  0  0
   11.7950    1.0670    4.3680 C   0  0  0  0  0  0  0  0  0  0  0  0
   12.4480    1.6480    5.4570 C   0  0  0  0  0  3  0  0  0  0  0  0
   12.1700    2.9910    5.7550 C   0  0  0  0  0  0  0  0  0  0  0  0
   11.9800   -0.3910    4.1890 C   0  0  0  0  0  0  0  0  0  0  0  0
   13.0910   -0.8890    4.2510 O   0  0  0  0  0  0  0  0  0  0  0  0
   10.7770   -1.0880    4.0560 N   0  0  0  0  0  0  0  0  0  0  0  0
   10.5760   -2.7150    4.2480 S   0  0  0  0  0  0  0  0  0  0  0  0
    9.1730   -2.9290    3.9710 O   0  0  0  0  0  0  0  0  0  0  0  0
   11.6040   -3.4510    3.5610 O   0  0  0  0  0  0  0  0  0  0  0  0
   10.7980   -2.8200    5.9250 N   0  0  0  0  0  0  0  0  0  0  0  0
   12.1490   -3.2370    6.3640 C   0  0  0  0  0  1  0  0  0  0  0  0
    9.7160   -3.4960    6.6980 C   0  0  0  0  0  2  0  0  0  0  0  0
    8.5600   -2.5360    7.0060 C   0  0  0  0  0  2  0  0  0  0  0  0
    8.7820   -1.7410    8.1780 O   0  0  0  0  0  0  0  0  0  0  0  0
    9.6680   -0.6370    7.9780 C   0  0  0  0  0  2  0  0  0  0  0  0
    9.4740    0.3550    9.1330 C   0  0  0  0  0  2  0  0  0  0  0  0
   10.0560    1.6760    8.8760 N   0  0  0  0  0  0  0  0  0  0  0  0
    9.2520    2.5720    8.0470 C   0  0  0  0  0  1  0  0  0  0  0  0
   11.3200    1.9510    9.3820 C   0  0  0  0  0  0  0  0  0  0  0  0
   12.0040    1.1240    9.9820 O   0  0  0  0  0  0  0  0  0  0  0  0
    9.8970   -0.6010    4.1760 H   0  0  0  0  0  0  0  0  0  0  0  0
   10.4250    6.2790    5.1550 C   0  0  0  0  0  3  0  0  0  0  0  0
   10.8520    6.9450    3.8400 C   0  0  0  0  0  2  0  0  0  0  0  0
    9.9880    8.1690    3.5330 C   0  0  0  0  0  2  0  0  0  0  0  0
    8.4990    7.8260    3.5350 C   0  0  0  0  0  2  0  0  0  0  0  0
    8.0730    7.1480    4.8340 C   0  0  0  0  0  2  0  0  0  0  0  0
    8.9300    5.9210    5.1370 C   0  0  0  0  0  2  0  0  0  0  0  0
   12.2490   10.1300   10.7060 C   0  0  0  0  0  1  0  0  0  0  0  0
   12.9430    8.8920   10.7820 O   0  0  0  0  0  0  0  0  0  0  0  0
  1  6  1  0  0  0  0
  1 45  1  0  0  0  0
  2  1  2  0  0  0  0
  3  4  2  0  0  0  0
  3  2  1  0  0  0  0
  4  5  1  0  0  0  0
  5  7  1  0  0  0  0
  5  6  2  0  0  0  0
  7  8  1  0  0  0  0
  9 35  1  0  0  0  0
  9  7  2  0  0  0  0
 10  9  1  0  0  0  0
 11 10  1  0  0  0  0
 12 11  1  0  0  0  0
 12  4  1  0  0  0  0
 13 12  2  0  0  0  0
 14 13  1  0  0  0  0
 14 19  1  0  0  0  0
 15 14  2  0  0  0  0
 16 15  1  0  0  0  0
 16 17  2  0  0  0  0
 17 18  1  0  0  0  0
 18 19  2  0  0  0  0
 19 11  1  0  0  0  0
 20 21  2  0  0  0  0
 20 17  1  0  0  0  0
 22 37  1  0  0  0  0
 22 20  1  0  0  0  0
 22 23  1  0  0  0  0
 23 26  1  0  0  0  0
 24 23  2  0  0  0  0
 25 23  2  0  0  0  0
 26 27  1  0  0  0  0
 26 28  1  0  0  0  0
 28 29  1  0  0  0  0
 29 30  1  0  0  0  0
 31 30  1  0  0  0  0
 31 32  1  0  0  0  0
 33 32  1  0  0  0  0
 33 35  1  0  0  0  0
 34 33  1  0  0  0  0
 35 36  2  0  0  0  0
 38 13  1  0  0  0  0
 39 38  1  0  0  0  0
 40 41  1  0  0  0  0
 40 39  1  0  0  0  0
 41 42  1  0  0  0  0
 42 43  1  0  0  0  0
 43 38  1  0  0  0  0
 44 45  1  0  0  0  0
M  END
>  <minimizedAffinity>
-5.13589907

$$$$

 OpenBabel09082221113D

 45 50  0  0  0  0  0  0  0  0999 V2000
    7.4230   -1.1350    3.0010 C   0  0  0  0  0  0  0  0  0  0  0  0
    8.7570   -1.1540    2.6110 C   0  0  0  0  0  3  0  0  0  0  0  0
    9.6340   -0.1750    3.0790 C   0  0  0  0  0  3  0  0  0  0  0  0
    9.2000    0.8310    3.9570 C   0  0  0  0  0  0  0  0  0  0  0  0
    7.8300    0.8810    4.3390 C   0  0  0  0  0  0  0  0  0  0  0  0
    6.9700   -0.1190    3.8510 C   0  0  0  0  0  3  0  0  0  0  0  0
    7.2740    1.9380    5.2510 C   0  0  0  0  0  0  0  0  0  0  0  0
    6.3030    1.4700    6.3070 C   0  0  0  0  0  1  0  0  0  0  0  0
    7.6840    3.2210    5.1170 C   0  0  0  0  0  0  0  0  0  0  0  0
    8.6010    3.6980    4.0240 C   0  0  0  0  0  2  0  0  0  0  0  0
    9.9350    3.1840    4.3170 N   0  0  0  0  0  0  0  0  0  0  0  0
   10.1910    1.8300    4.4130 C   0  0  0  0  0  0  0  0  0  0  0  0
   11.3930    1.6870    5.1130 C   0  0  0  0  0  0  0  0  0  0  0  0
   11.8690    3.0200    5.4080 C   0  0  0  0  0  0  0  0  0  0  0  0
   12.9520    3.5520    6.1480 C   0  0  0  0  0  3  0  0  0  0  0  0
   13.1000    4.9390    6.2970 C   0  0  0  0  0  3  0  0  0  0  0  0
   12.1930    5.8050    5.6920 C   0  0  0  0  0  0  0  0  0  0  0  0
   11.1240    5.3150    4.9390 C   0  0  0  0  0  3  0  0  0  0  0  0
   10.9670    3.9230    4.8420 C   0  0  0  0  0  0  0  0  0  0  0  0
   12.2270    7.2690    5.9150 C   0  0  0  0  0  0  0  0  0  0  0  0
   12.0530    8.0430    4.9900 O   0  0  0  0  0  0  0  0  0  0  0  0
   12.3680    7.6190    7.2600 N   0  0  0  0  0  0  0  0  0  0  0  0
   12.0410    9.1000    7.9120 S   0  0  0  0  0  0  0  0  0  0  0  0
   12.3830    8.9490    9.3100 O   0  0  0  0  0  0  0  0  0  0  0  0
   12.5960   10.1570    7.1080 O   0  0  0  0  0  0  0  0  0  0  0  0
   10.3520    9.0860    7.7840 N   0  0  0  0  0  0  0  0  0  0  0  0
    9.7950    9.8090    6.6170 C   0  0  0  0  0  1  0  0  0  0  0  0
    9.5870    9.3550    9.0350 C   0  0  0  0  0  2  0  0  0  0  0  0
    9.4380    8.0880    9.8880 C   0  0  0  0  0  2  0  0  0  0  0  0
    8.3320    7.2670    9.4920 O   0  0  0  0  0  0  0  0  0  0  0  0
    8.5780    6.4750    8.3270 C   0  0  0  0  0  2  0  0  0  0  0  0
    7.5320    5.3530    8.2750 C   0  0  0  0  0  2  0  0  0  0  0  0
    7.8730    4.2760    7.3400 N   0  0  0  0  0  0  0  0  0  0  0  0
    8.8270    3.2850    7.8350 C   0  0  0  0  0  1  0  0  0  0  0  0
    7.3190    4.3070    6.0670 C   0  0  0  0  0  0  0  0  0  0  0  0
    6.6060    5.2220    5.6600 O   0  0  0  0  0  0  0  0  0  0  0  0
   12.3470    6.9000    7.9730 H   0  0  0  0  0  0  0  0  0  0  0  0
   11.9690    0.3650    5.5810 C   0  0  0  0  0  3  0  0  0  0  0  0
   11.0720   -0.4250    6.5460 C   0  0  0  0  0  2  0  0  0  0  0  0
   11.7610   -1.7060    7.0170 C   0  0  0  0  0  2  0  0  0  0  0  0
   12.2220   -2.5660    5.8420 C   0  0  0  0  0  2  0  0  0  0  0  0
   13.1000   -1.7810    4.8720 C   0  0  0  0  0  2  0  0  0  0  0  0
   12.4100   -0.5060    4.3940 C   0  0  0  0  0  2  0  0  0  0  0  0
    6.6860   -2.7440    1.4120 C   0  0  0  0  0  1  0  0  0  0  0  0
    6.4610   -2.0310    2.6210 O   0  0  0  0  0  0  0  0  0  0  0  0
  1  6  1  0  0  0  0
  2  1  2  0  0  0  0
  2  3  1  0  0  0  0
  3  4  2  0  0  0  0
  4  5  1  0  0  0  0
  4 12  1  0  0  0  0
  5  7  1  0  0  0  0
  6  5  2  0  0  0  0
  7  8  1  0  0  0  0
  9  7  2  0  0  0  0
  9 35  1  0  0  0  0
 10 11  1  0  0  0  0
 10  9  1  0  0  0  0
 11 12  1  0  0  0  0
 11 19  1  0  0  0  0
 12 13  2  0  0  0  0
 13 14  1  0  0  0  0
 13 38  1  0  0  0  0
 14 15  1  0  0  0  0
 15 16  2  0  0  0  0
 17 20  1  0  0  0  0
 17 16  1  0  0  0  0
 18 17  2  0  0  0  0
 19 18  1  0  0  0  0
 19 14  2  0  0  0  0
 20 22  1  0  0  0  0
 21 20  2  0  0  0  0
 22 23  1  0  0  0  0
 22 37  1  0  0  0  0
 23 24  2  0  0  0  0
 25 23  2  0  0  0  0
 26 23  1  0  0  0  0
 26 28  1  0  0  0  0
 27 26  1  0  0  0  0
 28 29  1  0  0  0  0
 30 29  1  0  0  0  0
 31 30  1  0  0  0  0
 32 31  1  0  0  0  0
 33 34  1  0  0  0  0
 33 32  1  0  0  0  0
 35 33  1  0  0  0  0
 36 35  2  0  0  0  0
 38 39  1  0  0  0  0
 39 40  1  0  0  0  0
 41 40  1  0  0  0  0
 42 41  1  0  0  0  0
 43 42  1  0  0  0  0
 43 38  1  0  0  0  0
 44 45  1  0  0  0  0
 45  1  1  0  0  0  0
M  END
>  <minimizedAffinity>
-5.08718443

$$$$

 OpenBabel09082221113D

 45 50  0  0  0  0  0  0  0  0999 V2000
    8.3910    8.8090    9.0850 C   0  0  0  0  0  0  0  0  0  0  0  0
    9.7270    8.7640    8.7020 C   0  0  0  0  0  3  0  0  0  0  0  0
   10.1940    7.7010    7.9280 C   0  0  0  0  0  3  0  0  0  0  0  0
    9.3360    6.6720    7.5100 C   0  0  0  0  0  0  0  0  0  0  0  0
    7.9730    6.6890    7.9200 C   0  0  0  0  0  0  0  0  0  0  0  0
    7.5310    7.7740    8.7000 C   0  0  0  0  0  3  0  0  0  0  0  0
    6.9910    5.6170    7.5420 C   0  0  0  0  0  0  0  0  0  0  0  0
    5.6170    6.0810    7.1260 C   0  0  0  0  0  1  0  0  0  0  0  0
    7.3810    4.3200    7.5510 C   0  0  0  0  0  0  0  0  0  0  0  0
    8.7300    3.8530    8.0260 C   0  0  0  0  0  2  0  0  0  0  0  0
    9.7100    4.2580    7.0240 N   0  0  0  0  0  0  0  0  0  0  0  0
    9.9060    5.5830    6.6870 C   0  0  0  0  0  0  0  0  0  0  0  0
   10.5490    5.6020    5.4460 C   0  0  0  0  0  0  0  0  0  0  0  0
   10.7630    4.2240    5.0630 C   0  0  0  0  0  0  0  0  0  0  0  0
   11.2690    3.5760    3.9100 C   0  0  0  0  0  3  0  0  0  0  0  0
   11.2840    2.1750    3.8300 C   0  0  0  0  0  3  0  0  0  0  0  0
   10.8220    1.4110    4.8980 C   0  0  0  0  0  0  0  0  0  0  0  0
   10.3340    2.0180    6.0570 C   0  0  0  0  0  3  0  0  0  0  0  0
   10.2850    3.4200    6.0990 C   0  0  0  0  0  0  0  0  0  0  0  0
   10.7000   -0.0620    4.8230 C   0  0  0  0  0  0  0  0  0  0  0  0
   11.0300   -0.7640    5.7630 O   0  0  0  0  0  0  0  0  0  0  0  0
   10.0900   -0.5060    3.6460 N   0  0  0  0  0  0  0  0  0  0  0  0
    9.4320   -2.0000    3.4020 S   0  0  0  0  0  0  0  0  0  0  0  0
    8.9750   -1.9610    2.0300 O   0  0  0  0  0  0  0  0  0  0  0  0
   10.3070   -3.0380    3.8780 O   0  0  0  0  0  0  0  0  0  0  0  0
    8.0750   -1.8650    4.4070 N   0  0  0  0  0  0  0  0  0  0  0  0
    8.2130   -2.4750    5.7500 C   0  0  0  0  0  1  0  0  0  0  0  0
    6.7520   -2.1620    3.7840 C   0  0  0  0  0  2  0  0  0  0  0  0
    6.1990   -0.9440    3.0320 C   0  0  0  0  0  2  0  0  0  0  0  0
    5.4960   -0.0280    3.8810 O   0  0  0  0  0  0  0  0  0  0  0  0
    6.3450    0.8180    4.6600 C   0  0  0  0  0  2  0  0  0  0  0  0
    5.5140    2.0080    5.1610 C   0  0  0  0  0  2  0  0  0  0  0  0
    6.3270    3.1170    5.6720 N   0  0  0  0  0  0  0  0  0  0  0  0
    6.8900    4.0090    4.6590 C   0  0  0  0  0  1  0  0  0  0  0  0
    6.5400    3.2030    7.0410 C   0  0  0  0  0  0  0  0  0  0  0  0
    6.1350    2.3650    7.8440 O   0  0  0  0  0  0  0  0  0  0  0  0
    9.7070    0.1670    2.9930 H   0  0  0  0  0  0  0  0  0  0  0  0
   10.8140    6.8500    4.6280 C   0  0  0  0  0  3  0  0  0  0  0  0
    9.5940    7.7610    4.4260 C   0  0  0  0  0  2  0  0  0  0  0  0
    9.9380    8.9550    3.5340 C   0  0  0  0  0  2  0  0  0  0  0  0
   11.1410    9.7320    4.0670 C   0  0  0  0  0  2  0  0  0  0  0  0
   12.3510    8.8280    4.2860 C   0  0  0  0  0  2  0  0  0  0  0  0
   12.0110    7.6390    5.1820 C   0  0  0  0  0  2  0  0  0  0  0  0
    6.3840    9.7600    9.9360 C   0  0  0  0  0  1  0  0  0  0  0  0
    7.8020    9.7890    9.8360 O   0  0  0  0  0  0  0  0  0  0  0  0
  1 45  1  0  0  0  0
  2  1  1  0  0  0  0
  3  2  2  0  0  0  0
  4  5  2  0  0  0  0
  4  3  1  0  0  0  0
  5  6  1  0  0  0  0
  6  1  2  0  0  0  0
  7  9  2  0  0  0  0
  7  5  1  0  0  0  0
  8  7  1  0  0  0  0
  9 10  1  0  0  0  0
 11 10  1  0  0  0  0
 12 11  1  0  0  0  0
 12  4  1  0  0  0  0
 13 12  2  0  0  0  0
 14 13  1  0  0  0  0
 14 19  1  0  0  0  0
 15 14  2  0  0  0  0
 16 15  1  0  0  0  0
 16 17  2  0  0  0  0
 17 18  1  0  0  0  0
 18 19  2  0  0  0  0
 19 11  1  0  0  0  0
 20 17  1  0  0  0  0
 20 21  2  0  0  0  0
 22 20  1  0  0  0  0
 23 22  1  0  0  0  0
 23 25  2  0  0  0  0
 23 26  1  0  0  0  0
 24 23  2  0  0  0  0
 26 27  1  0  0  0  0
 28 26  1  0  0  0  0
 29 28  1  0  0  0  0
 29 30  1  0  0  0  0
 30 31  1  0  0  0  0
 31 32  1  0  0  0  0
 32 33  1  0  0  0  0
 33 35  1  0  0  0  0
 34 33  1  0  0  0  0
 35  9  1  0  0  0  0
 35 36  2  0  0  0  0
 37 22  1  0  0  0  0
 38 43  1  0  0  0  0
 38 13  1  0  0  0  0
 39 38  1  0  0  0  0
 40 41  1  0  0  0  0
 40 39  1  0  0  0  0
 41 42  1  0  0  0  0
 42 43  1  0  0  0  0
 45 44  1  0  0  0  0
M  END
>  <minimizedAffinity>
-5.0609951

$$$$

 OpenBabel09082221113D

 45 50  0  0  0  0  0  0  0  0999 V2000
   12.1930    0.1110    4.2120 C   0  0  0  0  0  0  0  0  0  0  0  0
   12.2020    1.1400    3.2770 C   0  0  0  0  0  3  0  0  0  0  0  0
   11.2120    2.1230    3.3130 C   0  0  0  0  0  3  0  0  0  0  0  0
   10.2040    2.1050    4.2900 C   0  0  0  0  0  0  0  0  0  0  0  0
   10.1640    1.0400    5.2340 C   0  0  0  0  0  0  0  0  0  0  0  0
   11.1770    0.0640    5.1720 C   0  0  0  0  0  3  0  0  0  0  0  0
    9.1080    0.9260    6.2950 C   0  0  0  0  0  0  0  0  0  0  0  0
    9.5790    0.5210    7.6700 C   0  0  0  0  0  1  0  0  0  0  0  0
    7.8210    1.2220    5.9930 C   0  0  0  0  0  0  0  0  0  0  0  0
    7.3430    1.5640    4.6090 C   0  0  0  0  0  2  0  0  0  0  0  0
    7.8420    2.8960    4.2890 N   0  0  0  0  0  0  0  0  0  0  0  0
    9.1930    3.1850    4.2660 C   0  0  0  0  0  0  0  0  0  0  0  0
    9.3200    4.5720    4.3700 C   0  0  0  0  0  0  0  0  0  0  0  0
    7.9810    5.1140    4.4250 C   0  0  0  0  0  0  0  0  0  0  0  0
    7.4340    6.4060    4.6160 C   0  0  0  0  0  3  0  0  0  0  0  0
    6.0440    6.5890    4.6820 C   0  0  0  0  0  3  0  0  0  0  0  0
    5.1910    5.4990    4.5340 C   0  0  0  0  0  0  0  0  0  0  0  0
    5.6960    4.2140    4.3260 C   0  0  0  0  0  3  0  0  0  0  0  0
    7.0900    4.0460    4.3080 C   0  0  0  0  0  0  0  0  0  0  0  0
    3.7260    5.6100    4.7170 C   0  0  0  0  0  0  0  0  0  0  0  0
    2.9590    5.0400    3.9610 O   0  0  0  0  0  0  0  0  0  0  0  0
    3.3650    6.3210    5.8650 N   0  0  0  0  0  0  0  0  0  0  0  0
    1.8840    6.2960    6.5920 S   0  0  0  0  0  0  0  0  0  0  0  0
    2.0220    7.2160    7.7000 O   0  0  0  0  0  0  0  0  0  0  0  0
    0.8270    6.4310    5.6250 O   0  0  0  0  0  0  0  0  0  0  0  0
    1.9150    4.7210    7.2150 N   0  0  0  0  0  0  0  0  0  0  0  0
    1.2050    3.7020    6.4090 C   0  0  0  0  0  1  0  0  0  0  0  0
    1.6450    4.5770    8.6750 C   0  0  0  0  0  2  0  0  0  0  0  0
    2.9080    4.8310    9.5090 C   0  0  0  0  0  2  0  0  0  0  0  0
    3.7420    3.6720    9.6380 O   0  0  0  0  0  0  0  0  0  0  0  0
    4.5390    3.3930    8.4840 C   0  0  0  0  0  2  0  0  0  0  0  0
    5.6720    2.4430    8.8970 C   0  0  0  0  0  2  0  0  0  0  0  0
    6.7510    2.3520    7.9080 N   0  0  0  0  0  0  0  0  0  0  0  0
    7.7290    3.4380    7.9370 C   0  0  0  0  0  1  0  0  0  0  0  0
    6.7330    1.2970    7.0060 C   0  0  0  0  0  0  0  0  0  0  0  0
    5.8280    0.4670    6.9500 O   0  0  0  0  0  0  0  0  0  0  0  0
    4.0800    6.6220    6.5160 H   0  0  0  0  0  0  0  0  0  0  0  0
   10.6340    5.3100    4.5410 C   0  0  0  0  0  3  0  0  0  0  0  0
   10.5980    6.7940    4.1470 C   0  0  0  0  0  2  0  0  0  0  0  0
   11.9780    7.4370    4.2860 C   0  0  0  0  0  2  0  0  0  0  0  0
   12.5560    7.2380    5.6870 C   0  0  0  0  0  2  0  0  0  0  0  0
   12.5780    5.7660    6.0900 C   0  0  0  0  0  2  0  0  0  0  0  0
   11.1980    5.1260    5.9590 C   0  0  0  0  0  2  0  0  0  0  0  0
   12.5960   -2.1950    4.6310 C   0  0  0  0  0  1  0  0  0  0  0  0
   13.1000   -0.9100    4.2920 O   0  0  0  0  0  0  0  0  0  0  0  0
  1 45  1  0  0  0  0
  1  6  1  0  0  0  0
  2  3  1  0  0  0  0
  2  1  2  0  0  0  0
  3  4  2  0  0  0  0
  4  5  1  0  0  0  0
  5  7  1  0  0  0  0
  6  5  2  0  0  0  0
  7  8  1  0  0  0  0
  9  7  2  0  0  0  0
  9 35  1  0  0  0  0
 10  9  1  0  0  0  0
 11 19  1  0  0  0  0
 11 10  1  0  0  0  0
 12 11  1  0  0  0  0
 12  4  1  0  0  0  0
 12 13  2  0  0  0  0
 13 14  1  0  0  0  0
 13 38  1  0  0  0  0
 14 15  1  0  0  0  0
 15 16  2  0  0  0  0
 17 16  1  0  0  0  0
 17 20  1  0  0  0  0
 18 17  2  0  0  0  0
 19 18  1  0  0  0  0
 19 14  2  0  0  0  0
 20 22  1  0  0  0  0
 21 20  2  0  0  0  0
 22 37  1  0  0  0  0
 22 23  1  0  0  0  0
 23 26  1  0  0  0  0
 23 24  2  0  0  0  0
 25 23  2  0  0  0  0
 26 28  1  0  0  0  0
 27 26  1  0  0  0  0
 28 29  1  0  0  0  0
 29 30  1  0  0  0  0
 31 32  1  0  0  0  0
 31 30  1  0  0  0  0
 33 34  1  0  0  0  0
 33 32  1  0  0  0  0
 35 33  1  0  0  0  0
 36 35  2  0  0  0  0
 38 43  1  0  0  0  0
 39 40  1  0  0  0  0
 39 38  1  0  0  0  0
 40 41  1  0  0  0  0
 41 42  1  0  0  0  0
 43 42  1  0  0  0  0
 45 44  1  0  0  0  0
M  END
>  <minimizedAffinity>
-4.93028498

$$$$

 OpenBabel09082221113D

 45 50  0  0  0  0  0  0  0  0999 V2000
    4.6000   -2.2680    5.1170 C   0  0  0  0  0  0  0  0  0  0  0  0
    5.5640   -2.5220    4.1480 C   0  0  0  0  0  3  0  0  0  0  0  0
    6.6310   -1.6390    3.9770 C   0  0  0  0  0  3  0  0  0  0  0  0
    6.7640   -0.4950    4.7800 C   0  0  0  0  0  0  0  0  0  0  0  0
    5.7690   -0.2060    5.7550 C   0  0  0  0  0  0  0  0  0  0  0  0
    4.7050   -1.1150    5.9040 C   0  0  0  0  0  3  0  0  0  0  0  0
    5.8160    1.0080    6.6380 C   0  0  0  0  0  0  0  0  0  0  0  0
    5.4580    0.7980    8.0890 C   0  0  0  0  0  1  0  0  0  0  0  0
    6.2060    2.1970    6.1200 C   0  0  0  0  0  0  0  0  0  0  0  0
    6.5000    2.4200    4.6620 C   0  0  0  0  0  2  0  0  0  0  0  0
    7.7610    1.7490    4.3630 N   0  0  0  0  0  0  0  0  0  0  0  0
    7.9260    0.3890    4.5420 C   0  0  0  0  0  0  0  0  0  0  0  0
    9.3000    0.1450    4.5980 C   0  0  0  0  0  0  0  0  0  0  0  0
    9.9610    1.4170    4.4120 C   0  0  0  0  0  0  0  0  0  0  0  0
   11.3060    1.8580    4.4500 C   0  0  0  0  0  3  0  0  0  0  0  0
   11.6160    3.2170    4.2840 C   0  0  0  0  0  3  0  0  0  0  0  0
   10.5980    4.1400    4.0540 C   0  0  0  0  0  0  0  0  0  0  0  0
    9.2630    3.7360    3.9910 C   0  0  0  0  0  3  0  0  0  0  0  0
    8.9710    2.3800    4.2060 C   0  0  0  0  0  0  0  0  0  0  0  0
   10.8510    5.5970    3.9940 C   0  0  0  0  0  0  0  0  0  0  0  0
   10.3040    6.2890    3.1530 O   0  0  0  0  0  0  0  0  0  0  0  0
   11.6620    6.0600    5.0340 N   0  0  0  0  0  0  0  0  0  0  0  0
   11.8140    7.6310    5.5150 S   0  0  0  0  0  0  0  0  0  0  0  0
   12.7860    7.5770    6.5850 O   0  0  0  0  0  0  0  0  0  0  0  0
   11.9810    8.5080    4.3860 O   0  0  0  0  0  0  0  0  0  0  0  0
   10.2850    7.8510    6.2100 N   0  0  0  0  0  0  0  0  0  0  0  0
    9.2840    8.5240    5.3510 C   0  0  0  0  0  1  0  0  0  0  0  0
   10.2590    8.3570    7.6140 C   0  0  0  0  0  2  0  0  0  0  0  0
   10.4510    7.2200    8.6250 C   0  0  0  0  0  2  0  0  0  0  0  0
    9.2330    6.5330    8.9420 O   0  0  0  0  0  0  0  0  0  0  0  0
    8.8130    5.5980    7.9450 C   0  0  0  0  0  2  0  0  0  0  0  0
    7.7930    4.6410    8.5800 C   0  0  0  0  0  2  0  0  0  0  0  0
    7.5450    3.4360    7.7820 N   0  0  0  0  0  0  0  0  0  0  0  0
    8.5390    2.3730    7.9150 C   0  0  0  0  0  1  0  0  0  0  0  0
    6.4410    3.4160    6.9410 C   0  0  0  0  0  0  0  0  0  0  0  0
    5.6930    4.3790    6.7810 O   0  0  0  0  0  0  0  0  0  0  0  0
   11.9380    5.4290    5.7760 H   0  0  0  0  0  0  0  0  0  0  0  0
    9.9280   -1.1920    4.9420 C   0  0  0  0  0  3  0  0  0  0  0  0
   10.9380   -1.7150    3.9110 C   0  0  0  0  0  2  0  0  0  0  0  0
   11.4660   -3.0960    4.3050 C   0  0  0  0  0  2  0  0  0  0  0  0
   12.0480   -3.0970    5.7170 C   0  0  0  0  0  2  0  0  0  0  0  0
   11.0530   -2.5610    6.7430 C   0  0  0  0  0  2  0  0  0  0  0  0
   10.5320   -1.1800    6.3550 C   0  0  0  0  0  2  0  0  0  0  0  0
    2.5910   -2.5540    6.3560 C   0  0  0  0  0  1  0  0  0  0  0  0
    3.5100   -3.0480    5.3910 O   0  0  0  0  0  0  0  0  0  0  0  0
  1 45  1  0  0  0  0
  1  6  1  0  0  0  0
  2  1  2  0  0  0  0
  3  2  1  0  0  0  0
  3  4  2  0  0  0  0
  4  5  1  0  0  0  0
  5  6  2  0  0  0  0
  5  7  1  0  0  0  0
  7  8  1  0  0  0  0
  9  7  2  0  0  0  0
  9 35  1  0  0  0  0
 10  9  1  0  0  0  0
 11 12  1  0  0  0  0
 11 10  1  0  0  0  0
 12 13  2  0  0  0  0
 12  4  1  0  0  0  0
 13 38  1  0  0  0  0
 14 15  1  0  0  0  0
 14 13  1  0  0  0  0
 16 15  2  0  0  0  0
 17 16  1  0  0  0  0
 18 17  2  0  0  0  0
 18 19  1  0  0  0  0
 19 11  1  0  0  0  0
 19 14  2  0  0  0  0
 20 17  1  0  0  0  0
 20 22  1  0  0  0  0
 21 20  2  0  0  0  0
 22 23  1  0  0  0  0
 22 37  1  0  0  0  0
 23 26  1  0  0  0  0
 23 24  2  0  0  0  0
 25 23  2  0  0  0  0
 26 28  1  0  0  0  0
 27 26  1  0  0  0  0
 28 29  1  0  0  0  0
 29 30  1  0  0  0  0
 31 32  1  0  0  0  0
 31 30  1  0  0  0  0
 33 34  1  0  0  0  0
 33 32  1  0  0  0  0
 35 33  1  0  0  0  0
 36 35  2  0  0  0  0
 38 43  1  0  0  0  0
 39 40  1  0  0  0  0
 39 38  1  0  0  0  0
 40 41  1  0  0  0  0
 41 42  1  0  0  0  0
 43 42  1  0  0  0  0
 45 44  1  0  0  0  0
M  END
>  <minimizedAffinity>
-4.85764217

$$$$

 OpenBabel09082221113D

 45 50  0  0  0  0  0  0  0  0999 V2000
    1.6800    8.1700    7.0990 C   0  0  0  0  0  0  0  0  0  0  0  0
    2.5340    9.1480    6.6020 C   0  0  0  0  0  3  0  0  0  0  0  0
    3.7500    8.7810    6.0220 C   0  0  0  0  0  3  0  0  0  0  0  0
    4.1270    7.4330    5.9130 C   0  0  0  0  0  0  0  0  0  0  0  0
    3.2750    6.4240    6.4450 C   0  0  0  0  0  0  0  0  0  0  0  0
    2.0570    6.8250    7.0240 C   0  0  0  0  0  3  0  0  0  0  0  0
    3.6110    4.9610    6.3970 C   0  0  0  0  0  0  0  0  0  0  0  0
    2.4850    4.0250    6.0340 C   0  0  0  0  0  1  0  0  0  0  0  0
    4.8820    4.5580    6.6340 C   0  0  0  0  0  0  0  0  0  0  0  0
    5.9890    5.4840    7.0580 C   0  0  0  0  0  2  0  0  0  0  0  0
    6.3450    6.2990    5.9020 N   0  0  0  0  0  0  0  0  0  0  0  0
    5.4270    7.1240    5.2800 C   0  0  0  0  0  0  0  0  0  0  0  0
    5.9250    7.4050    4.0040 C   0  0  0  0  0  0  0  0  0  0  0  0
    7.2020    6.7370    3.8950 C   0  0  0  0  0  0  0  0  0  0  0  0
    8.1480    6.5550    2.8570 C   0  0  0  0  0  3  0  0  0  0  0  0
    9.2950    5.7740    3.0660 C   0  0  0  0  0  3  0  0  0  0  0  0
    9.5230    5.1920    4.3100 C   0  0  0  0  0  0  0  0  0  0  0  0
    8.6210    5.3660    5.3620 C   0  0  0  0  0  3  0  0  0  0  0  0
    7.4570    6.1130    5.1180 C   0  0  0  0  0  0  0  0  0  0  0  0
   10.6480    4.2610    4.5540 C   0  0  0  0  0  0  0  0  0  0  0  0
   11.3000    4.3270    5.5810 O   0  0  0  0  0  0  0  0  0  0  0  0
   10.7820    3.2860    3.5610 N   0  0  0  0  0  0  0  0  0  0  0  0
   11.6310    1.8780    3.6980 S   0  0  0  0  0  0  0  0  0  0  0  0
   11.4870    1.2550    2.4000 O   0  0  0  0  0  0  0  0  0  0  0  0
   12.9240    2.1040    4.2890 O   0  0  0  0  0  0  0  0  0  0  0  0
   10.6220    1.0580    4.7840 N   0  0  0  0  0  0  0  0  0  0  0  0
   11.0440    1.1010    6.2030 C   0  0  0  0  0  1  0  0  0  0  0  0
   10.1620   -0.3000    4.3710 C   0  0  0  0  0  2  0  0  0  0  0  0
    8.9430   -0.2220    3.4430 C   0  0  0  0  0  2  0  0  0  0  0  0
    7.7010   -0.1120    4.1500 O   0  0  0  0  0  0  0  0  0  0  0  0
    7.4250    1.1990    4.6490 C   0  0  0  0  0  2  0  0  0  0  0  0
    5.9270    1.2890    4.9730 C   0  0  0  0  0  2  0  0  0  0  0  0
    5.4490    2.6620    5.1600 N   0  0  0  0  0  0  0  0  0  0  0  0
    5.1700    3.4080    3.9340 C   0  0  0  0  0  1  0  0  0  0  0  0
    5.3500    3.1570    6.4530 C   0  0  0  0  0  0  0  0  0  0  0  0
    5.7010    2.5270    7.4490 O   0  0  0  0  0  0  0  0  0  0  0  0
   10.0900    3.2180    2.8250 H   0  0  0  0  0  0  0  0  0  0  0  0
    5.1640    8.1470    2.9230 C   0  0  0  0  0  3  0  0  0  0  0  0
    3.7390    7.6350    2.6690 C   0  0  0  0  0  2  0  0  0  0  0  0
    3.0750    8.3940    1.5200 C   0  0  0  0  0  2  0  0  0  0  0  0
    3.0990    9.9040    1.7510 C   0  0  0  0  0  2  0  0  0  0  0  0
    4.5120   10.4160    2.0210 C   0  0  0  0  0  2  0  0  0  0  0  0
    5.1720    9.6640    3.1730 C   0  0  0  0  0  2  0  0  0  0  0  0
   -0.4290    7.2850    7.7500 C   0  0  0  0  0  1  0  0  0  0  0  0
    0.4640    8.3890    7.6860 O   0  0  0  0  0  0  0  0  0  0  0  0
  1 45  1  0  0  0  0
  2  1  2  0  0  0  0
  3  2  1  0  0  0  0
  4  3  2  0  0  0  0
  4  5  1  0  0  0  0
  5  6  2  0  0  0  0
  6  1  1  0  0  0  0
  7  5  1  0  0  0  0
  7  9  2  0  0  0  0
  8  7  1  0  0  0  0
  9 10  1  0  0  0  0
 11 10  1  0  0  0  0
 12 11  1  0  0  0  0
 12  4  1  0  0  0  0
 13 12  2  0  0  0  0
 14 13  1  0  0  0  0
 14 19  1  0  0  0  0
 15 16  1  0  0  0  0
 15 14  2  0  0  0  0
 16 17  2  0  0  0  0
 17 20  1  0  0  0  0
 17 18  1  0  0  0  0
 19 18  2  0  0  0  0
 19 11  1  0  0  0  0
 20 21  2  0  0  0  0
 22 23  1  0  0  0  0
 22 20  1  0  0  0  0
 23 25  2  0  0  0  0
 23 26  1  0  0  0  0
 24 23  2  0  0  0  0
 26 27  1  0  0  0  0
 28 26  1  0  0  0  0
 29 30  1  0  0  0  0
 29 28  1  0  0  0  0
 30 31  1  0  0  0  0
 31 32  1  0  0  0  0
 32 33  1  0  0  0  0
 33 35  1  0  0  0  0
 34 33  1  0  0  0  0
 35  9  1  0  0  0  0
 35 36  2  0  0  0  0
 37 22  1  0  0  0  0
 38 43  1  0  0  0  0
 38 13  1  0  0  0  0
 39 38  1  0  0  0  0
 40 41  1  0  0  0  0
 40 39  1  0  0  0  0
 41 42  1  0  0  0  0
 42 43  1  0  0  0  0
 45 44  1  0  0  0  0
M  END
>  <minimizedAffinity>
-4.80432463

$$$$

 OpenBabel09082221113D

 45 50  0  0  0  0  0  0  0  0999 V2000
    2.5650    7.9180    8.6000 C   0  0  0  0  0  0  0  0  0  0  0  0
    3.4290    8.9070    8.1440 C   0  0  0  0  0  3  0  0  0  0  0  0
    4.5590    8.5590    7.4030 C   0  0  0  0  0  3  0  0  0  0  0  0
    4.8400    7.2190    7.0910 C   0  0  0  0  0  0  0  0  0  0  0  0
    3.9810    6.1940    7.5780 C   0  0  0  0  0  0  0  0  0  0  0  0
    2.8500    6.5760    8.3220 C   0  0  0  0  0  3  0  0  0  0  0  0
    4.2200    4.7340    7.3160 C   0  0  0  0  0  0  0  0  0  0  0  0
    3.0080    3.9090    6.9560 C   0  0  0  0  0  1  0  0  0  0  0  0
    5.4800    4.2410    7.3720 C   0  0  0  0  0  0  0  0  0  0  0  0
    6.6770    5.0490    7.7940 C   0  0  0  0  0  2  0  0  0  0  0  0
    6.9720    5.9880    6.7170 N   0  0  0  0  0  0  0  0  0  0  0  0
    6.0540    6.9300    6.2970 C   0  0  0  0  0  0  0  0  0  0  0  0
    6.4460    7.3480    5.0220 C   0  0  0  0  0  0  0  0  0  0  0  0
    7.6630    6.6370    4.7030 C   0  0  0  0  0  0  0  0  0  0  0  0
    8.4940    6.5440    3.5600 C   0  0  0  0  0  3  0  0  0  0  0  0
    9.6050    5.6870    3.5540 C   0  0  0  0  0  3  0  0  0  0  0  0
    9.9130    4.9380    4.6880 C   0  0  0  0  0  0  0  0  0  0  0  0
    9.1260    5.0200    5.8380 C   0  0  0  0  0  3  0  0  0  0  0  0
    7.9930    5.8490    5.8070 C   0  0  0  0  0  0  0  0  0  0  0  0
   10.9950    3.9290    4.6990 C   0  0  0  0  0  0  0  0  0  0  0  0
   11.7440    3.8300    5.6560 O   0  0  0  0  0  0  0  0  0  0  0  0
   10.9750    3.0850    3.5860 N   0  0  0  0  0  0  0  0  0  0  0  0
   11.7440    1.6300    3.4610 S   0  0  0  0  0  0  0  0  0  0  0  0
   11.4410    1.1880    2.1180 O   0  0  0  0  0  0  0  0  0  0  0  0
   13.0980    1.7140    3.9420 O   0  0  0  0  0  0  0  0  0  0  0  0
   10.7930    0.7280    4.5340 N   0  0  0  0  0  0  0  0  0  0  0  0
   11.3480    0.5670    5.8980 C   0  0  0  0  0  1  0  0  0  0  0  0
   10.2130   -0.5400    4.0050 C   0  0  0  0  0  2  0  0  0  0  0  0
    8.9190   -0.2830    3.2220 C   0  0  0  0  0  2  0  0  0  0  0  0
    7.7580   -0.2040    4.0590 O   0  0  0  0  0  0  0  0  0  0  0  0
    7.6120    1.0440    4.7410 C   0  0  0  0  0  2  0  0  0  0  0  0
    6.1600    1.1660    5.2230 C   0  0  0  0  0  2  0  0  0  0  0  0
    5.7870    2.5260    5.6250 N   0  0  0  0  0  0  0  0  0  0  0  0
    5.4410    3.4370    4.5350 C   0  0  0  0  0  1  0  0  0  0  0  0
    5.8410    2.8540    6.9730 C   0  0  0  0  0  0  0  0  0  0  0  0
    6.2440    2.0840    7.8430 O   0  0  0  0  0  0  0  0  0  0  0  0
   10.2140    3.1470    2.9210 H   0  0  0  0  0  0  0  0  0  0  0  0
    5.6340    8.2600    4.1240 C   0  0  0  0  0  3  0  0  0  0  0  0
    6.3700    9.5210    3.6480 C   0  0  0  0  0  2  0  0  0  0  0  0
    5.4550   10.4110    2.8070 C   0  0  0  0  0  2  0  0  0  0  0  0
    4.8350    9.6450    1.6400 C   0  0  0  0  0  2  0  0  0  0  0  0
    4.1160    8.3820    2.1060 C   0  0  0  0  0  2  0  0  0  0  0  0
    5.0320    7.4880    2.9390 C   0  0  0  0  0  2  0  0  0  0  0  0
    0.1880    7.9110    8.6620 C   0  0  0  0  0  1  0  0  0  0  0  0
    1.4260    8.1190    9.3300 O   0  0  0  0  0  0  0  0  0  0  0  0
  1 45  1  0  0  0  0
  2  1  2  0  0  0  0
  3  2  1  0  0  0  0
  4  3  2  0  0  0  0
  4  5  1  0  0  0  0
  5  6  2  0  0  0  0
  6  1  1  0  0  0  0
  7  9  2  0  0  0  0
  7  5  1  0  0  0  0
  8  7  1  0  0  0  0
  9 10  1  0  0  0  0
 11 10  1  0  0  0  0
 12 11  1  0  0  0  0
 12  4  1  0  0  0  0
 13 12  2  0  0  0  0
 14 13  1  0  0  0  0
 14 19  1  0  0  0  0
 15 14  2  0  0  0  0
 16 15  1  0  0  0  0
 16 17  2  0  0  0  0
 17 20  1  0  0  0  0
 17 18  1  0  0  0  0
 19 18  2  0  0  0  0
 19 11  1  0  0  0  0
 20 21  2  0  0  0  0
 22 20  1  0  0  0  0
 23 22  1  0  0  0  0
 23 25  2  0  0  0  0
 23 26  1  0  0  0  0
 24 23  2  0  0  0  0
 26 27  1  0  0  0  0
 28 26  1  0  0  0  0
 29 28  1  0  0  0  0
 29 30  1  0  0  0  0
 30 31  1  0  0  0  0
 31 32  1  0  0  0  0
 32 33  1  0  0  0  0
 33 35  1  0  0  0  0
 34 33  1  0  0  0  0
 35  9  1  0  0  0  0
 35 36  2  0  0  0  0
 37 22  1  0  0  0  0
 38 13  1  0  0  0  0
 39 38  1  0  0  0  0
 40 39  1  0  0  0  0
 41 42  1  0  0  0  0
 41 40  1  0  0  0  0
 42 43  1  0  0  0  0
 43 38  1  0  0  0  0
 44 45  1  0  0  0  0
M  END
>  <minimizedAffinity>
-4.70262098

$$$$

 OpenBabel09082221113D

 45 50  0  0  0  0  0  0  0  0999 V2000
   11.5720    1.2100    5.2920 C   0  0  0  0  0  0  0  0  0  0  0  0
   11.9860    2.0290    4.2480 C   0  0  0  0  0  3  0  0  0  0  0  0
   11.2310    3.1490    3.8990 C   0  0  0  0  0  3  0  0  0  0  0  0
   10.0570    3.4810    4.5950 C   0  0  0  0  0  0  0  0  0  0  0  0
    9.6050    2.6350    5.6460 C   0  0  0  0  0  0  0  0  0  0  0  0
   10.3880    1.5130    5.9750 C   0  0  0  0  0  3  0  0  0  0  0  0
    8.3480    2.8980    6.4250 C   0  0  0  0  0  0  0  0  0  0  0  0
    8.4260    2.6880    7.9170 C   0  0  0  0  0  1  0  0  0  0  0  0
    7.2410    3.3380    5.7800 C   0  0  0  0  0  0  0  0  0  0  0  0
    7.1450    3.4850    4.2860 C   0  0  0  0  0  2  0  0  0  0  0  0
    7.9590    4.6340    3.9060 N   0  0  0  0  0  0  0  0  0  0  0  0
    9.3150    4.6880    4.1690 C   0  0  0  0  0  0  0  0  0  0  0  0
    9.6950    6.0300    4.0960 C   0  0  0  0  0  0  0  0  0  0  0  0
    8.5130    6.7840    3.7460 C   0  0  0  0  0  0  0  0  0  0  0  0
    8.2120    8.1610    3.6070 C   0  0  0  0  0  3  0  0  0  0  0  0
    6.9060    8.5780    3.3080 C   0  0  0  0  0  3  0  0  0  0  0  0
    5.9000    7.6340    3.1180 C   0  0  0  0  0  0  0  0  0  0  0  0
    6.1660    6.2680    3.2280 C   0  0  0  0  0  3  0  0  0  0  0  0
    7.4690    5.8740    3.5740 C   0  0  0  0  0  0  0  0  0  0  0  0
    4.4830    8.0160    2.9230 C   0  0  0  0  0  0  0  0  0  0  0  0
    3.7930    7.4470    2.0950 O   0  0  0  0  0  0  0  0  0  0  0  0
    4.0410    8.9800    3.8320 N   0  0  0  0  0  0  0  0  0  0  0  0
    2.4660    9.3350    4.1750 S   0  0  0  0  0  0  0  0  0  0  0  0
    2.5510   10.4130    5.1360 O   0  0  0  0  0  0  0  0  0  0  0  0
    1.6850    9.4560    2.9710 O   0  0  0  0  0  0  0  0  0  0  0  0
    2.0440    7.9230    5.0100 N   0  0  0  0  0  0  0  0  0  0  0  0
    1.3280    6.9000    4.2140 C   0  0  0  0  0  1  0  0  0  0  0  0
    1.4500    8.1040    6.3660 C   0  0  0  0  0  2  0  0  0  0  0  0
    2.5330    8.3000    7.4340 C   0  0  0  0  0  2  0  0  0  0  0  0
    3.0690    7.0660    7.9290 O   0  0  0  0  0  0  0  0  0  0  0  0
    4.0170    6.4480    7.0570 C   0  0  0  0  0  2  0  0  0  0  0  0
    4.8210    5.4200    7.8660 C   0  0  0  0  0  2  0  0  0  0  0  0
    6.0430    4.9690    7.1920 N   0  0  0  0  0  0  0  0  0  0  0  0
    7.1930    5.8660    7.2980 C   0  0  0  0  0  1  0  0  0  0  0  0
    6.0030    3.7800    6.4770 C   0  0  0  0  0  0  0  0  0  0  0  0
    4.9800    3.1140    6.3250 O   0  0  0  0  0  0  0  0  0  0  0  0
    4.6480    9.2770    4.5860 H   0  0  0  0  0  0  0  0  0  0  0  0
   11.0650    6.5620    4.4710 C   0  0  0  0  0  3  0  0  0  0  0  0
   11.3000    8.0400    4.1290 C   0  0  0  0  0  2  0  0  0  0  0  0
   12.7260    8.4690    4.4790 C   0  0  0  0  0  2  0  0  0  0  0  0
   13.0670    8.1650    5.9360 C   0  0  0  0  0  2  0  0  0  0  0  0
   12.8190    6.7000    6.2850 C   0  0  0  0  0  2  0  0  0  0  0  0
   11.3940    6.2740    5.9450 C   0  0  0  0  0  2  0  0  0  0  0  0
   12.6980   -0.8130    4.7510 C   0  0  0  0  0  1  0  0  0  0  0  0
   12.2160    0.0890    5.7390 O   0  0  0  0  0  0  0  0  0  0  0  0
  1 45  1  0  0  0  0
  1  6  1  0  0  0  0
  2  1  2  0  0  0  0
  3  2  1  0  0  0  0
  3  4  2  0  0  0  0
  4  5  1  0  0  0  0
  5  6  2  0  0  0  0
  5  7  1  0  0  0  0
  7  8  1  0  0  0  0
  9  7  2  0  0  0  0
  9 35  1  0  0  0  0
 10  9  1  0  0  0  0
 11 12  1  0  0  0  0
 11 10  1  0  0  0  0
 12  4  1  0  0  0  0
 13 12  2  0  0  0  0
 13 38  1  0  0  0  0
 14 13  1  0  0  0  0
 15 14  1  0  0  0  0
 16 15  2  0  0  0  0
 17 18  2  0  0  0  0
 17 16  1  0  0  0  0
 18 19  1  0  0  0  0
 19 14  2  0  0  0  0
 19 11  1  0  0  0  0
 20 17  1  0  0  0  0
 20 22  1  0  0  0  0
 21 20  2  0  0  0  0
 22 23  1  0  0  0  0
 22 37  1  0  0  0  0
 23 26  1  0  0  0  0
 23 24  2  0  0  0  0
 25 23  2  0  0  0  0
 26 28  1  0  0  0  0
 27 26  1  0  0  0  0
 28 29  1  0  0  0  0
 29 30  1  0  0  0  0
 31 32  1  0  0  0  0
 31 30  1  0  0  0  0
 33 34  1  0  0  0  0
 33 32  1  0  0  0  0
 35 33  1  0  0  0  0
 36 35  2  0  0  0  0
 38 43  1  0  0  0  0
 39 38  1  0  0  0  0
 39 40  1  0  0  0  0
 40 41  1  0  0  0  0
 41 42  1  0  0  0  0
 43 42  1  0  0  0  0
 44 45  1  0  0  0  0
M  END
>  <minimizedAffinity>
-4.58126783

$$$$

 OpenBabel09082221113D

 45 50  0  0  0  0  0  0  0  0999 V2000
    6.3680   -1.6750    2.2040 C   0  0  0  0  0  0  0  0  0  0  0  0
    7.6750   -1.7250    1.7310 C   0  0  0  0  0  3  0  0  0  0  0  0
    8.6690   -0.9670    2.3520 C   0  0  0  0  0  3  0  0  0  0  0  0
    8.3820   -0.1590    3.4630 C   0  0  0  0  0  0  0  0  0  0  0  0
    7.0430   -0.0750    3.9380 C   0  0  0  0  0  0  0  0  0  0  0  0
    6.0620   -0.8500    3.2920 C   0  0  0  0  0  3  0  0  0  0  0  0
    6.6410    0.7850    5.1020 C   0  0  0  0  0  0  0  0  0  0  0  0
    5.6740    0.1730    6.0860 C   0  0  0  0  0  1  0  0  0  0  0  0
    7.1770    2.0210    5.2390 C   0  0  0  0  0  0  0  0  0  0  0  0
    8.0900    2.6540    4.2250 C   0  0  0  0  0  2  0  0  0  0  0  0
    9.3740    1.9660    4.3020 N   0  0  0  0  0  0  0  0  0  0  0  0
    9.4910    0.6090    4.0690 C   0  0  0  0  0  0  0  0  0  0  0  0
   10.7010    0.1970    4.6350 C   0  0  0  0  0  0  0  0  0  0  0  0
   11.3260    1.3740    5.1940 C   0  0  0  0  0  0  0  0  0  0  0  0
   12.4910    1.6160    5.9630 C   0  0  0  0  0  3  0  0  0  0  0  0
   12.7900    2.9110    6.4150 C   0  0  0  0  0  3  0  0  0  0  0  0
   11.9530    3.9740    6.0870 C   0  0  0  0  0  0  0  0  0  0  0  0
   10.8060    3.7740    5.3150 C   0  0  0  0  0  3  0  0  0  0  0  0
   10.5000    2.4640    4.9120 C   0  0  0  0  0  0  0  0  0  0  0  0
   12.1500    5.3350    6.6350 C   0  0  0  0  0  0  0  0  0  0  0  0
   12.0170    6.3170    5.9260 O   0  0  0  0  0  0  0  0  0  0  0  0
   12.3850    5.3460    8.0120 N   0  0  0  0  0  0  0  0  0  0  0  0
   12.2440    6.6550    9.0060 S   0  0  0  0  0  0  0  0  0  0  0  0
   12.6290    6.1510   10.3070 O   0  0  0  0  0  0  0  0  0  0  0  0
   12.8700    7.8160    8.4310 O   0  0  0  0  0  0  0  0  0  0  0  0
   10.5590    6.8270    8.9920 N   0  0  0  0  0  0  0  0  0  0  0  0
   10.0300    7.8510    8.0620 C   0  0  0  0  0  1  0  0  0  0  0  0
    9.8820    6.8640   10.3200 C   0  0  0  0  0  2  0  0  0  0  0  0
    9.6390    5.4520   10.8680 C   0  0  0  0  0  2  0  0  0  0  0  0
    8.4360    4.8520   10.3700 O   0  0  0  0  0  0  0  0  0  0  0  0
    8.5470    4.3360    9.0410 C   0  0  0  0  0  2  0  0  0  0  0  0
    7.3880    3.3570    8.8040 C   0  0  0  0  0  2  0  0  0  0  0  0
    7.5730    2.5030    7.6260 N   0  0  0  0  0  0  0  0  0  0  0  0
    8.4390    1.3410    7.8160 C   0  0  0  0  0  1  0  0  0  0  0  0
    6.9700    2.8820    6.4340 C   0  0  0  0  0  0  0  0  0  0  0  0
    6.3390    3.9290    6.2960 O   0  0  0  0  0  0  0  0  0  0  0  0
   12.3200    4.4850    8.5410 H   0  0  0  0  0  0  0  0  0  0  0  0
   11.1550   -1.2450    4.7490 C   0  0  0  0  0  3  0  0  0  0  0  0
   12.6100   -1.4990    4.3300 C   0  0  0  0  0  2  0  0  0  0  0  0
   12.9580   -2.9860    4.4120 C   0  0  0  0  0  2  0  0  0  0  0  0
   12.6590   -3.5620    5.7950 C   0  0  0  0  0  2  0  0  0  0  0  0
   11.2180   -3.2970    6.2220 C   0  0  0  0  0  2  0  0  0  0  0  0
   10.8730   -1.8120    6.1490 C   0  0  0  0  0  2  0  0  0  0  0  0
    5.5660   -3.2530    0.6160 C   0  0  0  0  0  1  0  0  0  0  0  0
    5.3020   -2.3650    1.6950 O   0  0  0  0  0  0  0  0  0  0  0  0
  1  6  1  0  0  0  0
  2  1  2  0  0  0  0
  2  3  1  0  0  0  0
  3  4  2  0  0  0  0
  4  5  1  0  0  0  0
  4 12  1  0  0  0  0
  5  7  1  0  0  0  0
  6  5  2  0  0  0  0
  7  9  2  0  0  0  0
  7  8  1  0  0  0  0
  9 35  1  0  0  0  0
 10 11  1  0  0  0  0
 10  9  1  0  0  0  0
 11 19  1  0  0  0  0
 12 11  1  0  0  0  0
 12 13  2  0  0  0  0
 13 38  1  0  0  0  0
 13 14  1  0  0  0  0
 14 15  1  0  0  0  0
 15 16  2  0  0  0  0
 17 16  1  0  0  0  0
 17 20  1  0  0  0  0
 18 17  2  0  0  0  0
 19 14  2  0  0  0  0
 19 18  1  0  0  0  0
 20 22  1  0  0  0  0
 21 20  2  0  0  0  0
 22 37  1  0  0  0  0
 22 23  1  0  0  0  0
 23 24  2  0  0  0  0
 25 23  2  0  0  0  0
 26 23  1  0  0  0  0
 26 28  1  0  0  0  0
 27 26  1  0  0  0  0
 28 29  1  0  0  0  0
 30 29  1  0  0  0  0
 31 30  1  0  0  0  0
 32 31  1  0  0  0  0
 33 34  1  0  0  0  0
 33 32  1  0  0  0  0
 35 33  1  0  0  0  0
 36 35  2  0  0  0  0
 38 43  1  0  0  0  0
 39 40  1  0  0  0  0
 39 38  1  0  0  0  0
 40 41  1  0  0  0  0
 41 42  1  0  0  0  0
 43 42  1  0  0  0  0
 44 45  1  0  0  0  0
 45  1  1  0  0  0  0
M  END
>  <minimizedAffinity>
-4.54583883

$$$$
