
 OpenBabel09092210413D

 45 50  0  0  0  0  0  0  0  0999 V2000
   11.0980    8.6010    4.2800 C   0  0  0  0  0  0  0  0  0  0  0  0
    9.8870    8.4390    3.6170 C   0  0  0  0  0  3  0  0  0  0  0  0
    9.2300    7.2080    3.6570 C   0  0  0  0  0  3  0  0  0  0  0  0
    9.7620    6.1220    4.3700 C   0  0  0  0  0  0  0  0  0  0  0  0
   11.0160    6.2650    5.0270 C   0  0  0  0  0  0  0  0  0  0  0  0
   11.6540    7.5180    4.9690 C   0  0  0  0  0  3  0  0  0  0  0  0
   11.6710    5.1490    5.7900 C   0  0  0  0  0  0  0  0  0  0  0  0
   12.3010    5.5180    7.1110 C   0  0  0  0  0  1  0  0  0  0  0  0
   11.6360    3.8890    5.2950 C   0  0  0  0  0  0  0  0  0  0  0  0
   11.0650    3.5330    3.9490 C   0  0  0  0  0  2  0  0  0  0  0  0
    9.6150    3.6580    4.0430 N   0  0  0  0  0  0  0  0  0  0  0  0
    9.0030    4.8520    4.3690 C   0  0  0  0  0  0  0  0  0  0  0  0
    7.7090    4.5480    4.7990 C   0  0  0  0  0  0  0  0  0  0  0  0
    7.5540    3.1160    4.6870 C   0  0  0  0  0  0  0  0  0  0  0  0
    6.5400    2.1900    5.0360 C   0  0  0  0  0  3  0  0  0  0  0  0
    6.7350    0.8140    4.8450 C   0  0  0  0  0  3  0  0  0  0  0  0
    7.9220    0.3500    4.2840 C   0  0  0  0  0  0  0  0  0  0  0  0
    8.9350    1.2360    3.9110 C   0  0  0  0  0  3  0  0  0  0  0  0
    8.7390    2.6050    4.1530 C   0  0  0  0  0  0  0  0  0  0  0  0
    8.2340   -1.0930    4.1730 C   0  0  0  0  0  0  0  0  0  0  0  0
    8.7520   -1.5420    3.1650 O   0  0  0  0  0  0  0  0  0  0  0  0
    7.9720   -1.8060    5.3450 N   0  0  0  0  0  0  0  0  0  0  0  0
    8.5610   -3.3020    5.7190 S   0  0  0  0  0  0  0  0  0  0  0  0
    7.9690   -3.6000    7.0050 O   0  0  0  0  0  0  0  0  0  0  0  0
    8.4390   -4.2030    4.6040 O   0  0  0  0  0  0  0  0  0  0  0  0
   10.1860   -2.8970    5.9740 N   0  0  0  0  0  0  0  0  0  0  0  0
   11.0940   -3.1530    4.8330 C   0  0  0  0  0  1  0  0  0  0  0  0
   10.7800   -3.3180    7.2760 C   0  0  0  0  0  2  0  0  0  0  0  0
   10.4540   -2.3180    8.3930 C   0  0  0  0  0  2  0  0  0  0  0  0
   11.3580   -1.2060    8.4390 O   0  0  0  0  0  0  0  0  0  0  0  0
   11.1070   -0.2070    7.4470 C   0  0  0  0  0  2  0  0  0  0  0  0
   11.8200    1.0850    7.8720 C   0  0  0  0  0  2  0  0  0  0  0  0
   11.3680    2.2720    7.1390 N   0  0  0  0  0  0  0  0  0  0  0  0
   10.1220    2.8720    7.6120 C   0  0  0  0  0  1  0  0  0  0  0  0
   12.1110    2.6950    6.0450 C   0  0  0  0  0  0  0  0  0  0  0  0
   13.0940    2.0920    5.6190 O   0  0  0  0  0  0  0  0  0  0  0  0
    7.6890   -1.3130    6.1830 H   0  0  0  0  0  0  0  0  0  0  0  0
    6.7400    5.5480    5.4020 C   0  0  0  0  0  3  0  0  0  0  0  0
    5.3690    5.6130    4.7150 C   0  0  0  0  0  2  0  0  0  0  0  0
    4.4870    6.6930    5.3440 C   0  0  0  0  0  2  0  0  0  0  0  0
    4.3540    6.5060    6.8550 C   0  0  0  0  0  2  0  0  0  0  0  0
    5.7150    6.4230    7.5400 C   0  0  0  0  0  2  0  0  0  0  0  0
    6.5930    5.3400    6.9180 C   0  0  0  0  0  2  0  0  0  0  0  0
   11.9210   10.4160    5.5780 C   0  0  0  0  0  1  0  0  0  0  0  0
   11.8430    9.7480    4.3250 O   0  0  0  0  0  0  0  0  0  0  0  0
  1 45  1  0  0  0  0
  1  6  1  0  0  0  0
  2  3  1  0  0  0  0
  2  1  2  0  0  0  0
  3  4  2  0  0  0  0
  4  5  1  0  0  0  0
  5  7  1  0  0  0  0
  6  5  2  0  0  0  0
  7  8  1  0  0  0  0
  9  7  2  0  0  0  0
  9 35  1  0  0  0  0
 10 11  1  0  0  0  0
 10  9  1  0  0  0  0
 11 19  1  0  0  0  0
 11 12  1  0  0  0  0
 12  4  1  0  0  0  0
 12 13  2  0  0  0  0
 13 38  1  0  0  0  0
 14 13  1  0  0  0  0
 14 15  1  0  0  0  0
 16 15  2  0  0  0  0
 17 16  1  0  0  0  0
 18 19  1  0  0  0  0
 18 17  2  0  0  0  0
 19 14  2  0  0  0  0
 20 17  1  0  0  0  0
 20 22  1  0  0  0  0
 21 20  2  0  0  0  0
 22 23  1  0  0  0  0
 22 37  1  0  0  0  0
 23 26  1  0  0  0  0
 23 24  2  0  0  0  0
 25 23  2  0  0  0  0
 26 28  1  0  0  0  0
 27 26  1  0  0  0  0
 28 29  1  0  0  0  0
 29 30  1  0  0  0  0
 31 32  1  0  0  0  0
 31 30  1  0  0  0  0
 33 34  1  0  0  0  0
 33 32  1  0  0  0  0
 35 33  1  0  0  0  0
 36 35  2  0  0  0  0
 38 43  1  0  0  0  0
 39 40  1  0  0  0  0
 39 38  1  0  0  0  0
 40 41  1  0  0  0  0
 41 42  1  0  0  0  0
 43 42  1  0  0  0  0
 45 44  1  0  0  0  0
M  END
>  <minimizedAffinity>
-5.19899559

$$$$
