
 OpenBabel09092210413D

 45 50  0  0  0  0  0  0  0  0999 V2000
    1.6800    8.1700    7.0990 C   0  0  0  0  0  0  0  0  0  0  0  0
    2.5340    9.1480    6.6020 C   0  0  0  0  0  3  0  0  0  0  0  0
    3.7500    8.7810    6.0220 C   0  0  0  0  0  3  0  0  0  0  0  0
    4.1270    7.4330    5.9130 C   0  0  0  0  0  0  0  0  0  0  0  0
    3.2750    6.4240    6.4450 C   0  0  0  0  0  0  0  0  0  0  0  0
    2.0570    6.8250    7.0240 C   0  0  0  0  0  3  0  0  0  0  0  0
    3.6110    4.9610    6.3970 C   0  0  0  0  0  0  0  0  0  0  0  0
    2.4850    4.0250    6.0340 C   0  0  0  0  0  1  0  0  0  0  0  0
    4.8820    4.5580    6.6340 C   0  0  0  0  0  0  0  0  0  0  0  0
    5.9890    5.4840    7.0580 C   0  0  0  0  0  2  0  0  0  0  0  0
    6.3450    6.2990    5.9020 N   0  0  0  0  0  0  0  0  0  0  0  0
    5.4270    7.1240    5.2800 C   0  0  0  0  0  0  0  0  0  0  0  0
    5.9250    7.4050    4.0040 C   0  0  0  0  0  0  0  0  0  0  0  0
    7.2020    6.7370    3.8950 C   0  0  0  0  0  0  0  0  0  0  0  0
    8.1480    6.5550    2.8570 C   0  0  0  0  0  3  0  0  0  0  0  0
    9.2950    5.7740    3.0660 C   0  0  0  0  0  3  0  0  0  0  0  0
    9.5230    5.1920    4.3100 C   0  0  0  0  0  0  0  0  0  0  0  0
    8.6210    5.3660    5.3620 C   0  0  0  0  0  3  0  0  0  0  0  0
    7.4570    6.1130    5.1180 C   0  0  0  0  0  0  0  0  0  0  0  0
   10.6480    4.2610    4.5540 C   0  0  0  0  0  0  0  0  0  0  0  0
   11.3000    4.3270    5.5810 O   0  0  0  0  0  0  0  0  0  0  0  0
   10.7820    3.2860    3.5610 N   0  0  0  0  0  0  0  0  0  0  0  0
   11.6310    1.8780    3.6980 S   0  0  0  0  0  0  0  0  0  0  0  0
   11.4870    1.2550    2.4000 O   0  0  0  0  0  0  0  0  0  0  0  0
   12.9240    2.1040    4.2890 O   0  0  0  0  0  0  0  0  0  0  0  0
   10.6220    1.0580    4.7840 N   0  0  0  0  0  0  0  0  0  0  0  0
   11.0440    1.1010    6.2030 C   0  0  0  0  0  1  0  0  0  0  0  0
   10.1620   -0.3000    4.3710 C   0  0  0  0  0  2  0  0  0  0  0  0
    8.9430   -0.2220    3.4430 C   0  0  0  0  0  2  0  0  0  0  0  0
    7.7010   -0.1120    4.1500 O   0  0  0  0  0  0  0  0  0  0  0  0
    7.4250    1.1990    4.6490 C   0  0  0  0  0  2  0  0  0  0  0  0
    5.9270    1.2890    4.9730 C   0  0  0  0  0  2  0  0  0  0  0  0
    5.4490    2.6620    5.1600 N   0  0  0  0  0  0  0  0  0  0  0  0
    5.1700    3.4080    3.9340 C   0  0  0  0  0  1  0  0  0  0  0  0
    5.3500    3.1570    6.4530 C   0  0  0  0  0  0  0  0  0  0  0  0
    5.7010    2.5270    7.4490 O   0  0  0  0  0  0  0  0  0  0  0  0
   10.0900    3.2180    2.8250 H   0  0  0  0  0  0  0  0  0  0  0  0
    5.1640    8.1470    2.9230 C   0  0  0  0  0  3  0  0  0  0  0  0
    3.7390    7.6350    2.6690 C   0  0  0  0  0  2  0  0  0  0  0  0
    3.0750    8.3940    1.5200 C   0  0  0  0  0  2  0  0  0  0  0  0
    3.0990    9.9040    1.7510 C   0  0  0  0  0  2  0  0  0  0  0  0
    4.5120   10.4160    2.0210 C   0  0  0  0  0  2  0  0  0  0  0  0
    5.1720    9.6640    3.1730 C   0  0  0  0  0  2  0  0  0  0  0  0
   -0.4290    7.2850    7.7500 C   0  0  0  0  0  1  0  0  0  0  0  0
    0.4640    8.3890    7.6860 O   0  0  0  0  0  0  0  0  0  0  0  0
  1 45  1  0  0  0  0
  2  1  2  0  0  0  0
  3  2  1  0  0  0  0
  4  3  2  0  0  0  0
  4  5  1  0  0  0  0
  5  6  2  0  0  0  0
  6  1  1  0  0  0  0
  7  5  1  0  0  0  0
  7  9  2  0  0  0  0
  8  7  1  0  0  0  0
  9 10  1  0  0  0  0
 11 10  1  0  0  0  0
 12 11  1  0  0  0  0
 12  4  1  0  0  0  0
 13 12  2  0  0  0  0
 14 13  1  0  0  0  0
 14 19  1  0  0  0  0
 15 16  1  0  0  0  0
 15 14  2  0  0  0  0
 16 17  2  0  0  0  0
 17 20  1  0  0  0  0
 17 18  1  0  0  0  0
 19 18  2  0  0  0  0
 19 11  1  0  0  0  0
 20 21  2  0  0  0  0
 22 23  1  0  0  0  0
 22 20  1  0  0  0  0
 23 25  2  0  0  0  0
 23 26  1  0  0  0  0
 24 23  2  0  0  0  0
 26 27  1  0  0  0  0
 28 26  1  0  0  0  0
 29 30  1  0  0  0  0
 29 28  1  0  0  0  0
 30 31  1  0  0  0  0
 31 32  1  0  0  0  0
 32 33  1  0  0  0  0
 33 35  1  0  0  0  0
 34 33  1  0  0  0  0
 35  9  1  0  0  0  0
 35 36  2  0  0  0  0
 37 22  1  0  0  0  0
 38 43  1  0  0  0  0
 38 13  1  0  0  0  0
 39 38  1  0  0  0  0
 40 41  1  0  0  0  0
 40 39  1  0  0  0  0
 41 42  1  0  0  0  0
 42 43  1  0  0  0  0
 45 44  1  0  0  0  0
M  END
>  <minimizedAffinity>
-4.80432463

$$$$
