
 OpenBabel09092210413D

 45 50  0  0  0  0  0  0  0  0999 V2000
    8.3910    8.8090    9.0850 C   0  0  0  0  0  0  0  0  0  0  0  0
    9.7270    8.7640    8.7020 C   0  0  0  0  0  3  0  0  0  0  0  0
   10.1940    7.7010    7.9280 C   0  0  0  0  0  3  0  0  0  0  0  0
    9.3360    6.6720    7.5100 C   0  0  0  0  0  0  0  0  0  0  0  0
    7.9730    6.6890    7.9200 C   0  0  0  0  0  0  0  0  0  0  0  0
    7.5310    7.7740    8.7000 C   0  0  0  0  0  3  0  0  0  0  0  0
    6.9910    5.6170    7.5420 C   0  0  0  0  0  0  0  0  0  0  0  0
    5.6170    6.0810    7.1260 C   0  0  0  0  0  1  0  0  0  0  0  0
    7.3810    4.3200    7.5510 C   0  0  0  0  0  0  0  0  0  0  0  0
    8.7300    3.8530    8.0260 C   0  0  0  0  0  2  0  0  0  0  0  0
    9.7100    4.2580    7.0240 N   0  0  0  0  0  0  0  0  0  0  0  0
    9.9060    5.5830    6.6870 C   0  0  0  0  0  0  0  0  0  0  0  0
   10.5490    5.6020    5.4460 C   0  0  0  0  0  0  0  0  0  0  0  0
   10.7630    4.2240    5.0630 C   0  0  0  0  0  0  0  0  0  0  0  0
   11.2690    3.5760    3.9100 C   0  0  0  0  0  3  0  0  0  0  0  0
   11.2840    2.1750    3.8300 C   0  0  0  0  0  3  0  0  0  0  0  0
   10.8220    1.4110    4.8980 C   0  0  0  0  0  0  0  0  0  0  0  0
   10.3340    2.0180    6.0570 C   0  0  0  0  0  3  0  0  0  0  0  0
   10.2850    3.4200    6.0990 C   0  0  0  0  0  0  0  0  0  0  0  0
   10.7000   -0.0620    4.8230 C   0  0  0  0  0  0  0  0  0  0  0  0
   11.0300   -0.7640    5.7630 O   0  0  0  0  0  0  0  0  0  0  0  0
   10.0900   -0.5060    3.6460 N   0  0  0  0  0  0  0  0  0  0  0  0
    9.4320   -2.0000    3.4020 S   0  0  0  0  0  0  0  0  0  0  0  0
    8.9750   -1.9610    2.0300 O   0  0  0  0  0  0  0  0  0  0  0  0
   10.3070   -3.0380    3.8780 O   0  0  0  0  0  0  0  0  0  0  0  0
    8.0750   -1.8650    4.4070 N   0  0  0  0  0  0  0  0  0  0  0  0
    8.2130   -2.4750    5.7500 C   0  0  0  0  0  1  0  0  0  0  0  0
    6.7520   -2.1620    3.7840 C   0  0  0  0  0  2  0  0  0  0  0  0
    6.1990   -0.9440    3.0320 C   0  0  0  0  0  2  0  0  0  0  0  0
    5.4960   -0.0280    3.8810 O   0  0  0  0  0  0  0  0  0  0  0  0
    6.3450    0.8180    4.6600 C   0  0  0  0  0  2  0  0  0  0  0  0
    5.5140    2.0080    5.1610 C   0  0  0  0  0  2  0  0  0  0  0  0
    6.3270    3.1170    5.6720 N   0  0  0  0  0  0  0  0  0  0  0  0
    6.8900    4.0090    4.6590 C   0  0  0  0  0  1  0  0  0  0  0  0
    6.5400    3.2030    7.0410 C   0  0  0  0  0  0  0  0  0  0  0  0
    6.1350    2.3650    7.8440 O   0  0  0  0  0  0  0  0  0  0  0  0
    9.7070    0.1670    2.9930 H   0  0  0  0  0  0  0  0  0  0  0  0
   10.8140    6.8500    4.6280 C   0  0  0  0  0  3  0  0  0  0  0  0
    9.5940    7.7610    4.4260 C   0  0  0  0  0  2  0  0  0  0  0  0
    9.9380    8.9550    3.5340 C   0  0  0  0  0  2  0  0  0  0  0  0
   11.1410    9.7320    4.0670 C   0  0  0  0  0  2  0  0  0  0  0  0
   12.3510    8.8280    4.2860 C   0  0  0  0  0  2  0  0  0  0  0  0
   12.0110    7.6390    5.1820 C   0  0  0  0  0  2  0  0  0  0  0  0
    6.3840    9.7600    9.9360 C   0  0  0  0  0  1  0  0  0  0  0  0
    7.8020    9.7890    9.8360 O   0  0  0  0  0  0  0  0  0  0  0  0
  1 45  1  0  0  0  0
  2  1  1  0  0  0  0
  3  2  2  0  0  0  0
  4  5  2  0  0  0  0
  4  3  1  0  0  0  0
  5  6  1  0  0  0  0
  6  1  2  0  0  0  0
  7  9  2  0  0  0  0
  7  5  1  0  0  0  0
  8  7  1  0  0  0  0
  9 10  1  0  0  0  0
 11 10  1  0  0  0  0
 12 11  1  0  0  0  0
 12  4  1  0  0  0  0
 13 12  2  0  0  0  0
 14 13  1  0  0  0  0
 14 19  1  0  0  0  0
 15 14  2  0  0  0  0
 16 15  1  0  0  0  0
 16 17  2  0  0  0  0
 17 18  1  0  0  0  0
 18 19  2  0  0  0  0
 19 11  1  0  0  0  0
 20 17  1  0  0  0  0
 20 21  2  0  0  0  0
 22 20  1  0  0  0  0
 23 22  1  0  0  0  0
 23 25  2  0  0  0  0
 23 26  1  0  0  0  0
 24 23  2  0  0  0  0
 26 27  1  0  0  0  0
 28 26  1  0  0  0  0
 29 28  1  0  0  0  0
 29 30  1  0  0  0  0
 30 31  1  0  0  0  0
 31 32  1  0  0  0  0
 32 33  1  0  0  0  0
 33 35  1  0  0  0  0
 34 33  1  0  0  0  0
 35  9  1  0  0  0  0
 35 36  2  0  0  0  0
 37 22  1  0  0  0  0
 38 43  1  0  0  0  0
 38 13  1  0  0  0  0
 39 38  1  0  0  0  0
 40 41  1  0  0  0  0
 40 39  1  0  0  0  0
 41 42  1  0  0  0  0
 42 43  1  0  0  0  0
 45 44  1  0  0  0  0
M  END
>  <minimizedAffinity>
-5.0609951

$$$$
