
 OpenBabel09092210413D

 45 50  0  0  0  0  0  0  0  0999 V2000
    4.6000   -2.2680    5.1170 C   0  0  0  0  0  0  0  0  0  0  0  0
    5.5640   -2.5220    4.1480 C   0  0  0  0  0  3  0  0  0  0  0  0
    6.6310   -1.6390    3.9770 C   0  0  0  0  0  3  0  0  0  0  0  0
    6.7640   -0.4950    4.7800 C   0  0  0  0  0  0  0  0  0  0  0  0
    5.7690   -0.2060    5.7550 C   0  0  0  0  0  0  0  0  0  0  0  0
    4.7050   -1.1150    5.9040 C   0  0  0  0  0  3  0  0  0  0  0  0
    5.8160    1.0080    6.6380 C   0  0  0  0  0  0  0  0  0  0  0  0
    5.4580    0.7980    8.0890 C   0  0  0  0  0  1  0  0  0  0  0  0
    6.2060    2.1970    6.1200 C   0  0  0  0  0  0  0  0  0  0  0  0
    6.5000    2.4200    4.6620 C   0  0  0  0  0  2  0  0  0  0  0  0
    7.7610    1.7490    4.3630 N   0  0  0  0  0  0  0  0  0  0  0  0
    7.9260    0.3890    4.5420 C   0  0  0  0  0  0  0  0  0  0  0  0
    9.3000    0.1450    4.5980 C   0  0  0  0  0  0  0  0  0  0  0  0
    9.9610    1.4170    4.4120 C   0  0  0  0  0  0  0  0  0  0  0  0
   11.3060    1.8580    4.4500 C   0  0  0  0  0  3  0  0  0  0  0  0
   11.6160    3.2170    4.2840 C   0  0  0  0  0  3  0  0  0  0  0  0
   10.5980    4.1400    4.0540 C   0  0  0  0  0  0  0  0  0  0  0  0
    9.2630    3.7360    3.9910 C   0  0  0  0  0  3  0  0  0  0  0  0
    8.9710    2.3800    4.2060 C   0  0  0  0  0  0  0  0  0  0  0  0
   10.8510    5.5970    3.9940 C   0  0  0  0  0  0  0  0  0  0  0  0
   10.3040    6.2890    3.1530 O   0  0  0  0  0  0  0  0  0  0  0  0
   11.6620    6.0600    5.0340 N   0  0  0  0  0  0  0  0  0  0  0  0
   11.8140    7.6310    5.5150 S   0  0  0  0  0  0  0  0  0  0  0  0
   12.7860    7.5770    6.5850 O   0  0  0  0  0  0  0  0  0  0  0  0
   11.9810    8.5080    4.3860 O   0  0  0  0  0  0  0  0  0  0  0  0
   10.2850    7.8510    6.2100 N   0  0  0  0  0  0  0  0  0  0  0  0
    9.2840    8.5240    5.3510 C   0  0  0  0  0  1  0  0  0  0  0  0
   10.2590    8.3570    7.6140 C   0  0  0  0  0  2  0  0  0  0  0  0
   10.4510    7.2200    8.6250 C   0  0  0  0  0  2  0  0  0  0  0  0
    9.2330    6.5330    8.9420 O   0  0  0  0  0  0  0  0  0  0  0  0
    8.8130    5.5980    7.9450 C   0  0  0  0  0  2  0  0  0  0  0  0
    7.7930    4.6410    8.5800 C   0  0  0  0  0  2  0  0  0  0  0  0
    7.5450    3.4360    7.7820 N   0  0  0  0  0  0  0  0  0  0  0  0
    8.5390    2.3730    7.9150 C   0  0  0  0  0  1  0  0  0  0  0  0
    6.4410    3.4160    6.9410 C   0  0  0  0  0  0  0  0  0  0  0  0
    5.6930    4.3790    6.7810 O   0  0  0  0  0  0  0  0  0  0  0  0
   11.9380    5.4290    5.7760 H   0  0  0  0  0  0  0  0  0  0  0  0
    9.9280   -1.1920    4.9420 C   0  0  0  0  0  3  0  0  0  0  0  0
   10.9380   -1.7150    3.9110 C   0  0  0  0  0  2  0  0  0  0  0  0
   11.4660   -3.0960    4.3050 C   0  0  0  0  0  2  0  0  0  0  0  0
   12.0480   -3.0970    5.7170 C   0  0  0  0  0  2  0  0  0  0  0  0
   11.0530   -2.5610    6.7430 C   0  0  0  0  0  2  0  0  0  0  0  0
   10.5320   -1.1800    6.3550 C   0  0  0  0  0  2  0  0  0  0  0  0
    2.5910   -2.5540    6.3560 C   0  0  0  0  0  1  0  0  0  0  0  0
    3.5100   -3.0480    5.3910 O   0  0  0  0  0  0  0  0  0  0  0  0
  1 45  1  0  0  0  0
  1  6  1  0  0  0  0
  2  1  2  0  0  0  0
  3  2  1  0  0  0  0
  3  4  2  0  0  0  0
  4  5  1  0  0  0  0
  5  6  2  0  0  0  0
  5  7  1  0  0  0  0
  7  8  1  0  0  0  0
  9  7  2  0  0  0  0
  9 35  1  0  0  0  0
 10  9  1  0  0  0  0
 11 12  1  0  0  0  0
 11 10  1  0  0  0  0
 12 13  2  0  0  0  0
 12  4  1  0  0  0  0
 13 38  1  0  0  0  0
 14 15  1  0  0  0  0
 14 13  1  0  0  0  0
 16 15  2  0  0  0  0
 17 16  1  0  0  0  0
 18 17  2  0  0  0  0
 18 19  1  0  0  0  0
 19 11  1  0  0  0  0
 19 14  2  0  0  0  0
 20 17  1  0  0  0  0
 20 22  1  0  0  0  0
 21 20  2  0  0  0  0
 22 23  1  0  0  0  0
 22 37  1  0  0  0  0
 23 26  1  0  0  0  0
 23 24  2  0  0  0  0
 25 23  2  0  0  0  0
 26 28  1  0  0  0  0
 27 26  1  0  0  0  0
 28 29  1  0  0  0  0
 29 30  1  0  0  0  0
 31 32  1  0  0  0  0
 31 30  1  0  0  0  0
 33 34  1  0  0  0  0
 33 32  1  0  0  0  0
 35 33  1  0  0  0  0
 36 35  2  0  0  0  0
 38 43  1  0  0  0  0
 39 40  1  0  0  0  0
 39 38  1  0  0  0  0
 40 41  1  0  0  0  0
 41 42  1  0  0  0  0
 43 42  1  0  0  0  0
 45 44  1  0  0  0  0
M  END
>  <minimizedAffinity>
-4.85764217

$$$$
