REMARK  Name = 
REMARK  6 active torsions:
REMARK  status: ('A' for Active; 'I' for Inactive)
REMARK    1  A    between atoms: C_1  and  O_2
REMARK    2  A    between atoms: O_2  and  C_3
REMARK    3  A    between atoms: C_9  and  C_10
REMARK    4  A    between atoms: C_15  and  C_16
REMARK    5  A    between atoms: N_34  and  C_35
REMARK    6  A    between atoms: N_41  and  C_42
REMARK                            x       y       z     vdW  Elec       q    Type
REMARK                         _______ _______ _______ _____ _____    ______ ____
ROOT
ATOM      1  C   UNL     1       0.427   1.702   2.809  0.00  0.00    +0.121 A 
ATOM      2  C   UNL     1       1.327   2.583   2.220  0.00  0.00    +0.046 A 
ATOM      3  C   UNL     1       2.421   3.052   2.949  0.00  0.00    +0.014 A 
ATOM      4  C   UNL     1       2.645   2.639   4.272  0.00  0.00    +0.006 A 
ATOM      5  C   UNL     1       1.715   1.762   4.897  0.00  0.00    -0.009 A 
ATOM      6  C   UNL     1       0.622   1.306   4.137  0.00  0.00    +0.054 A 
ATOM      7  C   UNL     1       1.861   1.291   6.316  0.00  0.00    -0.033 C 
ATOM      8  C   UNL     1       1.570  -0.167   6.573  0.00  0.00    +0.045 C 
ATOM      9  C   UNL     1       2.274   2.159   7.270  0.00  0.00    +0.038 C 
ATOM     10  C   UNL     1       2.502   3.626   7.026  0.00  0.00    +0.163 C 
ATOM     11  N   UNL     1       3.715   3.753   6.226  0.00  0.00    -0.335 N 
ATOM     12  C   UNL     1       3.830   3.176   4.976  0.00  0.00    +0.054 A 
ATOM     13  C   UNL     1       5.194   3.099   4.682  0.00  0.00    -0.011 A 
ATOM     14  C   UNL     1       5.899   3.686   5.799  0.00  0.00    +0.004 A 
ATOM     15  C   UNL     1       7.262   3.832   6.154  0.00  0.00    +0.011 A 
ATOM     16  C   UNL     1       7.621   4.413   7.380  0.00  0.00    +0.014 A 
ATOM     17  C   UNL     1       6.634   4.875   8.247  0.00  0.00    +0.040 A 
ATOM     18  C   UNL     1       5.281   4.764   7.920  0.00  0.00    +0.039 A 
ATOM     19  C   UNL     1       4.942   4.138   6.710  0.00  0.00    +0.051 A 
ATOM     20  C   UNL     1       6.946   5.383   9.602  0.00  0.00    +0.264 C 
ATOM     21  O   UNL     1       6.387   6.374  10.039  0.00  0.00    -0.269 OA
ATOM     22  N   UNL     1       7.829   4.563  10.309  0.00  0.00    -0.171 N 
ATOM     23  S   UNL     1       8.074   4.587  11.941  0.00  0.00    +0.114 S 
ATOM     24  O   UNL     1       9.097   3.587  12.156  0.00  0.00    -0.138 OA
ATOM     25  O   UNL     1       8.220   5.934  12.426  0.00  0.00    -0.138 OA
ATOM     26  N   UNL     1       6.594   3.936  12.447  0.00  0.00    -0.165 NA
ATOM     27  C   UNL     1       5.580   4.922  12.886  0.00  0.00    +0.133 C 
ATOM     28  C   UNL     1       6.662   2.752  13.352  0.00  0.00    +0.138 C 
ATOM     29  C   UNL     1       6.857   1.451  12.563  0.00  0.00    +0.177 C 
ATOM     30  O   UNL     1       5.629   0.897  12.074  0.00  0.00    -0.377 OA
ATOM     31  C   UNL     1       5.117   1.547  10.908  0.00  0.00    +0.179 C 
ATOM     32  C   UNL     1       4.091   0.616  10.246  0.00  0.00    +0.135 C 
ATOM     33  N   UNL     1       3.750   1.001   8.873  0.00  0.00    -0.299 N 
ATOM     34  C   UNL     1       4.703   0.588   7.844  0.00  0.00    +0.132 C 
ATOM     35  C   UNL     1       2.604   1.756   8.664  0.00  0.00    +0.244 C 
ATOM     36  O   UNL     1       1.891   2.173   9.575  0.00  0.00    -0.270 OA
ATOM     37  H   UNL     1       8.116   3.675   9.916  0.00  0.00    +0.178 HD
ENDROOT
BRANCH  13  38
ATOM     38  C   UNL     1       5.780   2.389   3.477  0.00  0.00    +0.022 C 
ATOM     39  C   UNL     1       6.899   3.155   2.757  0.00  0.00    +0.008 C 
ATOM     40  C   UNL     1       7.380   2.397   1.519  0.00  0.00    +0.001 C 
ATOM     41  C   UNL     1       7.801   0.968   1.858  0.00  0.00    +0.000 C 
ATOM     42  C   UNL     1       6.698   0.208   2.589  0.00  0.00    +0.001 C 
ATOM     43  C   UNL     1       6.223   0.960   3.830  0.00  0.00    +0.008 C 
ENDBRANCH  13  38
BRANCH   1  45
ATOM     44  C   UNL     1      -0.896   1.491   0.844  0.00  0.00    +0.277 C 
ATOM     45  O   UNL     1      -0.680   1.165   2.211  0.00  0.00    -0.495 OA
ENDBRANCH   1  45
TORSDOF 2
