
 OpenBabel09082221283D

 45 50  0  0  0  0  0  0  0  0999 V2000
    9.7180    8.8690    4.4050 C   0  0  0  0  0  0  0  0  0  0  0  0
    8.6320    8.4370    3.6520 C   0  0  0  0  0  3  0  0  0  0  0  0
    8.2860    7.0850    3.6420 C   0  0  0  0  0  3  0  0  0  0  0  0
    9.0070    6.1430    4.3940 C   0  0  0  0  0  0  0  0  0  0  0  0
   10.1390    6.5670    5.1440 C   0  0  0  0  0  0  0  0  0  0  0  0
   10.4640    7.9360    5.1350 C   0  0  0  0  0  3  0  0  0  0  0  0
   10.9830    5.6250    5.9540 C   0  0  0  0  0  0  0  0  0  0  0  0
   11.4090    6.1090    7.3180 C   0  0  0  0  0  1  0  0  0  0  0  0
   11.2850    4.4020    5.4580 C   0  0  0  0  0  0  0  0  0  0  0  0
   10.9150    3.9450    4.0730 C   0  0  0  0  0  2  0  0  0  0  0  0
    9.4740    3.7200    4.0570 N   0  0  0  0  0  0  0  0  0  0  0  0
    8.5740    4.7300    4.3360 C   0  0  0  0  0  0  0  0  0  0  0  0
    7.3610    4.1200    4.6670 C   0  0  0  0  0  0  0  0  0  0  0  0
    7.5590    2.6930    4.5430 C   0  0  0  0  0  0  0  0  0  0  0  0
    6.7720    1.5480    4.8140 C   0  0  0  0  0  3  0  0  0  0  0  0
    7.3020    0.2610    4.6390 C   0  0  0  0  0  3  0  0  0  0  0  0
    8.6040    0.1020    4.1700 C   0  0  0  0  0  0  0  0  0  0  0  0
    9.4010    1.2090    3.8740 C   0  0  0  0  0  3  0  0  0  0  0  0
    8.8680    2.4880    4.1000 C   0  0  0  0  0  0  0  0  0  0  0  0
    9.2560   -1.2240    4.0820 C   0  0  0  0  0  0  0  0  0  0  0  0
    9.9390   -1.5190    3.1160 O   0  0  0  0  0  0  0  0  0  0  0  0
    9.0860   -2.0000    5.2310 N   0  0  0  0  0  0  0  0  0  0  0  0
    9.9850   -3.3200    5.6480 S   0  0  0  0  0  0  0  0  0  0  0  0
    9.3880   -3.7730    6.8860 O   0  0  0  0  0  0  0  0  0  0  0  0
   10.1630   -4.2040    4.5270 O   0  0  0  0  0  0  0  0  0  0  0  0
   11.4440   -2.5460    6.0260 N   0  0  0  0  0  0  0  0  0  0  0  0
   12.4680   -2.5590    4.9560 C   0  0  0  0  0  1  0  0  0  0  0  0
   12.0240   -2.8370    7.3690 C   0  0  0  0  0  2  0  0  0  0  0  0
   11.3880   -1.9630    8.4580 C   0  0  0  0  0  2  0  0  0  0  0  0
   11.9960   -0.6700    8.5720 O   0  0  0  0  0  0  0  0  0  0  0  0
   11.5890    0.2590    7.5640 C   0  0  0  0  0  2  0  0  0  0  0  0
   11.9400    1.6750    8.0410 C   0  0  0  0  0  2  0  0  0  0  0  0
   11.2750    2.7340    7.2760 N   0  0  0  0  0  0  0  0  0  0  0  0
    9.8900    3.0130    7.6540 C   0  0  0  0  0  1  0  0  0  0  0  0
   11.9740    3.3410    6.2420 C   0  0  0  0  0  0  0  0  0  0  0  0
   13.1000    2.9960    5.8910 O   0  0  0  0  0  0  0  0  0  0  0  0
    8.6330   -1.6030    6.0450 H   0  0  0  0  0  0  0  0  0  0  0  0
    6.1410    4.8500    5.1950 C   0  0  0  0  0  3  0  0  0  0  0  0
    4.8490    4.6050    4.4030 C   0  0  0  0  0  2  0  0  0  0  0  0
    3.6910    5.4330    4.9640 C   0  0  0  0  0  2  0  0  0  0  0  0
    3.4930    5.1890    6.4590 C   0  0  0  0  0  2  0  0  0  0  0  0
    4.7800    5.4140    7.2480 C   0  0  0  0  0  2  0  0  0  0  0  0
    5.9340    4.5820    6.6940 C   0  0  0  0  0  2  0  0  0  0  0  0
   11.5470   10.3830    4.2710 C   0  0  0  0  0  1  0  0  0  0  0  0
   10.1630   10.1590    4.5060 O   0  0  0  0  0  0  0  0  0  0  0  0
  1 45  1  0  0  0  0
  1  6  1  0  0  0  0
  2  1  2  0  0  0  0
  3  2  1  0  0  0  0
  3  4  2  0  0  0  0
  4  5  1  0  0  0  0
  5  7  1  0  0  0  0
  6  5  2  0  0  0  0
  7  8  1  0  0  0  0
  9  7  2  0  0  0  0
  9 35  1  0  0  0  0
 10  9  1  0  0  0  0
 11 10  1  0  0  0  0
 11 19  1  0  0  0  0
 11 12  1  0  0  0  0
 12  4  1  0  0  0  0
 12 13  2  0  0  0  0
 13 38  1  0  0  0  0
 14 13  1  0  0  0  0
 14 15  1  0  0  0  0
 16 15  2  0  0  0  0
 17 16  1  0  0  0  0
 18 19  1  0  0  0  0
 18 17  2  0  0  0  0
 19 14  2  0  0  0  0
 20 17  1  0  0  0  0
 20 22  1  0  0  0  0
 21 20  2  0  0  0  0
 22 23  1  0  0  0  0
 22 37  1  0  0  0  0
 23 26  1  0  0  0  0
 23 24  2  0  0  0  0
 25 23  2  0  0  0  0
 26 28  1  0  0  0  0
 27 26  1  0  0  0  0
 28 29  1  0  0  0  0
 29 30  1  0  0  0  0
 31 32  1  0  0  0  0
 31 30  1  0  0  0  0
 33 34  1  0  0  0  0
 33 32  1  0  0  0  0
 35 33  1  0  0  0  0
 36 35  2  0  0  0  0
 38 43  1  0  0  0  0
 39 40  1  0  0  0  0
 39 38  1  0  0  0  0
 40 41  1  0  0  0  0
 41 42  1  0  0  0  0
 43 42  1  0  0  0  0
 44 45  1  0  0  0  0
M  END
>  <minimizedAffinity>
-5.18287563

$$$$

 OpenBabel09082221283D

 45 50  0  0  0  0  0  0  0  0999 V2000
    7.2310   -1.2350    2.8660 C   0  0  0  0  0  0  0  0  0  0  0  0
    8.5660   -1.2910    2.4800 C   0  0  0  0  0  3  0  0  0  0  0  0
    9.4740   -0.3530    2.9760 C   0  0  0  0  0  3  0  0  0  0  0  0
    9.0700    0.6460    3.8760 C   0  0  0  0  0  0  0  0  0  0  0  0
    7.7020    0.7330    4.2550 C   0  0  0  0  0  0  0  0  0  0  0  0
    6.8100   -0.2260    3.7390 C   0  0  0  0  0  3  0  0  0  0  0  0
    7.1770    1.7850    5.1900 C   0  0  0  0  0  0  0  0  0  0  0  0
    6.1870    1.3250    6.2320 C   0  0  0  0  0  1  0  0  0  0  0  0
    7.6320    3.0570    5.0890 C   0  0  0  0  0  0  0  0  0  0  0  0
    8.5700    3.5280    4.0120 C   0  0  0  0  0  2  0  0  0  0  0  0
    9.8830    2.9620    4.2960 N   0  0  0  0  0  0  0  0  0  0  0  0
   10.0930    1.5980    4.3600 C   0  0  0  0  0  0  0  0  0  0  0  0
   11.2860    1.3980    5.0600 C   0  0  0  0  0  0  0  0  0  0  0  0
   11.8060    2.7050    5.3900 C   0  0  0  0  0  0  0  0  0  0  0  0
   12.9030    3.1820    6.1470 C   0  0  0  0  0  3  0  0  0  0  0  0
   13.0990    4.5600    6.3300 C   0  0  0  0  0  3  0  0  0  0  0  0
   12.2240    5.4710    5.7430 C   0  0  0  0  0  0  0  0  0  0  0  0
   11.1420    5.0360    4.9750 C   0  0  0  0  0  3  0  0  0  0  0  0
   10.9380    3.6530    4.8430 C   0  0  0  0  0  0  0  0  0  0  0  0
   12.3070    6.9260    6.0020 C   0  0  0  0  0  0  0  0  0  0  0  0
   12.1630    7.7280    5.0950 O   0  0  0  0  0  0  0  0  0  0  0  0
   12.4540    7.2390    7.3550 N   0  0  0  0  0  0  0  0  0  0  0  0
   12.1750    8.7130    8.0430 S   0  0  0  0  0  0  0  0  0  0  0  0
   12.5050    8.5170    9.4370 O   0  0  0  0  0  0  0  0  0  0  0  0
   12.7680    9.7700    7.2670 O   0  0  0  0  0  0  0  0  0  0  0  0
   10.4870    8.7600    7.9080 N   0  0  0  0  0  0  0  0  0  0  0  0
    9.9600    9.5300    6.7580 C   0  0  0  0  0  1  0  0  0  0  0  0
    9.7260    9.0250    9.1630 C   0  0  0  0  0  2  0  0  0  0  0  0
    9.5300    7.7430    9.9840 C   0  0  0  0  0  2  0  0  0  0  0  0
    8.3980    6.9710    9.5640 O   0  0  0  0  0  0  0  0  0  0  0  0
    8.6230    6.1990    8.3810 C   0  0  0  0  0  2  0  0  0  0  0  0
    7.5390    5.1150    8.2980 C   0  0  0  0  0  2  0  0  0  0  0  0
    7.8470    4.0500    7.3380 N   0  0  0  0  0  0  0  0  0  0  0  0
    8.7650    3.0160    7.8120 C   0  0  0  0  0  1  0  0  0  0  0  0
    7.3000    4.1310    6.0650 C   0  0  0  0  0  0  0  0  0  0  0  0
    6.6200    5.0790    5.6770 O   0  0  0  0  0  0  0  0  0  0  0  0
   12.4050    6.5040    8.0500 H   0  0  0  0  0  0  0  0  0  0  0  0
   11.8140    0.0450    5.4980 C   0  0  0  0  0  3  0  0  0  0  0  0
   10.8000   -0.8350    6.2420 C   0  0  0  0  0  2  0  0  0  0  0  0
   11.4380   -2.1450    6.7040 C   0  0  0  0  0  2  0  0  0  0  0  0
   12.0940   -2.8950    5.5460 C   0  0  0  0  0  2  0  0  0  0  0  0
   13.0910   -2.0190    4.7930 C   0  0  0  0  0  2  0  0  0  0  0  0
   12.4520   -0.7140    4.3240 C   0  0  0  0  0  2  0  0  0  0  0  0
    5.8840   -2.0530    1.0860 C   0  0  0  0  0  1  0  0  0  0  0  0
    6.2410   -2.0880    2.4620 O   0  0  0  0  0  0  0  0  0  0  0  0
  1  6  1  0  0  0  0
  2  1  2  0  0  0  0
  2  3  1  0  0  0  0
  3  4  2  0  0  0  0
  4  5  1  0  0  0  0
  4 12  1  0  0  0  0
  5  7  1  0  0  0  0
  6  5  2  0  0  0  0
  7  8  1  0  0  0  0
  9  7  2  0  0  0  0
  9 35  1  0  0  0  0
 10 11  1  0  0  0  0
 10  9  1  0  0  0  0
 11 12  1  0  0  0  0
 11 19  1  0  0  0  0
 12 13  2  0  0  0  0
 13 14  1  0  0  0  0
 13 38  1  0  0  0  0
 14 15  1  0  0  0  0
 15 16  2  0  0  0  0
 17 20  1  0  0  0  0
 17 16  1  0  0  0  0
 18 17  2  0  0  0  0
 19 18  1  0  0  0  0
 19 14  2  0  0  0  0
 20 22  1  0  0  0  0
 21 20  2  0  0  0  0
 22 23  1  0  0  0  0
 22 37  1  0  0  0  0
 23 24  2  0  0  0  0
 25 23  2  0  0  0  0
 26 23  1  0  0  0  0
 26 28  1  0  0  0  0
 27 26  1  0  0  0  0
 28 29  1  0  0  0  0
 30 29  1  0  0  0  0
 31 30  1  0  0  0  0
 32 31  1  0  0  0  0
 33 34  1  0  0  0  0
 33 32  1  0  0  0  0
 35 33  1  0  0  0  0
 36 35  2  0  0  0  0
 38 39  1  0  0  0  0
 39 40  1  0  0  0  0
 41 40  1  0  0  0  0
 42 41  1  0  0  0  0
 43 42  1  0  0  0  0
 43 38  1  0  0  0  0
 44 45  1  0  0  0  0
 45  1  1  0  0  0  0
M  END
>  <minimizedAffinity>
-5.1180191

$$$$

 OpenBabel09082221283D

 45 50  0  0  0  0  0  0  0  0999 V2000
   12.6880    7.8490   10.0370 C   0  0  0  0  0  0  0  0  0  0  0  0
   13.0970    8.1090    8.7340 C   0  0  0  0  0  3  0  0  0  0  0  0
   12.9020    7.1500    7.7390 C   0  0  0  0  0  3  0  0  0  0  0  0
   12.2820    5.9220    8.0220 C   0  0  0  0  0  0  0  0  0  0  0  0
   11.8860    5.6310    9.3570 C   0  0  0  0  0  0  0  0  0  0  0  0
   12.0960    6.6170   10.3390 C   0  0  0  0  0  3  0  0  0  0  0  0
   11.2420    4.3340    9.7550 C   0  0  0  0  0  0  0  0  0  0  0  0
   10.0780    4.4280   10.7110 C   0  0  0  0  0  1  0  0  0  0  0  0
   11.6920    3.1720    9.2240 C   0  0  0  0  0  0  0  0  0  0  0  0
   12.8920    3.0730    8.3210 C   0  0  0  0  0  2  0  0  0  0  0  0
   12.5190    3.6480    7.0340 N   0  0  0  0  0  0  0  0  0  0  0  0
   12.1060    4.9610    6.9110 C   0  0  0  0  0  0  0  0  0  0  0  0
   11.4250    5.0660    5.6960 C   0  0  0  0  0  0  0  0  0  0  0  0
   11.4730    3.7630    5.0720 C   0  0  0  0  0  0  0  0  0  0  0  0
   10.9120    3.1950    3.9030 C   0  0  0  0  0  3  0  0  0  0  0  0
   11.1070    1.8370    3.6060 C   0  0  0  0  0  3  0  0  0  0  0  0
   11.8780    1.0430    4.4520 C   0  0  0  0  0  0  0  0  0  0  0  0
   12.4610    1.5760    5.6030 C   0  0  0  0  0  3  0  0  0  0  0  0
   12.2170    2.9250    5.9050 C   0  0  0  0  0  0  0  0  0  0  0  0
   12.0160   -0.4180    4.2570 C   0  0  0  0  0  0  0  0  0  0  0  0
   13.0950   -0.9650    4.4010 O   0  0  0  0  0  0  0  0  0  0  0  0
   10.7990   -1.0590    4.0110 N   0  0  0  0  0  0  0  0  0  0  0  0
   10.5150   -2.6790    4.1510 S   0  0  0  0  0  0  0  0  0  0  0  0
    9.1320   -2.8270    3.7540 O   0  0  0  0  0  0  0  0  0  0  0  0
   11.5640   -3.4470    3.5360 O   0  0  0  0  0  0  0  0  0  0  0  0
   10.5910   -2.8230    5.8380 N   0  0  0  0  0  0  0  0  0  0  0  0
   11.8820   -3.3060    6.3790 C   0  0  0  0  0  1  0  0  0  0  0  0
    9.4210   -3.4640    6.5050 C   0  0  0  0  0  2  0  0  0  0  0  0
    8.2850   -2.4600    6.7360 C   0  0  0  0  0  2  0  0  0  0  0  0
    8.4410   -1.6970    7.9390 O   0  0  0  0  0  0  0  0  0  0  0  0
    9.3870   -0.6290    7.8360 C   0  0  0  0  0  2  0  0  0  0  0  0
    9.1380    0.3500    8.9920 C   0  0  0  0  0  2  0  0  0  0  0  0
    9.7950    1.6490    8.8120 N   0  0  0  0  0  0  0  0  0  0  0  0
    9.1020    2.5940    7.9390 C   0  0  0  0  0  1  0  0  0  0  0  0
   11.0220    1.8590    9.4260 C   0  0  0  0  0  0  0  0  0  0  0  0
   11.6190    0.9930   10.0630 O   0  0  0  0  0  0  0  0  0  0  0  0
    9.9340   -0.5360    4.0680 H   0  0  0  0  0  0  0  0  0  0  0  0
   10.6670    6.2960    5.2330 C   0  0  0  0  0  3  0  0  0  0  0  0
   11.1610    6.8990    3.9100 C   0  0  0  0  0  2  0  0  0  0  0  0
   10.3860    8.1700    3.5590 C   0  0  0  0  0  2  0  0  0  0  0  0
    8.8780    7.9270    3.5420 C   0  0  0  0  0  2  0  0  0  0  0  0
    8.3850    7.3110    4.8480 C   0  0  0  0  0  2  0  0  0  0  0  0
    9.1530    6.0380    5.1950 C   0  0  0  0  0  2  0  0  0  0  0  0
   12.6310   10.0830   10.8490 C   0  0  0  0  0  1  0  0  0  0  0  0
   12.8140    8.6970   11.1030 O   0  0  0  0  0  0  0  0  0  0  0  0
  1  6  1  0  0  0  0
  1 45  1  0  0  0  0
  2  1  2  0  0  0  0
  3  4  2  0  0  0  0
  3  2  1  0  0  0  0
  4  5  1  0  0  0  0
  5  7  1  0  0  0  0
  5  6  2  0  0  0  0
  7  8  1  0  0  0  0
  9 35  1  0  0  0  0
  9  7  2  0  0  0  0
 10  9  1  0  0  0  0
 11 10  1  0  0  0  0
 12 11  1  0  0  0  0
 12  4  1  0  0  0  0
 13 12  2  0  0  0  0
 14 13  1  0  0  0  0
 14 19  1  0  0  0  0
 15 14  2  0  0  0  0
 16 15  1  0  0  0  0
 16 17  2  0  0  0  0
 17 18  1  0  0  0  0
 18 19  2  0  0  0  0
 19 11  1  0  0  0  0
 20 21  2  0  0  0  0
 20 17  1  0  0  0  0
 22 37  1  0  0  0  0
 22 23  1  0  0  0  0
 22 20  1  0  0  0  0
 23 26  1  0  0  0  0
 24 23  2  0  0  0  0
 25 23  2  0  0  0  0
 26 27  1  0  0  0  0
 26 28  1  0  0  0  0
 28 29  1  0  0  0  0
 29 30  1  0  0  0  0
 31 30  1  0  0  0  0
 31 32  1  0  0  0  0
 33 32  1  0  0  0  0
 33 35  1  0  0  0  0
 34 33  1  0  0  0  0
 35 36  2  0  0  0  0
 38 13  1  0  0  0  0
 39 38  1  0  0  0  0
 40 39  1  0  0  0  0
 41 40  1  0  0  0  0
 41 42  1  0  0  0  0
 42 43  1  0  0  0  0
 43 38  1  0  0  0  0
 44 45  1  0  0  0  0
M  END
>  <minimizedAffinity>
-5.08949327

$$$$

 OpenBabel09082221283D

 45 50  0  0  0  0  0  0  0  0999 V2000
    8.3890    8.8110    9.0840 C   0  0  0  0  0  0  0  0  0  0  0  0
    9.7250    8.7670    8.7020 C   0  0  0  0  0  3  0  0  0  0  0  0
   10.1930    7.7030    7.9280 C   0  0  0  0  0  3  0  0  0  0  0  0
    9.3340    6.6750    7.5090 C   0  0  0  0  0  0  0  0  0  0  0  0
    7.9720    6.6920    7.9190 C   0  0  0  0  0  0  0  0  0  0  0  0
    7.5290    7.7760    8.6990 C   0  0  0  0  0  3  0  0  0  0  0  0
    6.9900    5.6190    7.5410 C   0  0  0  0  0  0  0  0  0  0  0  0
    5.6160    6.0830    7.1250 C   0  0  0  0  0  1  0  0  0  0  0  0
    7.3800    4.3220    7.5500 C   0  0  0  0  0  0  0  0  0  0  0  0
    8.7290    3.8560    8.0250 C   0  0  0  0  0  2  0  0  0  0  0  0
    9.7090    4.2600    7.0240 N   0  0  0  0  0  0  0  0  0  0  0  0
    9.9050    5.5860    6.6860 C   0  0  0  0  0  0  0  0  0  0  0  0
   10.5480    5.6040    5.4460 C   0  0  0  0  0  0  0  0  0  0  0  0
   10.7620    4.2260    5.0630 C   0  0  0  0  0  0  0  0  0  0  0  0
   11.2690    3.5780    3.9110 C   0  0  0  0  0  3  0  0  0  0  0  0
   11.2840    2.1770    3.8300 C   0  0  0  0  0  3  0  0  0  0  0  0
   10.8220    1.4130    4.8990 C   0  0  0  0  0  0  0  0  0  0  0  0
   10.3330    2.0200    6.0580 C   0  0  0  0  0  3  0  0  0  0  0  0
   10.2840    3.4220    6.1000 C   0  0  0  0  0  0  0  0  0  0  0  0
   10.6990   -0.0600    4.8230 C   0  0  0  0  0  0  0  0  0  0  0  0
   11.0290   -0.7610    5.7640 O   0  0  0  0  0  0  0  0  0  0  0  0
   10.0900   -0.5040    3.6470 N   0  0  0  0  0  0  0  0  0  0  0  0
    9.4320   -1.9980    3.4030 S   0  0  0  0  0  0  0  0  0  0  0  0
    8.9760   -1.9590    2.0310 O   0  0  0  0  0  0  0  0  0  0  0  0
   10.3070   -3.0360    3.8790 O   0  0  0  0  0  0  0  0  0  0  0  0
    8.0750   -1.8640    4.4080 N   0  0  0  0  0  0  0  0  0  0  0  0
    8.2120   -2.4730    5.7500 C   0  0  0  0  0  1  0  0  0  0  0  0
    6.7520   -2.1600    3.7840 C   0  0  0  0  0  2  0  0  0  0  0  0
    6.1990   -0.9420    3.0320 C   0  0  0  0  0  2  0  0  0  0  0  0
    5.4950   -0.0260    3.8800 O   0  0  0  0  0  0  0  0  0  0  0  0
    6.3440    0.8200    4.6600 C   0  0  0  0  0  2  0  0  0  0  0  0
    5.5140    2.0100    5.1600 C   0  0  0  0  0  2  0  0  0  0  0  0
    6.3260    3.1190    5.6710 N   0  0  0  0  0  0  0  0  0  0  0  0
    6.8890    4.0110    4.6590 C   0  0  0  0  0  1  0  0  0  0  0  0
    6.5390    3.2060    7.0400 C   0  0  0  0  0  0  0  0  0  0  0  0
    6.1340    2.3670    7.8440 O   0  0  0  0  0  0  0  0  0  0  0  0
    9.7070    0.1680    2.9940 H   0  0  0  0  0  0  0  0  0  0  0  0
   10.8130    6.8520    4.6280 C   0  0  0  0  0  3  0  0  0  0  0  0
    9.5940    7.7630    4.4250 C   0  0  0  0  0  2  0  0  0  0  0  0
    9.9380    8.9570    3.5340 C   0  0  0  0  0  2  0  0  0  0  0  0
   11.1410    9.7340    4.0670 C   0  0  0  0  0  2  0  0  0  0  0  0
   12.3500    8.8300    4.2850 C   0  0  0  0  0  2  0  0  0  0  0  0
   12.0100    7.6410    5.1820 C   0  0  0  0  0  2  0  0  0  0  0  0
    6.3920    9.7080   10.0140 C   0  0  0  0  0  1  0  0  0  0  0  0
    7.8000    9.7910    9.8350 O   0  0  0  0  0  0  0  0  0  0  0  0
  1 45  1  0  0  0  0
  2  1  1  0  0  0  0
  3  2  2  0  0  0  0
  4  5  2  0  0  0  0
  4  3  1  0  0  0  0
  5  6  1  0  0  0  0
  6  1  2  0  0  0  0
  7  9  2  0  0  0  0
  7  5  1  0  0  0  0
  8  7  1  0  0  0  0
  9 10  1  0  0  0  0
 11 10  1  0  0  0  0
 12 11  1  0  0  0  0
 12  4  1  0  0  0  0
 13 12  2  0  0  0  0
 14 13  1  0  0  0  0
 14 19  1  0  0  0  0
 15 14  2  0  0  0  0
 16 15  1  0  0  0  0
 16 17  2  0  0  0  0
 17 18  1  0  0  0  0
 18 19  2  0  0  0  0
 19 11  1  0  0  0  0
 20 17  1  0  0  0  0
 20 21  2  0  0  0  0
 22 20  1  0  0  0  0
 23 22  1  0  0  0  0
 23 25  2  0  0  0  0
 23 26  1  0  0  0  0
 24 23  2  0  0  0  0
 26 27  1  0  0  0  0
 28 26  1  0  0  0  0
 29 28  1  0  0  0  0
 29 30  1  0  0  0  0
 30 31  1  0  0  0  0
 31 32  1  0  0  0  0
 32 33  1  0  0  0  0
 33 35  1  0  0  0  0
 34 33  1  0  0  0  0
 35  9  1  0  0  0  0
 35 36  2  0  0  0  0
 37 22  1  0  0  0  0
 38 43  1  0  0  0  0
 38 13  1  0  0  0  0
 39 38  1  0  0  0  0
 40 41  1  0  0  0  0
 40 39  1  0  0  0  0
 41 42  1  0  0  0  0
 42 43  1  0  0  0  0
 45 44  1  0  0  0  0
M  END
>  <minimizedAffinity>
-5.05981159

$$$$

 OpenBabel09082221283D

 45 50  0  0  0  0  0  0  0  0999 V2000
    8.1840    8.3120   10.1670 C   0  0  0  0  0  0  0  0  0  0  0  0
    9.4820    8.4340    9.6840 C   0  0  0  0  0  3  0  0  0  0  0  0
    9.9760    7.5020    8.7710 C   0  0  0  0  0  3  0  0  0  0  0  0
    9.1800    6.4410    8.3110 C   0  0  0  0  0  0  0  0  0  0  0  0
    7.8600    6.2860    8.8200 C   0  0  0  0  0  0  0  0  0  0  0  0
    7.3900    7.2410    9.7400 C   0  0  0  0  0  3  0  0  0  0  0  0
    6.9500    5.1660    8.4060 C   0  0  0  0  0  0  0  0  0  0  0  0
    5.5100    5.5330    8.1440 C   0  0  0  0  0  1  0  0  0  0  0  0
    7.4520    3.9180    8.2490 C   0  0  0  0  0  0  0  0  0  0  0  0
    8.8720    3.5400    8.5720 C   0  0  0  0  0  2  0  0  0  0  0  0
    9.7260    4.1330    7.5490 N   0  0  0  0  0  0  0  0  0  0  0  0
    9.7740    5.4980    7.3380 C   0  0  0  0  0  0  0  0  0  0  0  0
   10.3070    5.6990    6.0620 C   0  0  0  0  0  0  0  0  0  0  0  0
   10.6100    4.3930    5.5220 C   0  0  0  0  0  0  0  0  0  0  0  0
   11.0740    3.9120    4.2740 C   0  0  0  0  0  3  0  0  0  0  0  0
   11.2060    2.5330    4.0460 C   0  0  0  0  0  3  0  0  0  0  0  0
   10.9050    1.6280    5.0590 C   0  0  0  0  0  0  0  0  0  0  0  0
   10.4630    2.0680    6.3090 C   0  0  0  0  0  3  0  0  0  0  0  0
   10.2930    3.4490    6.5010 C   0  0  0  0  0  0  0  0  0  0  0  0
   10.9070    0.1640    4.8390 C   0  0  0  0  0  0  0  0  0  0  0  0
   11.3760   -0.5900    5.6740 O   0  0  0  0  0  0  0  0  0  0  0  0
   10.2440   -0.2190    3.6710 N   0  0  0  0  0  0  0  0  0  0  0  0
    9.7020   -1.7390    3.3210 S   0  0  0  0  0  0  0  0  0  0  0  0
    9.1310   -1.6110    1.9980 O   0  0  0  0  0  0  0  0  0  0  0  0
   10.7020   -2.7300    3.6190 O   0  0  0  0  0  0  0  0  0  0  0  0
    8.4270   -1.8350    4.4320 N   0  0  0  0  0  0  0  0  0  0  0  0
    8.7300   -2.5570    5.6890 C   0  0  0  0  0  1  0  0  0  0  0  0
    7.0890   -2.1960    3.8800 C   0  0  0  0  0  2  0  0  0  0  0  0
    6.3690   -0.9700    3.3040 C   0  0  0  0  0  2  0  0  0  0  0  0
    5.6600   -0.2140    4.2930 O   0  0  0  0  0  0  0  0  0  0  0  0
    6.4930    0.6300    5.0920 C   0  0  0  0  0  2  0  0  0  0  0  0
    5.6050    1.6810    5.7750 C   0  0  0  0  0  2  0  0  0  0  0  0
    6.3560    2.8070    6.3380 N   0  0  0  0  0  0  0  0  0  0  0  0
    6.7510    3.8440    5.3860 C   0  0  0  0  0  1  0  0  0  0  0  0
    6.6740    2.7800    7.6890 C   0  0  0  0  0  0  0  0  0  0  0  0
    6.4130    1.8320    8.4280 O   0  0  0  0  0  0  0  0  0  0  0  0
    9.7490    0.4730    3.1220 H   0  0  0  0  0  0  0  0  0  0  0  0
   10.3910    7.0410    5.3620 C   0  0  0  0  0  3  0  0  0  0  0  0
   11.7940    7.4270    4.8710 C   0  0  0  0  0  2  0  0  0  0  0  0
   11.7950    8.8210    4.2420 C   0  0  0  0  0  2  0  0  0  0  0  0
   10.7540    8.9410    3.1300 C   0  0  0  0  0  2  0  0  0  0  0  0
    9.3610    8.5420    3.6090 C   0  0  0  0  0  2  0  0  0  0  0  0
    9.3570    7.1480    4.2300 C   0  0  0  0  0  2  0  0  0  0  0  0
    6.1540    9.1390   11.0900 C   0  0  0  0  0  1  0  0  0  0  0  0
    7.5750    9.1520   11.0590 O   0  0  0  0  0  0  0  0  0  0  0  0
  1 45  1  0  0  0  0
  2  1  2  0  0  0  0
  3  2  1  0  0  0  0
  4  3  2  0  0  0  0
  4  5  1  0  0  0  0
  5  6  2  0  0  0  0
  6  1  1  0  0  0  0
  7  5  1  0  0  0  0
  8  7  1  0  0  0  0
  9  7  2  0  0  0  0
  9 10  1  0  0  0  0
 11 10  1  0  0  0  0
 12 11  1  0  0  0  0
 12  4  1  0  0  0  0
 13 12  2  0  0  0  0
 14 13  1  0  0  0  0
 14 19  1  0  0  0  0
 15 14  2  0  0  0  0
 16 15  1  0  0  0  0
 16 17  2  0  0  0  0
 17 18  1  0  0  0  0
 18 19  2  0  0  0  0
 19 11  1  0  0  0  0
 20 17  1  0  0  0  0
 20 21  2  0  0  0  0
 22 20  1  0  0  0  0
 23 25  2  0  0  0  0
 23 22  1  0  0  0  0
 23 26  1  0  0  0  0
 24 23  2  0  0  0  0
 26 27  1  0  0  0  0
 28 26  1  0  0  0  0
 29 28  1  0  0  0  0
 29 30  1  0  0  0  0
 30 31  1  0  0  0  0
 31 32  1  0  0  0  0
 32 33  1  0  0  0  0
 33 35  1  0  0  0  0
 34 33  1  0  0  0  0
 35  9  1  0  0  0  0
 35 36  2  0  0  0  0
 37 22  1  0  0  0  0
 38 13  1  0  0  0  0
 39 38  1  0  0  0  0
 40 39  1  0  0  0  0
 41 42  1  0  0  0  0
 41 40  1  0  0  0  0
 42 43  1  0  0  0  0
 43 38  1  0  0  0  0
 45 44  1  0  0  0  0
M  END
>  <minimizedAffinity>
-4.981493

$$$$

 OpenBabel09082221283D

 45 50  0  0  0  0  0  0  0  0999 V2000
   12.2180    0.4590    4.3340 C   0  0  0  0  0  0  0  0  0  0  0  0
   12.2670    1.4750    3.3860 C   0  0  0  0  0  3  0  0  0  0  0  0
   11.3000    2.4800    3.3920 C   0  0  0  0  0  3  0  0  0  0  0  0
   10.2760    2.5000    4.3520 C   0  0  0  0  0  0  0  0  0  0  0  0
   10.1960    1.4500    5.3090 C   0  0  0  0  0  0  0  0  0  0  0  0
   11.1860    0.4500    5.2780 C   0  0  0  0  0  3  0  0  0  0  0  0
    9.1200    1.3760    6.3550 C   0  0  0  0  0  0  0  0  0  0  0  0
    9.5580    0.9790    7.7430 C   0  0  0  0  0  1  0  0  0  0  0  0
    7.8460    1.6970    6.0270 C   0  0  0  0  0  0  0  0  0  0  0  0
    7.3980    2.0300    4.6300 C   0  0  0  0  0  2  0  0  0  0  0  0
    7.9340    3.3460    4.3010 N   0  0  0  0  0  0  0  0  0  0  0  0
    9.2920    3.6030    4.2960 C   0  0  0  0  0  0  0  0  0  0  0  0
    9.4490    4.9880    4.3830 C   0  0  0  0  0  0  0  0  0  0  0  0
    8.1230    5.5620    4.4080 C   0  0  0  0  0  0  0  0  0  0  0  0
    7.6040    6.8690    4.5720 C   0  0  0  0  0  3  0  0  0  0  0  0
    6.2180    7.0860    4.6130 C   0  0  0  0  0  3  0  0  0  0  0  0
    5.3410    6.0140    4.4660 C   0  0  0  0  0  0  0  0  0  0  0  0
    5.8190    4.7140    4.2830 C   0  0  0  0  0  3  0  0  0  0  0  0
    7.2090    4.5130    4.2920 C   0  0  0  0  0  0  0  0  0  0  0  0
    3.8770    6.1620    4.6230 C   0  0  0  0  0  0  0  0  0  0  0  0
    3.1090    5.5990    3.8610 O   0  0  0  0  0  0  0  0  0  0  0  0
    3.5140    6.8970    5.7540 N   0  0  0  0  0  0  0  0  0  0  0  0
    2.0210    6.9170    6.4570 S   0  0  0  0  0  0  0  0  0  0  0  0
    2.1630    7.8490    7.5540 O   0  0  0  0  0  0  0  0  0  0  0  0
    0.9830    7.0630    5.4710 O   0  0  0  0  0  0  0  0  0  0  0  0
    2.0040    5.3500    7.1020 N   0  0  0  0  0  0  0  0  0  0  0  0
    1.2830    4.3370    6.2980 C   0  0  0  0  0  1  0  0  0  0  0  0
    1.7070    5.2340    8.5590 C   0  0  0  0  0  2  0  0  0  0  0  0
    2.9620    5.4690    9.4100 C   0  0  0  0  0  2  0  0  0  0  0  0
    3.7660    4.2930    9.5690 O   0  0  0  0  0  0  0  0  0  0  0  0
    4.5750    3.9800    8.4330 C   0  0  0  0  0  2  0  0  0  0  0  0
    5.6780    3.0090    8.8770 C   0  0  0  0  0  2  0  0  0  0  0  0
    6.7710    2.8790    7.9080 N   0  0  0  0  0  0  0  0  0  0  0  0
    7.7740    3.9420    7.9380 C   0  0  0  0  0  1  0  0  0  0  0  0
    6.7430    1.8120    7.0200 C   0  0  0  0  0  0  0  0  0  0  0  0
    5.8190    1.0030    6.9610 O   0  0  0  0  0  0  0  0  0  0  0  0
    4.2250    7.1900    6.4130 H   0  0  0  0  0  0  0  0  0  0  0  0
   10.7770    5.6970    4.5660 C   0  0  0  0  0  3  0  0  0  0  0  0
   10.7890    7.1690    4.1290 C   0  0  0  0  0  2  0  0  0  0  0  0
   12.1820    7.7810    4.2850 C   0  0  0  0  0  2  0  0  0  0  0  0
   12.7210    7.6080    5.7050 C   0  0  0  0  0  2  0  0  0  0  0  0
   12.6950    6.1490    6.1490 C   0  0  0  0  0  2  0  0  0  0  0  0
   11.3030    5.5400    6.0020 C   0  0  0  0  0  2  0  0  0  0  0  0
   12.5470   -1.8760    4.6420 C   0  0  0  0  0  1  0  0  0  0  0  0
   13.1000   -0.5810    4.4430 O   0  0  0  0  0  0  0  0  0  0  0  0
  1 45  1  0  0  0  0
  1  6  1  0  0  0  0
  2  3  1  0  0  0  0
  2  1  2  0  0  0  0
  3  4  2  0  0  0  0
  4  5  1  0  0  0  0
  5  7  1  0  0  0  0
  6  5  2  0  0  0  0
  7  8  1  0  0  0  0
  9  7  2  0  0  0  0
  9 35  1  0  0  0  0
 10  9  1  0  0  0  0
 11 10  1  0  0  0  0
 12 11  1  0  0  0  0
 12  4  1  0  0  0  0
 12 13  2  0  0  0  0
 13 14  1  0  0  0  0
 13 38  1  0  0  0  0
 14 15  1  0  0  0  0
 15 16  2  0  0  0  0
 17 16  1  0  0  0  0
 17 20  1  0  0  0  0
 18 19  1  0  0  0  0
 18 17  2  0  0  0  0
 19 11  1  0  0  0  0
 19 14  2  0  0  0  0
 20 22  1  0  0  0  0
 21 20  2  0  0  0  0
 22 37  1  0  0  0  0
 22 23  1  0  0  0  0
 23 26  1  0  0  0  0
 23 24  2  0  0  0  0
 25 23  2  0  0  0  0
 26 28  1  0  0  0  0
 27 26  1  0  0  0  0
 28 29  1  0  0  0  0
 29 30  1  0  0  0  0
 31 32  1  0  0  0  0
 31 30  1  0  0  0  0
 33 34  1  0  0  0  0
 33 32  1  0  0  0  0
 35 33  1  0  0  0  0
 36 35  2  0  0  0  0
 38 43  1  0  0  0  0
 39 40  1  0  0  0  0
 39 38  1  0  0  0  0
 40 41  1  0  0  0  0
 41 42  1  0  0  0  0
 43 42  1  0  0  0  0
 45 44  1  0  0  0  0
M  END
>  <minimizedAffinity>
-4.87269306

$$$$

 OpenBabel09082221283D

 45 50  0  0  0  0  0  0  0  0999 V2000
    4.3940   -1.8220    4.9340 C   0  0  0  0  0  0  0  0  0  0  0  0
    5.3650   -2.1040    3.9800 C   0  0  0  0  0  3  0  0  0  0  0  0
    6.4860   -1.2810    3.8620 C   0  0  0  0  0  3  0  0  0  0  0  0
    6.6650   -0.1700    4.7020 C   0  0  0  0  0  0  0  0  0  0  0  0
    5.6640    0.1480    5.6620 C   0  0  0  0  0  0  0  0  0  0  0  0
    4.5460   -0.7010    5.7580 C   0  0  0  0  0  3  0  0  0  0  0  0
    5.7600    1.3310    6.5830 C   0  0  0  0  0  0  0  0  0  0  0  0
    5.3540    1.1010    8.0170 C   0  0  0  0  0  1  0  0  0  0  0  0
    6.2310    2.5100    6.1100 C   0  0  0  0  0  0  0  0  0  0  0  0
    6.5740    2.7570    4.6670 C   0  0  0  0  0  2  0  0  0  0  0  0
    7.8010    2.0220    4.3770 N   0  0  0  0  0  0  0  0  0  0  0  0
    7.8820    0.6510    4.5190 C   0  0  0  0  0  0  0  0  0  0  0  0
    9.2380    0.3240    4.5990 C   0  0  0  0  0  0  0  0  0  0  0  0
    9.9770    1.5600    4.4670 C   0  0  0  0  0  0  0  0  0  0  0  0
   11.3440    1.9200    4.5510 C   0  0  0  0  0  3  0  0  0  0  0  0
   11.7360    3.2620    4.4340 C   0  0  0  0  0  3  0  0  0  0  0  0
   10.7800    4.2490    4.2080 C   0  0  0  0  0  0  0  0  0  0  0  0
    9.4250    3.9270    4.1010 C   0  0  0  0  0  3  0  0  0  0  0  0
    9.0500    2.5850    4.2670 C   0  0  0  0  0  0  0  0  0  0  0  0
   11.1180    5.6910    4.1980 C   0  0  0  0  0  0  0  0  0  0  0  0
   10.6340    6.4380    3.3660 O   0  0  0  0  0  0  0  0  0  0  0  0
   11.9280    6.0740    5.2700 N   0  0  0  0  0  0  0  0  0  0  0  0
   12.1600    7.6190    5.8020 S   0  0  0  0  0  0  0  0  0  0  0  0
   13.1000    7.4770    6.8920 O   0  0  0  0  0  0  0  0  0  0  0  0
   12.4060    8.5170    4.7040 O   0  0  0  0  0  0  0  0  0  0  0  0
   10.6290    7.9090    6.4680 N   0  0  0  0  0  0  0  0  0  0  0  0
    9.6910    8.6640    5.6060 C   0  0  0  0  0  1  0  0  0  0  0  0
   10.5960    8.3740    7.8850 C   0  0  0  0  0  2  0  0  0  0  0  0
   10.6970    7.1990    8.8660 C   0  0  0  0  0  2  0  0  0  0  0  0
    9.4340    6.5760    9.1330 O   0  0  0  0  0  0  0  0  0  0  0  0
    8.9840    5.6970    8.0990 C   0  0  0  0  0  2  0  0  0  0  0  0
    7.8950    4.7840    8.6790 C   0  0  0  0  0  2  0  0  0  0  0  0
    7.5970    3.6190    7.8400 N   0  0  0  0  0  0  0  0  0  0  0  0
    8.5250    2.4960    7.9640 C   0  0  0  0  0  1  0  0  0  0  0  0
    6.5160    3.6890    6.9730 C   0  0  0  0  0  0  0  0  0  0  0  0
    5.8290    4.6980    6.8250 O   0  0  0  0  0  0  0  0  0  0  0  0
   12.1490    5.4070    5.9990 H   0  0  0  0  0  0  0  0  0  0  0  0
    9.7780   -1.0570    4.9170 C   0  0  0  0  0  3  0  0  0  0  0  0
   10.8170   -1.5890    3.9200 C   0  0  0  0  0  2  0  0  0  0  0  0
   11.2520   -3.0100    4.2800 C   0  0  0  0  0  2  0  0  0  0  0  0
   11.7530   -3.1010    5.7210 C   0  0  0  0  0  2  0  0  0  0  0  0
   10.7300   -2.5570    6.7140 C   0  0  0  0  0  2  0  0  0  0  0  0
   10.3020   -1.1350    6.3600 C   0  0  0  0  0  2  0  0  0  0  0  0
    2.3340   -2.0180    6.1070 C   0  0  0  0  0  1  0  0  0  0  0  0
    3.2540   -2.5440    5.1590 O   0  0  0  0  0  0  0  0  0  0  0  0
  1 45  1  0  0  0  0
  1  6  1  0  0  0  0
  2  1  2  0  0  0  0
  3  2  1  0  0  0  0
  3  4  2  0  0  0  0
  4  5  1  0  0  0  0
  5  6  2  0  0  0  0
  5  7  1  0  0  0  0
  7  8  1  0  0  0  0
  9  7  2  0  0  0  0
  9 35  1  0  0  0  0
 10  9  1  0  0  0  0
 11 12  1  0  0  0  0
 11 10  1  0  0  0  0
 12 13  2  0  0  0  0
 12  4  1  0  0  0  0
 13 38  1  0  0  0  0
 14 15  1  0  0  0  0
 14 13  1  0  0  0  0
 16 15  2  0  0  0  0
 17 16  1  0  0  0  0
 18 17  2  0  0  0  0
 18 19  1  0  0  0  0
 19 11  1  0  0  0  0
 19 14  2  0  0  0  0
 20 17  1  0  0  0  0
 20 22  1  0  0  0  0
 21 20  2  0  0  0  0
 22 23  1  0  0  0  0
 22 37  1  0  0  0  0
 23 26  1  0  0  0  0
 23 24  2  0  0  0  0
 25 23  2  0  0  0  0
 26 28  1  0  0  0  0
 27 26  1  0  0  0  0
 28 29  1  0  0  0  0
 29 30  1  0  0  0  0
 31 32  1  0  0  0  0
 31 30  1  0  0  0  0
 33 34  1  0  0  0  0
 33 32  1  0  0  0  0
 35 33  1  0  0  0  0
 36 35  2  0  0  0  0
 38 43  1  0  0  0  0
 39 40  1  0  0  0  0
 39 38  1  0  0  0  0
 40 41  1  0  0  0  0
 41 42  1  0  0  0  0
 43 42  1  0  0  0  0
 45 44  1  0  0  0  0
M  END
>  <minimizedAffinity>
-4.85917091

$$$$

 OpenBabel09082221283D

 45 50  0  0  0  0  0  0  0  0999 V2000
    3.9760   -0.9200    5.6800 C   0  0  0  0  0  0  0  0  0  0  0  0
    4.7750   -1.2070    4.5790 C   0  0  0  0  0  3  0  0  0  0  0  0
    5.8720   -0.3960    4.2840 C   0  0  0  0  0  3  0  0  0  0  0  0
    6.2000    0.7060    5.0890 C   0  0  0  0  0  0  0  0  0  0  0  0
    5.3730    1.0290    6.2010 C   0  0  0  0  0  0  0  0  0  0  0  0
    4.2740    0.1930    6.4740 C   0  0  0  0  0  3  0  0  0  0  0  0
    5.6330    2.2050    7.1000 C   0  0  0  0  0  0  0  0  0  0  0  0
    5.4630    1.9690    8.5800 C   0  0  0  0  0  1  0  0  0  0  0  0
    6.0360    3.3810    6.5630 C   0  0  0  0  0  0  0  0  0  0  0  0
    6.1420    3.6340    5.0840 C   0  0  0  0  0  2  0  0  0  0  0  0
    7.2960    2.8870    4.5950 N   0  0  0  0  0  0  0  0  0  0  0  0
    7.3810    1.5130    4.7140 C   0  0  0  0  0  0  0  0  0  0  0  0
    8.7280    1.1710    4.5700 C   0  0  0  0  0  0  0  0  0  0  0  0
    9.4510    2.3980    4.3260 C   0  0  0  0  0  0  0  0  0  0  0  0
   10.8180    2.7410    4.1870 C   0  0  0  0  0  3  0  0  0  0  0  0
   11.2030    4.0800    4.0150 C   0  0  0  0  0  3  0  0  0  0  0  0
   10.2360    5.0800    3.9530 C   0  0  0  0  0  0  0  0  0  0  0  0
    8.8780    4.7750    4.0670 C   0  0  0  0  0  3  0  0  0  0  0  0
    8.5170    3.4360    4.2860 C   0  0  0  0  0  0  0  0  0  0  0  0
   10.5860    6.5170    3.8960 C   0  0  0  0  0  0  0  0  0  0  0  0
    9.9830    7.2760    3.1580 O   0  0  0  0  0  0  0  0  0  0  0  0
   11.5650    6.8830    4.8230 N   0  0  0  0  0  0  0  0  0  0  0  0
   11.9000    8.4220    5.3180 S   0  0  0  0  0  0  0  0  0  0  0  0
   13.0040    8.2600    6.2400 O   0  0  0  0  0  0  0  0  0  0  0  0
   11.9760    9.3240    4.2000 O   0  0  0  0  0  0  0  0  0  0  0  0
   10.5020    8.7250    6.2260 N   0  0  0  0  0  0  0  0  0  0  0  0
    9.4460    9.4970    5.5330 C   0  0  0  0  0  1  0  0  0  0  0  0
   10.7070    9.1800    7.6320 C   0  0  0  0  0  2  0  0  0  0  0  0
   10.9510    7.9970    8.5770 C   0  0  0  0  0  2  0  0  0  0  0  0
    9.7410    7.3870    9.0430 O   0  0  0  0  0  0  0  0  0  0  0  0
    9.1170    6.5210    8.0920 C   0  0  0  0  0  2  0  0  0  0  0  0
    8.1260    5.6160    8.8380 C   0  0  0  0  0  2  0  0  0  0  0  0
    7.6800    4.4610    8.0520 N   0  0  0  0  0  0  0  0  0  0  0  0
    8.6010    3.3260    8.0170 C   0  0  0  0  0  1  0  0  0  0  0  0
    6.4720    4.5500    7.3740 C   0  0  0  0  0  0  0  0  0  0  0  0
    5.7840    5.5690    7.3450 O   0  0  0  0  0  0  0  0  0  0  0  0
   11.8930    6.2080    5.5030 H   0  0  0  0  0  0  0  0  0  0  0  0
    9.2950   -0.2190    4.7880 C   0  0  0  0  0  3  0  0  0  0  0  0
   10.1520   -0.7560    3.6330 C   0  0  0  0  0  2  0  0  0  0  0  0
   10.6210   -2.1840    3.9100 C   0  0  0  0  0  2  0  0  0  0  0  0
   11.3480   -2.2920    5.2500 C   0  0  0  0  0  2  0  0  0  0  0  0
   10.5060   -1.7440    6.3990 C   0  0  0  0  0  2  0  0  0  0  0  0
   10.0440   -0.3140    6.1270 C   0  0  0  0  0  2  0  0  0  0  0  0
    2.6510   -1.7240    7.4840 C   0  0  0  0  0  1  0  0  0  0  0  0
    2.8790   -1.6300    6.0840 O   0  0  0  0  0  0  0  0  0  0  0  0
  1 45  1  0  0  0  0
  1  6  1  0  0  0  0
  2  1  2  0  0  0  0
  3  2  1  0  0  0  0
  3  4  2  0  0  0  0
  4  5  1  0  0  0  0
  5  6  2  0  0  0  0
  5  7  1  0  0  0  0
  7  8  1  0  0  0  0
  9  7  2  0  0  0  0
  9 35  1  0  0  0  0
 10  9  1  0  0  0  0
 11 12  1  0  0  0  0
 11 10  1  0  0  0  0
 12  4  1  0  0  0  0
 13 12  2  0  0  0  0
 13 38  1  0  0  0  0
 14 13  1  0  0  0  0
 15 14  2  0  0  0  0
 16 15  1  0  0  0  0
 17 16  2  0  0  0  0
 17 18  1  0  0  0  0
 18 19  2  0  0  0  0
 19 14  1  0  0  0  0
 19 11  1  0  0  0  0
 20 17  1  0  0  0  0
 20 22  1  0  0  0  0
 21 20  2  0  0  0  0
 22 23  1  0  0  0  0
 22 37  1  0  0  0  0
 23 26  1  0  0  0  0
 23 24  2  0  0  0  0
 25 23  2  0  0  0  0
 26 28  1  0  0  0  0
 27 26  1  0  0  0  0
 28 29  1  0  0  0  0
 29 30  1  0  0  0  0
 31 32  1  0  0  0  0
 31 30  1  0  0  0  0
 33 32  1  0  0  0  0
 34 33  1  0  0  0  0
 35 33  1  0  0  0  0
 36 35  2  0  0  0  0
 38 43  1  0  0  0  0
 39 40  1  0  0  0  0
 39 38  1  0  0  0  0
 40 41  1  0  0  0  0
 41 42  1  0  0  0  0
 43 42  1  0  0  0  0
 45 44  1  0  0  0  0
M  END
>  <minimizedAffinity>
-4.80620623

$$$$

 OpenBabel09082221283D

 45 50  0  0  0  0  0  0  0  0999 V2000
    1.5950    8.0210    7.2010 C   0  0  0  0  0  0  0  0  0  0  0  0
    2.4400    9.0110    6.7120 C   0  0  0  0  0  3  0  0  0  0  0  0
    3.6570    8.6610    6.1250 C   0  0  0  0  0  3  0  0  0  0  0  0
    4.0450    7.3180    6.0010 C   0  0  0  0  0  0  0  0  0  0  0  0
    3.2050    6.2960    6.5250 C   0  0  0  0  0  0  0  0  0  0  0  0
    1.9840    6.6800    7.1110 C   0  0  0  0  0  3  0  0  0  0  0  0
    3.5540    4.8370    6.4610 C   0  0  0  0  0  0  0  0  0  0  0  0
    2.4350    3.8940    6.0910 C   0  0  0  0  0  1  0  0  0  0  0  0
    4.8290    4.4430    6.6910 C   0  0  0  0  0  0  0  0  0  0  0  0
    5.9290    5.3750    7.1220 C   0  0  0  0  0  2  0  0  0  0  0  0
    6.2730    6.2050    5.9730 N   0  0  0  0  0  0  0  0  0  0  0  0
    5.3470    7.0280    5.3620 C   0  0  0  0  0  0  0  0  0  0  0  0
    5.8390    7.3260    4.0880 C   0  0  0  0  0  0  0  0  0  0  0  0
    7.1220    6.6710    3.9680 C   0  0  0  0  0  0  0  0  0  0  0  0
    8.0660    6.5080    2.9260 C   0  0  0  0  0  3  0  0  0  0  0  0
    9.2210    5.7350    3.1240 C   0  0  0  0  0  3  0  0  0  0  0  0
    9.4580    5.1430    4.3620 C   0  0  0  0  0  0  0  0  0  0  0  0
    8.5570    5.2980    5.4170 C   0  0  0  0  0  3  0  0  0  0  0  0
    7.3860    6.0370    5.1840 C   0  0  0  0  0  0  0  0  0  0  0  0
   10.5910    4.2190    4.5930 C   0  0  0  0  0  0  0  0  0  0  0  0
   11.2460    4.2810    5.6190 O   0  0  0  0  0  0  0  0  0  0  0  0
   10.7320    3.2560    3.5900 N   0  0  0  0  0  0  0  0  0  0  0  0
   11.5940    1.8540    3.7100 S   0  0  0  0  0  0  0  0  0  0  0  0
   11.4520    1.2430    2.4060 O   0  0  0  0  0  0  0  0  0  0  0  0
   12.8860    2.0860    4.3000 O   0  0  0  0  0  0  0  0  0  0  0  0
   10.5950    1.0140    4.7910 N   0  0  0  0  0  0  0  0  0  0  0  0
   11.0200    1.0460    6.2090 C   0  0  0  0  0  1  0  0  0  0  0  0
   10.1460   -0.3430    4.3640 C   0  0  0  0  0  2  0  0  0  0  0  0
    8.9240   -0.2670    3.4410 C   0  0  0  0  0  2  0  0  0  0  0  0
    7.6830   -0.1760    4.1520 O   0  0  0  0  0  0  0  0  0  0  0  0
    7.3970    1.1280    4.6650 C   0  0  0  0  0  2  0  0  0  0  0  0
    5.8990    1.2010    4.9940 C   0  0  0  0  0  2  0  0  0  0  0  0
    5.4090    2.5680    5.1960 N   0  0  0  0  0  0  0  0  0  0  0  0
    5.1200    3.3240    3.9780 C   0  0  0  0  0  1  0  0  0  0  0  0
    5.3090    3.0480    6.4940 C   0  0  0  0  0  0  0  0  0  0  0  0
    5.6680    2.4110    7.4830 O   0  0  0  0  0  0  0  0  0  0  0  0
   10.0380    3.1900    2.8550 H   0  0  0  0  0  0  0  0  0  0  0  0
    5.0680    8.0720    3.0170 C   0  0  0  0  0  3  0  0  0  0  0  0
    3.6640    7.5220    2.7290 C   0  0  0  0  0  2  0  0  0  0  0  0
    2.9900    8.2900    1.5920 C   0  0  0  0  0  2  0  0  0  0  0  0
    2.9630    9.7940    1.8620 C   0  0  0  0  0  2  0  0  0  0  0  0
    4.3550   10.3430    2.1650 C   0  0  0  0  0  2  0  0  0  0  0  0
    5.0240    9.5810    3.3070 C   0  0  0  0  0  2  0  0  0  0  0  0
   -0.3060    7.0710    8.2690 C   0  0  0  0  0  1  0  0  0  0  0  0
    0.3790    8.2230    7.7940 O   0  0  0  0  0  0  0  0  0  0  0  0
  1 45  1  0  0  0  0
  2  1  2  0  0  0  0
  3  2  1  0  0  0  0
  4  3  2  0  0  0  0
  4  5  1  0  0  0  0
  5  6  2  0  0  0  0
  6  1  1  0  0  0  0
  7  5  1  0  0  0  0
  7  9  2  0  0  0  0
  8  7  1  0  0  0  0
  9 10  1  0  0  0  0
 11 10  1  0  0  0  0
 12 11  1  0  0  0  0
 12  4  1  0  0  0  0
 13 12  2  0  0  0  0
 14 13  1  0  0  0  0
 14 19  1  0  0  0  0
 15 16  1  0  0  0  0
 15 14  2  0  0  0  0
 16 17  2  0  0  0  0
 17 20  1  0  0  0  0
 17 18  1  0  0  0  0
 19 18  2  0  0  0  0
 19 11  1  0  0  0  0
 20 21  2  0  0  0  0
 22 23  1  0  0  0  0
 22 20  1  0  0  0  0
 23 25  2  0  0  0  0
 23 26  1  0  0  0  0
 24 23  2  0  0  0  0
 26 27  1  0  0  0  0
 28 26  1  0  0  0  0
 29 30  1  0  0  0  0
 29 28  1  0  0  0  0
 30 31  1  0  0  0  0
 31 32  1  0  0  0  0
 32 33  1  0  0  0  0
 33 35  1  0  0  0  0
 34 33  1  0  0  0  0
 35  9  1  0  0  0  0
 35 36  2  0  0  0  0
 37 22  1  0  0  0  0
 38 43  1  0  0  0  0
 38 13  1  0  0  0  0
 39 38  1  0  0  0  0
 40 41  1  0  0  0  0
 40 39  1  0  0  0  0
 41 42  1  0  0  0  0
 42 43  1  0  0  0  0
 45 44  1  0  0  0  0
M  END
>  <minimizedAffinity>
-4.7731328

$$$$

 OpenBabel09082221283D

 45 50  0  0  0  0  0  0  0  0999 V2000
    1.6740    7.1050    8.2150 C   0  0  0  0  0  0  0  0  0  0  0  0
    2.4970    8.1830    7.9110 C   0  0  0  0  0  3  0  0  0  0  0  0
    3.7210    7.9680    7.2750 C   0  0  0  0  0  3  0  0  0  0  0  0
    4.1380    6.6770    6.9180 C   0  0  0  0  0  0  0  0  0  0  0  0
    3.3200    5.5610    7.2500 C   0  0  0  0  0  0  0  0  0  0  0  0
    2.0920    5.8090    7.8910 C   0  0  0  0  0  3  0  0  0  0  0  0
    3.7000    4.1430    6.9300 C   0  0  0  0  0  0  0  0  0  0  0  0
    2.6020    3.2570    6.3970 C   0  0  0  0  0  1  0  0  0  0  0  0
    4.9840    3.7420    7.0920 C   0  0  0  0  0  0  0  0  0  0  0  0
    6.0640    4.6060    7.6840 C   0  0  0  0  0  2  0  0  0  0  0  0
    6.3900    5.6330    6.7010 N   0  0  0  0  0  0  0  0  0  0  0  0
    5.4460    6.5310    6.2410 C   0  0  0  0  0  0  0  0  0  0  0  0
    5.9300    7.0600    5.0420 C   0  0  0  0  0  0  0  0  0  0  0  0
    7.2270    6.4640    4.8120 C   0  0  0  0  0  0  0  0  0  0  0  0
    8.1740    6.5080    3.7610 C   0  0  0  0  0  3  0  0  0  0  0  0
    9.3450    5.7370    3.8230 C   0  0  0  0  0  3  0  0  0  0  0  0
    9.5950    4.9400    4.9380 C   0  0  0  0  0  0  0  0  0  0  0  0
    8.6920    4.8880    6.0010 C   0  0  0  0  0  3  0  0  0  0  0  0
    7.5050    5.6310    5.8980 C   0  0  0  0  0  0  0  0  0  0  0  0
   10.7490    4.0140    5.0060 C   0  0  0  0  0  0  0  0  0  0  0  0
   11.4020    3.9080    6.0290 O   0  0  0  0  0  0  0  0  0  0  0  0
   10.9090    3.2470    3.8490 N   0  0  0  0  0  0  0  0  0  0  0  0
   11.8010    1.8640    3.7230 S   0  0  0  0  0  0  0  0  0  0  0  0
   11.6720    1.4900    2.3310 O   0  0  0  0  0  0  0  0  0  0  0  0
   13.0880    2.0150    4.3480 O   0  0  0  0  0  0  0  0  0  0  0  0
   10.8210    0.8250    4.6340 N   0  0  0  0  0  0  0  0  0  0  0  0
   11.2460    0.6160    6.0370 C   0  0  0  0  0  1  0  0  0  0  0  0
   10.4010   -0.4440    3.9740 C   0  0  0  0  0  2  0  0  0  0  0  0
    9.1770   -0.2330    3.0740 C   0  0  0  0  0  2  0  0  0  0  0  0
    7.9340   -0.2940    3.7860 O   0  0  0  0  0  0  0  0  0  0  0  0
    7.6210    0.8920    4.5200 C   0  0  0  0  0  2  0  0  0  0  0  0
    6.1220    0.8740    4.8520 C   0  0  0  0  0  2  0  0  0  0  0  0
    5.6030    2.1730    5.2910 N   0  0  0  0  0  0  0  0  0  0  0  0
    5.2970    3.1260    4.2250 C   0  0  0  0  0  1  0  0  0  0  0  0
    5.4940    2.4150    6.6530 C   0  0  0  0  0  0  0  0  0  0  0  0
    5.8670    1.6210    7.5150 O   0  0  0  0  0  0  0  0  0  0  0  0
   10.2170    3.2970    3.1120 H   0  0  0  0  0  0  0  0  0  0  0  0
    5.1430    7.9670    4.1160 C   0  0  0  0  0  3  0  0  0  0  0  0
    5.8630    9.2630    3.7160 C   0  0  0  0  0  2  0  0  0  0  0  0
    4.9700   10.1440    2.8420 C   0  0  0  0  0  2  0  0  0  0  0  0
    4.4490    9.3870    1.6210 C   0  0  0  0  0  2  0  0  0  0  0  0
    3.7480    8.0900    2.0120 C   0  0  0  0  0  2  0  0  0  0  0  0
    4.6420    7.2060    2.8790 C   0  0  0  0  0  2  0  0  0  0  0  0
    0.3950    6.7650   10.1900 C   0  0  0  0  0  1  0  0  0  0  0  0
    0.4540    7.1730    8.8300 O   0  0  0  0  0  0  0  0  0  0  0  0
  1 45  1  0  0  0  0
  2  1  1  0  0  0  0
  3  2  2  0  0  0  0
  4  5  2  0  0  0  0
  4  3  1  0  0  0  0
  5  6  1  0  0  0  0
  6  1  2  0  0  0  0
  7  9  2  0  0  0  0
  7  5  1  0  0  0  0
  8  7  1  0  0  0  0
  9 10  1  0  0  0  0
 11 10  1  0  0  0  0
 12 11  1  0  0  0  0
 12  4  1  0  0  0  0
 13 12  2  0  0  0  0
 14 13  1  0  0  0  0
 14 19  1  0  0  0  0
 15 16  1  0  0  0  0
 15 14  2  0  0  0  0
 16 17  2  0  0  0  0
 17 20  1  0  0  0  0
 17 18  1  0  0  0  0
 19 18  2  0  0  0  0
 19 11  1  0  0  0  0
 20 21  2  0  0  0  0
 22 20  1  0  0  0  0
 23 22  1  0  0  0  0
 23 25  2  0  0  0  0
 23 26  1  0  0  0  0
 24 23  2  0  0  0  0
 26 27  1  0  0  0  0
 28 26  1  0  0  0  0
 29 30  1  0  0  0  0
 29 28  1  0  0  0  0
 30 31  1  0  0  0  0
 31 32  1  0  0  0  0
 32 33  1  0  0  0  0
 33 35  1  0  0  0  0
 34 33  1  0  0  0  0
 35  9  1  0  0  0  0
 35 36  2  0  0  0  0
 37 22  1  0  0  0  0
 38 13  1  0  0  0  0
 39 38  1  0  0  0  0
 40 39  1  0  0  0  0
 41 42  1  0  0  0  0
 41 40  1  0  0  0  0
 42 43  1  0  0  0  0
 43 38  1  0  0  0  0
 45 44  1  0  0  0  0
M  END
>  <minimizedAffinity>
-4.65381432

$$$$
