
 OpenBabel09092210413D

 45 50  0  0  0  0  0  0  0  0999 V2000
   12.2180    0.4590    4.3340 C   0  0  0  0  0  0  0  0  0  0  0  0
   12.2670    1.4750    3.3860 C   0  0  0  0  0  3  0  0  0  0  0  0
   11.3000    2.4800    3.3920 C   0  0  0  0  0  3  0  0  0  0  0  0
   10.2760    2.5000    4.3520 C   0  0  0  0  0  0  0  0  0  0  0  0
   10.1960    1.4500    5.3090 C   0  0  0  0  0  0  0  0  0  0  0  0
   11.1860    0.4500    5.2780 C   0  0  0  0  0  3  0  0  0  0  0  0
    9.1200    1.3760    6.3550 C   0  0  0  0  0  0  0  0  0  0  0  0
    9.5580    0.9790    7.7430 C   0  0  0  0  0  1  0  0  0  0  0  0
    7.8460    1.6970    6.0270 C   0  0  0  0  0  0  0  0  0  0  0  0
    7.3980    2.0300    4.6300 C   0  0  0  0  0  2  0  0  0  0  0  0
    7.9340    3.3460    4.3010 N   0  0  0  0  0  0  0  0  0  0  0  0
    9.2920    3.6030    4.2960 C   0  0  0  0  0  0  0  0  0  0  0  0
    9.4490    4.9880    4.3830 C   0  0  0  0  0  0  0  0  0  0  0  0
    8.1230    5.5620    4.4080 C   0  0  0  0  0  0  0  0  0  0  0  0
    7.6040    6.8690    4.5720 C   0  0  0  0  0  3  0  0  0  0  0  0
    6.2180    7.0860    4.6130 C   0  0  0  0  0  3  0  0  0  0  0  0
    5.3410    6.0140    4.4660 C   0  0  0  0  0  0  0  0  0  0  0  0
    5.8190    4.7140    4.2830 C   0  0  0  0  0  3  0  0  0  0  0  0
    7.2090    4.5130    4.2920 C   0  0  0  0  0  0  0  0  0  0  0  0
    3.8770    6.1620    4.6230 C   0  0  0  0  0  0  0  0  0  0  0  0
    3.1090    5.5990    3.8610 O   0  0  0  0  0  0  0  0  0  0  0  0
    3.5140    6.8970    5.7540 N   0  0  0  0  0  0  0  0  0  0  0  0
    2.0210    6.9170    6.4570 S   0  0  0  0  0  0  0  0  0  0  0  0
    2.1630    7.8490    7.5540 O   0  0  0  0  0  0  0  0  0  0  0  0
    0.9830    7.0630    5.4710 O   0  0  0  0  0  0  0  0  0  0  0  0
    2.0040    5.3500    7.1020 N   0  0  0  0  0  0  0  0  0  0  0  0
    1.2830    4.3370    6.2980 C   0  0  0  0  0  1  0  0  0  0  0  0
    1.7070    5.2340    8.5590 C   0  0  0  0  0  2  0  0  0  0  0  0
    2.9620    5.4690    9.4100 C   0  0  0  0  0  2  0  0  0  0  0  0
    3.7660    4.2930    9.5690 O   0  0  0  0  0  0  0  0  0  0  0  0
    4.5750    3.9800    8.4330 C   0  0  0  0  0  2  0  0  0  0  0  0
    5.6780    3.0090    8.8770 C   0  0  0  0  0  2  0  0  0  0  0  0
    6.7710    2.8790    7.9080 N   0  0  0  0  0  0  0  0  0  0  0  0
    7.7740    3.9420    7.9380 C   0  0  0  0  0  1  0  0  0  0  0  0
    6.7430    1.8120    7.0200 C   0  0  0  0  0  0  0  0  0  0  0  0
    5.8190    1.0030    6.9610 O   0  0  0  0  0  0  0  0  0  0  0  0
    4.2250    7.1900    6.4130 H   0  0  0  0  0  0  0  0  0  0  0  0
   10.7770    5.6970    4.5660 C   0  0  0  0  0  3  0  0  0  0  0  0
   10.7890    7.1690    4.1290 C   0  0  0  0  0  2  0  0  0  0  0  0
   12.1820    7.7810    4.2850 C   0  0  0  0  0  2  0  0  0  0  0  0
   12.7210    7.6080    5.7050 C   0  0  0  0  0  2  0  0  0  0  0  0
   12.6950    6.1490    6.1490 C   0  0  0  0  0  2  0  0  0  0  0  0
   11.3030    5.5400    6.0020 C   0  0  0  0  0  2  0  0  0  0  0  0
   12.5470   -1.8760    4.6420 C   0  0  0  0  0  1  0  0  0  0  0  0
   13.1000   -0.5810    4.4430 O   0  0  0  0  0  0  0  0  0  0  0  0
  1 45  1  0  0  0  0
  1  6  1  0  0  0  0
  2  3  1  0  0  0  0
  2  1  2  0  0  0  0
  3  4  2  0  0  0  0
  4  5  1  0  0  0  0
  5  7  1  0  0  0  0
  6  5  2  0  0  0  0
  7  8  1  0  0  0  0
  9  7  2  0  0  0  0
  9 35  1  0  0  0  0
 10  9  1  0  0  0  0
 11 10  1  0  0  0  0
 12 11  1  0  0  0  0
 12  4  1  0  0  0  0
 12 13  2  0  0  0  0
 13 14  1  0  0  0  0
 13 38  1  0  0  0  0
 14 15  1  0  0  0  0
 15 16  2  0  0  0  0
 17 16  1  0  0  0  0
 17 20  1  0  0  0  0
 18 19  1  0  0  0  0
 18 17  2  0  0  0  0
 19 11  1  0  0  0  0
 19 14  2  0  0  0  0
 20 22  1  0  0  0  0
 21 20  2  0  0  0  0
 22 37  1  0  0  0  0
 22 23  1  0  0  0  0
 23 26  1  0  0  0  0
 23 24  2  0  0  0  0
 25 23  2  0  0  0  0
 26 28  1  0  0  0  0
 27 26  1  0  0  0  0
 28 29  1  0  0  0  0
 29 30  1  0  0  0  0
 31 32  1  0  0  0  0
 31 30  1  0  0  0  0
 33 34  1  0  0  0  0
 33 32  1  0  0  0  0
 35 33  1  0  0  0  0
 36 35  2  0  0  0  0
 38 43  1  0  0  0  0
 39 40  1  0  0  0  0
 39 38  1  0  0  0  0
 40 41  1  0  0  0  0
 41 42  1  0  0  0  0
 43 42  1  0  0  0  0
 45 44  1  0  0  0  0
M  END
>  <minimizedAffinity>
-4.87269306

$$$$
