REMARK  Name = 
REMARK  7 active torsions:
REMARK  status: ('A' for Active; 'I' for Inactive)
REMARK    1  A    between atoms: C_2  and  C_3
REMARK    2  A    between atoms: C_3  and  N_4
REMARK    3  A    between atoms: C_5  and  C_6
REMARK    4  A    between atoms: C_13  and  C_14
REMARK    5  A    between atoms: C_23  and  C_24
REMARK    6  A    between atoms: N_29  and  C_30
REMARK    7  A    between atoms: C_30  and  C_31
REMARK                            x       y       z     vdW  Elec       q    Type
REMARK                         _______ _______ _______ _____ _____    ______ ____
ROOT
ATOM      1  N   UNL     1       3.692   1.925   0.109  0.00  0.00    -0.331 N 
ATOM      2  C   UNL     1       4.879   1.772   0.804  0.00  0.00    +0.054 A 
ATOM      3  C   UNL     1       5.371   3.045   1.083  0.00  0.00    -0.011 A 
ATOM      4  C   UNL     1       4.484   3.985   0.457  0.00  0.00    +0.004 A 
ATOM      5  C   UNL     1       4.459   5.393   0.349  0.00  0.00    +0.011 A 
ATOM      6  C   UNL     1       3.452   6.027  -0.392  0.00  0.00    +0.010 A 
ATOM      7  C   UNL     1       2.448   5.294  -1.031  0.00  0.00    -0.001 A 
ATOM      8  C   UNL     1       2.448   3.894  -0.902  0.00  0.00    +0.036 A 
ATOM      9  C   UNL     1       3.465   3.259  -0.163  0.00  0.00    +0.051 A 
ENDROOT
BRANCH   2  10
ATOM     10  C   UNL     1       5.445   0.474   1.163  0.00  0.00    -0.001 A 
ATOM     11  C   UNL     1       5.259  -0.044   2.450  0.00  0.00    +0.011 A 
ATOM     12  C   UNL     1       5.801  -1.284   2.793  0.00  0.00    +0.020 A 
ATOM     13  C   UNL     1       6.533  -2.003   1.849  0.00  0.00    +0.041 A 
ATOM     14 CL   UNL     1       7.189  -3.538   2.265  0.00  0.00    -0.084 Cl
ATOM     15  C   UNL     1       6.731  -1.492   0.567  0.00  0.00    +0.020 A 
ATOM     16  C   UNL     1       6.190  -0.251   0.225  0.00  0.00    +0.011 A 
ENDBRANCH   2  10
BRANCH   3  17
ATOM     17  C   UNL     1       6.624   3.350   1.875  0.00  0.00    +0.022 C 
ATOM     18  C   UNL     1       7.702   4.054   1.035  0.00  0.00    +0.008 C 
ATOM     19  C   UNL     1       8.963   4.322   1.853  0.00  0.00    +0.001 C 
ATOM     20  C   UNL     1       8.653   5.096   3.131  0.00  0.00    +0.000 C 
ATOM     21  C   UNL     1       7.592   4.392   3.972  0.00  0.00    +0.001 C 
ATOM     22  C   UNL     1       6.321   4.126   3.168  0.00  0.00    +0.008 C 
ENDBRANCH   3  17
BRANCH   7  23
ATOM     23  C   UNL     1       1.380   5.991  -1.856  0.00  0.00    +0.072 C 
ATOM     24  O   UNL     1       0.536   5.251  -2.457  0.00  0.00    -0.545 OA
ATOM     25  O   UNL     1       1.412   7.262  -1.896  0.00  0.00    -0.545 OA
ENDBRANCH   7  23
BRANCH   1  26
ATOM     26  C   UNL     1       2.846   0.833  -0.361  0.00  0.00    +0.218 C 
BRANCH  26  28
ATOM     27  O   UNL     1       1.556   0.499   1.667  0.00  0.00    -0.274 OA
ATOM     28  C   UNL     1       2.243   0.019   0.768  0.00  0.00    +0.233 C 
ATOM     29  N   UNL     1       2.516  -1.336   0.703  0.00  0.00    -0.314 N 
ATOM     30  H   UNL     1       3.095  -1.703  -0.040  0.00  0.00    +0.149 HD
BRANCH  29  31
ATOM     31  C   UNL     1       1.998  -2.240   1.699  0.00  0.00    +0.107 C 
BRANCH  31  32
ATOM     32  C   UNL     1       2.658  -3.573   1.555  0.00  0.00    +0.006 C 
ATOM     33  C   UNL     1       1.902  -4.835   1.882  0.00  0.00    +0.005 C 
ATOM     34  C   UNL     1       2.255  -4.520   0.454  0.00  0.00    +0.005 C 
ENDBRANCH  31  32
ENDBRANCH  29  31
ENDBRANCH  26  28
ENDBRANCH   1  26
TORSDOF 7
