
 OpenBabel09122222393D

 34 38  0  0  0  0  0  0  0  0999 V2000
   10.8170    4.3400    1.3830 N   0  0  0  0  0  0  0  0  0  0  0  0
   11.0800    5.6990    1.3940 C   0  0  0  0  0  0  0  0  0  0  0  0
   11.4580    6.0440    2.6900 C   0  0  0  0  0  0  0  0  0  0  0  0
   11.3340    4.8610    3.4940 C   0  0  0  0  0  0  0  0  0  0  0  0
   11.5330    4.5750    4.8630 C   0  0  0  0  0  3  0  0  0  0  0  0
   11.2740    3.2910    5.3620 C   0  0  0  0  0  3  0  0  0  0  0  0
   10.8250    2.2640    4.5280 C   0  0  0  0  0  0  0  0  0  0  0  0
   10.6540    2.5310    3.1580 C   0  0  0  0  0  3  0  0  0  0  0  0
   10.9080    3.8240    2.6600 C   0  0  0  0  0  0  0  0  0  0  0  0
   10.9760    6.5520    0.2140 C   0  0  0  0  0  0  0  0  0  0  0  0
   12.1220    6.8860   -0.5170 C   0  0  0  0  0  3  0  0  0  0  0  0
   12.0230    7.7030   -1.6450 C   0  0  0  0  0  3  0  0  0  0  0  0
   10.7770    8.1890   -2.0380 C   0  0  0  0  0  0  0  0  0  0  0  0
   10.6500    9.1840   -3.4360 Cl  0  0  0  0  0  0  0  0  0  0  0  0
    9.6300    7.8700   -1.3120 C   0  0  0  0  0  3  0  0  0  0  0  0
    9.7300    7.0540   -0.1830 C   0  0  0  0  0  3  0  0  0  0  0  0
   11.8860    7.4230    3.1430 C   0  0  0  0  0  3  0  0  0  0  0  0
   10.7510    8.4560    3.0580 C   0  0  0  0  0  2  0  0  0  0  0  0
   11.2220    9.8420    3.4940 C   0  0  0  0  0  2  0  0  0  0  0  0
   11.8510    9.8130    4.8840 C   0  0  0  0  0  2  0  0  0  0  0  0
   12.9870    8.7960    4.9660 C   0  0  0  0  0  2  0  0  0  0  0  0
   12.5270    7.4030    4.5410 C   0  0  0  0  0  2  0  0  0  0  0  0
   10.5190    0.8850    5.0870 C   0  0  0  0  0  0  0  0  0  0  0  0
   11.0580    0.5760    6.1980 O   0  0  0  0  0  1  0  0  0  0  0  0
    9.7560    0.1340    4.3990 O   0  0  0  0  0  0  0  0  0  0  0  0
   10.4040    3.5730    0.2130 C   0  0  0  0  0  2  0  0  0  0  0  0
   12.7390    3.1960   -0.3290 O   0  0  0  0  0  0  0  0  0  0  0  0
   11.5610    2.8840   -0.4860 C   0  0  0  0  0  0  0  0  0  0  0  0
   11.1860    1.8460   -1.3210 N   0  0  0  0  0  0  0  0  0  0  0  0
   10.2090    1.6190   -1.4420 H   0  0  0  0  0  0  0  0  0  0  0  0
   12.1770    1.0870   -2.0420 C   0  0  0  0  0  2  0  0  0  0  0  0
   11.5670   -0.1820   -2.5430 C   0  0  0  0  0  3  0  0  0  0  0  0
   12.4360   -1.3730   -2.8510 C   0  0  0  0  0  2  0  0  0  0  0  0
   11.5070   -1.4080   -1.6690 C   0  0  0  0  0  2  0  0  0  0  0  0
  1  2  1  0  0  0  0
  1  9  1  0  0  0  0
  2  3  2  0  0  0  0
  3 17  1  0  0  0  0
  3  4  1  0  0  0  0
  4  5  1  0  0  0  0
  5  6  2  0  0  0  0
  7 23  1  0  0  0  0
  7  6  1  0  0  0  0
  8  7  2  0  0  0  0
  9  8  1  0  0  0  0
  9  4  2  0  0  0  0
 10  2  1  0  0  0  0
 11 10  2  0  0  0  0
 12 11  1  0  0  0  0
 13 12  2  0  0  0  0
 13 15  1  0  0  0  0
 14 13  1  0  0  0  0
 15 16  2  0  0  0  0
 16 10  1  0  0  0  0
 17 22  1  0  0  0  0
 18 17  1  0  0  0  0
 18 19  1  0  0  0  0
 19 20  1  0  0  0  0
 20 21  1  0  0  0  0
 22 21  1  0  0  0  0
 23 24  1  0  0  0  0
 25 23  2  0  0  0  0
 26  1  1  0  0  0  0
 28 27  2  0  0  0  0
 28 26  1  0  0  0  0
 29 28  1  0  0  0  0
 30 29  1  0  0  0  0
 31 29  1  0  0  0  0
 32 31  1  0  0  0  0
 32 34  1  0  0  0  0
 33 32  1  0  0  0  0
 33 34  1  0  0  0  0
M  END
>  <minimizedAffinity>
-6.89496422

$$$$
