
 OpenBabel09122222393D

 34 38  0  0  0  0  0  0  0  0999 V2000
    7.5050   -3.4570    2.9350 N   0  0  0  0  0  0  0  0  0  0  0  0
    6.3020   -4.1200    3.1060 C   0  0  0  0  0  0  0  0  0  0  0  0
    6.1660   -5.0230    2.0540 C   0  0  0  0  0  0  0  0  0  0  0  0
    7.2920   -4.8270    1.1840 C   0  0  0  0  0  0  0  0  0  0  0  0
    7.7000   -5.4010   -0.0410 C   0  0  0  0  0  3  0  0  0  0  0  0
    8.8620   -4.9460   -0.6810 C   0  0  0  0  0  3  0  0  0  0  0  0
    9.6460   -3.9300   -0.1290 C   0  0  0  0  0  0  0  0  0  0  0  0
    9.2630   -3.3760    1.1050 C   0  0  0  0  0  3  0  0  0  0  0  0
    8.0920   -3.8290    1.7430 C   0  0  0  0  0  0  0  0  0  0  0  0
    5.3960   -3.8770    4.2250 C   0  0  0  0  0  0  0  0  0  0  0  0
    4.0910   -3.4290    3.9910 C   0  0  0  0  0  3  0  0  0  0  0  0
    3.2260   -3.1960    5.0610 C   0  0  0  0  0  3  0  0  0  0  0  0
    3.6680   -3.4070    6.3660 C   0  0  0  0  0  0  0  0  0  0  0  0
    2.5990   -3.1350    7.6860 Cl  0  0  0  0  0  0  0  0  0  0  0  0
    4.9690   -3.8460    6.6110 C   0  0  0  0  0  3  0  0  0  0  0  0
    5.8350   -4.0770    5.5400 C   0  0  0  0  0  3  0  0  0  0  0  0
    5.0220   -5.9960    1.8720 C   0  0  0  0  0  3  0  0  0  0  0  0
    4.9280   -6.5430    0.4380 C   0  0  0  0  0  2  0  0  0  0  0  0
    3.7470   -7.4980    0.2800 C   0  0  0  0  0  2  0  0  0  0  0  0
    3.7910   -8.6250    1.3080 C   0  0  0  0  0  2  0  0  0  0  0  0
    3.8710   -8.0830    2.7330 C   0  0  0  0  0  2  0  0  0  0  0  0
    5.0540   -7.1330    2.9080 C   0  0  0  0  0  2  0  0  0  0  0  0
   10.8860   -3.4250   -0.8480 C   0  0  0  0  0  0  0  0  0  0  0  0
   10.7600   -2.3710   -1.5510 O   0  0  0  0  0  0  0  0  0  0  0  0
   11.9560   -4.0970   -0.7050 O   0  0  0  0  0  1  0  0  0  0  0  0
    8.0360   -2.4340    3.8310 C   0  0  0  0  0  2  0  0  0  0  0  0
   10.2820   -1.6270    3.3920 O   0  0  0  0  0  0  0  0  0  0  0  0
    9.0750   -1.5470    3.1720 C   0  0  0  0  0  0  0  0  0  0  0  0
    8.5570   -0.6310    2.2740 N   0  0  0  0  0  0  0  0  0  0  0  0
    7.5590   -0.5780    2.1210 H   0  0  0  0  0  0  0  0  0  0  0  0
    9.4240    0.2700    1.5580 C   0  0  0  0  0  2  0  0  0  0  0  0
    9.3300    1.6350    2.1590 C   0  0  0  0  0  3  0  0  0  0  0  0
   10.2350    2.0280    3.2990 C   0  0  0  0  0  2  0  0  0  0  0  0
   10.4220    2.6520    1.9430 C   0  0  0  0  0  2  0  0  0  0  0  0
  1  2  1  0  0  0  0
  1 26  1  0  0  0  0
  2 10  1  0  0  0  0
  3  2  2  0  0  0  0
  4  9  1  0  0  0  0
  4  3  1  0  0  0  0
  5  4  2  0  0  0  0
  6  7  2  0  0  0  0
  6  5  1  0  0  0  0
  7  8  1  0  0  0  0
  8  9  2  0  0  0  0
  9  1  1  0  0  0  0
 10 16  1  0  0  0  0
 11 10  2  0  0  0  0
 11 12  1  0  0  0  0
 12 13  2  0  0  0  0
 13 15  1  0  0  0  0
 13 14  1  0  0  0  0
 16 15  2  0  0  0  0
 17  3  1  0  0  0  0
 17 22  1  0  0  0  0
 18 17  1  0  0  0  0
 19 18  1  0  0  0  0
 19 20  1  0  0  0  0
 20 21  1  0  0  0  0
 21 22  1  0  0  0  0
 23 25  1  0  0  0  0
 23  7  1  0  0  0  0
 24 23  2  0  0  0  0
 28 27  2  0  0  0  0
 28 26  1  0  0  0  0
 29 28  1  0  0  0  0
 30 29  1  0  0  0  0
 31 32  1  0  0  0  0
 31 29  1  0  0  0  0
 32 33  1  0  0  0  0
 34 32  1  0  0  0  0
 34 33  1  0  0  0  0
M  END
>  <minimizedAffinity>
-6.80886793

$$$$
