
 OpenBabel09122222293D

 34 38  0  0  0  0  0  0  0  0999 V2000
    7.7110   -3.6900    2.8790 N   0  0  0  0  0  0  0  0  0  0  0  0
    8.8540   -2.9510    2.6310 C   0  0  0  0  0  0  0  0  0  0  0  0
    9.2170   -3.1690    1.3030 C   0  0  0  0  0  0  0  0  0  0  0  0
    8.3010   -4.1380    0.7710 C   0  0  0  0  0  0  0  0  0  0  0  0
    8.1660   -4.7810   -0.4790 C   0  0  0  0  0  3  0  0  0  0  0  0
    7.1640   -5.7420   -0.6740 C   0  0  0  0  0  3  0  0  0  0  0  0
    6.2730   -6.0820    0.3470 C   0  0  0  0  0  0  0  0  0  0  0  0
    6.3810   -5.4230    1.5840 C   0  0  0  0  0  3  0  0  0  0  0  0
    7.3930   -4.4630    1.7800 C   0  0  0  0  0  0  0  0  0  0  0  0
    9.5000   -2.1000    3.6270 C   0  0  0  0  0  0  0  0  0  0  0  0
   10.1470   -2.6730    4.7290 C   0  0  0  0  0  3  0  0  0  0  0  0
   10.7630   -1.8590    5.6820 C   0  0  0  0  0  3  0  0  0  0  0  0
   10.7280   -0.4740    5.5340 C   0  0  0  0  0  0  0  0  0  0  0  0
   11.4990    0.5300    6.6990 Cl  0  0  0  0  0  0  0  0  0  0  0  0
   10.0790    0.1070    4.4450 C   0  0  0  0  0  3  0  0  0  0  0  0
    9.4610   -0.7070    3.4930 C   0  0  0  0  0  3  0  0  0  0  0  0
   10.3810   -2.5150    0.5910 C   0  0  0  0  0  3  0  0  0  0  0  0
   11.3950   -3.5340    0.0470 C   0  0  0  0  0  2  0  0  0  0  0  0
   12.5700   -2.8440   -0.6400 C   0  0  0  0  0  2  0  0  0  0  0  0
   12.1020   -1.8830   -1.7290 C   0  0  0  0  0  2  0  0  0  0  0  0
   11.1050   -0.8620   -1.1880 C   0  0  0  0  0  2  0  0  0  0  0  0
    9.9190   -1.5400   -0.5060 C   0  0  0  0  0  2  0  0  0  0  0  0
    5.2110   -7.1470    0.1330 C   0  0  0  0  0  0  0  0  0  0  0  0
    5.2330   -7.7730   -0.9760 O   0  0  0  0  0  0  0  0  0  0  0  0
    4.3710   -7.3290    1.0700 O   0  0  0  0  0  1  0  0  0  0  0  0
    6.9950   -3.7300    4.1490 C   0  0  0  0  0  2  0  0  0  0  0  0
    5.1750   -5.3350    4.0930 O   0  0  0  0  0  0  0  0  0  0  0  0
    5.5490   -4.1670    4.0040 C   0  0  0  0  0  0  0  0  0  0  0  0
    4.6600   -3.1320    3.7750 N   0  0  0  0  0  0  0  0  0  0  0  0
    4.9970   -2.1820    3.6940 H   0  0  0  0  0  0  0  0  0  0  0  0
    3.2500   -3.3910    3.6300 C   0  0  0  0  0  2  0  0  0  0  0  0
    2.5670   -3.1850    4.9430 C   0  0  0  0  0  3  0  0  0  0  0  0
    3.0850   -2.1580    5.9170 C   0  0  0  0  0  2  0  0  0  0  0  0
    1.7740   -1.9320    5.2140 C   0  0  0  0  0  2  0  0  0  0  0  0
  1 26  1  0  0  0  0
  2  1  1  0  0  0  0
  2 10  1  0  0  0  0
  3  2  2  0  0  0  0
  4  3  1  0  0  0  0
  4  9  1  0  0  0  0
  5  4  2  0  0  0  0
  6  5  1  0  0  0  0
  6  7  2  0  0  0  0
  7  8  1  0  0  0  0
  8  9  2  0  0  0  0
  9  1  1  0  0  0  0
 10 11  1  0  0  0  0
 11 12  2  0  0  0  0
 13 12  1  0  0  0  0
 13 14  1  0  0  0  0
 15 13  2  0  0  0  0
 16 10  2  0  0  0  0
 16 15  1  0  0  0  0
 17  3  1  0  0  0  0
 18 17  1  0  0  0  0
 19 18  1  0  0  0  0
 20 21  1  0  0  0  0
 20 19  1  0  0  0  0
 21 22  1  0  0  0  0
 22 17  1  0  0  0  0
 23  7  1  0  0  0  0
 23 25  1  0  0  0  0
 24 23  2  0  0  0  0
 28 27  2  0  0  0  0
 28 26  1  0  0  0  0
 29 28  1  0  0  0  0
 30 29  1  0  0  0  0
 31 29  1  0  0  0  0
 31 32  1  0  0  0  0
 32 34  1  0  0  0  0
 32 33  1  0  0  0  0
 34 33  1  0  0  0  0
M  END
>  <minimizedAffinity>
-8.10006237

$$$$

 OpenBabel09122222293D

 34 38  0  0  0  0  0  0  0  0999 V2000
    7.5940   -3.7970    2.5730 N   0  0  0  0  0  0  0  0  0  0  0  0
    8.7840   -3.1070    2.4180 C   0  0  0  0  0  0  0  0  0  0  0  0
    9.2140   -3.2980    1.1070 C   0  0  0  0  0  0  0  0  0  0  0  0
    8.2870   -4.2020    0.4880 C   0  0  0  0  0  0  0  0  0  0  0  0
    8.1960   -4.7950   -0.7910 C   0  0  0  0  0  3  0  0  0  0  0  0
    7.1630   -5.6990   -1.0790 C   0  0  0  0  0  3  0  0  0  0  0  0
    6.1970   -6.0280   -0.1240 C   0  0  0  0  0  0  0  0  0  0  0  0
    6.2620   -5.4170    1.1410 C   0  0  0  0  0  3  0  0  0  0  0  0
    7.3050   -4.5150    1.4300 C   0  0  0  0  0  0  0  0  0  0  0  0
    9.4090   -2.3240    3.4810 C   0  0  0  0  0  0  0  0  0  0  0  0
   10.0130   -2.9670    4.5680 C   0  0  0  0  0  3  0  0  0  0  0  0
   10.6090   -2.2180    5.5840 C   0  0  0  0  0  3  0  0  0  0  0  0
   10.5960   -0.8250    5.5150 C   0  0  0  0  0  0  0  0  0  0  0  0
   11.3430    0.0990    6.7580 Cl  0  0  0  0  0  0  0  0  0  0  0  0
    9.9900   -0.1750    4.4410 C   0  0  0  0  0  3  0  0  0  0  0  0
    9.3920   -0.9250    3.4250 C   0  0  0  0  0  3  0  0  0  0  0  0
   10.4490   -2.6790    0.4880 C   0  0  0  0  0  3  0  0  0  0  0  0
   11.4930   -3.7260    0.0690 C   0  0  0  0  0  2  0  0  0  0  0  0
   12.7370   -3.0700   -0.5260 C   0  0  0  0  0  2  0  0  0  0  0  0
   12.3850   -2.1350   -1.6790 C   0  0  0  0  0  2  0  0  0  0  0  0
   11.3580   -1.0870   -1.2610 C   0  0  0  0  0  2  0  0  0  0  0  0
   10.1040   -1.7300   -0.6730 C   0  0  0  0  0  2  0  0  0  0  0  0
    5.1010   -7.0310   -0.4380 C   0  0  0  0  0  0  0  0  0  0  0  0
    3.9070   -6.6930   -0.1530 O   0  0  0  0  0  1  0  0  0  0  0  0
    5.4550   -8.1380   -0.9540 O   0  0  0  0  0  0  0  0  0  0  0  0
    6.8020   -3.8440    3.7970 C   0  0  0  0  0  2  0  0  0  0  0  0
    4.5560   -3.4740    2.9560 O   0  0  0  0  0  0  0  0  0  0  0  0
    5.3480   -4.2000    3.5520 C   0  0  0  0  0  0  0  0  0  0  0  0
    4.9720   -5.4360    4.0480 N   0  0  0  0  0  0  0  0  0  0  0  0
    5.6400   -6.0080    4.5470 H   0  0  0  0  0  0  0  0  0  0  0  0
    3.6250   -5.9190    3.8780 C   0  0  0  0  0  2  0  0  0  0  0  0
    3.6490   -7.2190    3.1420 C   0  0  0  0  0  3  0  0  0  0  0  0
    4.8090   -8.1660    3.3090 C   0  0  0  0  0  2  0  0  0  0  0  0
    3.4610   -8.5240    3.8710 C   0  0  0  0  0  2  0  0  0  0  0  0
  1 26  1  0  0  0  0
  2  1  1  0  0  0  0
  2 10  1  0  0  0  0
  3  2  2  0  0  0  0
  4  3  1  0  0  0  0
  4  9  1  0  0  0  0
  5  4  2  0  0  0  0
  6  5  1  0  0  0  0
  6  7  2  0  0  0  0
  7  8  1  0  0  0  0
  8  9  2  0  0  0  0
  9  1  1  0  0  0  0
 10 11  1  0  0  0  0
 11 12  2  0  0  0  0
 13 12  1  0  0  0  0
 13 14  1  0  0  0  0
 15 13  2  0  0  0  0
 16 10  2  0  0  0  0
 16 15  1  0  0  0  0
 17  3  1  0  0  0  0
 18 17  1  0  0  0  0
 19 18  1  0  0  0  0
 20 21  1  0  0  0  0
 20 19  1  0  0  0  0
 21 22  1  0  0  0  0
 22 17  1  0  0  0  0
 23 24  1  0  0  0  0
 23  7  1  0  0  0  0
 25 23  2  0  0  0  0
 27 28  2  0  0  0  0
 28 26  1  0  0  0  0
 28 29  1  0  0  0  0
 29 30  1  0  0  0  0
 31 29  1  0  0  0  0
 32 33  1  0  0  0  0
 32 34  1  0  0  0  0
 32 31  1  0  0  0  0
 33 34  1  0  0  0  0
M  END
>  <minimizedAffinity>
-7.90108681

$$$$

 OpenBabel09122222293D

 34 38  0  0  0  0  0  0  0  0999 V2000
   10.2980    1.8530    0.4940 N   0  0  0  0  0  0  0  0  0  0  0  0
   10.5100    3.0010    1.2370 C   0  0  0  0  0  0  0  0  0  0  0  0
   10.3890    2.6610    2.5830 C   0  0  0  0  0  0  0  0  0  0  0  0
   10.0100    1.2770    2.6330 C   0  0  0  0  0  0  0  0  0  0  0  0
    9.7100    0.3760    3.6790 C   0  0  0  0  0  3  0  0  0  0  0  0
    9.3170   -0.9380    3.3890 C   0  0  0  0  0  3  0  0  0  0  0  0
    9.2200   -1.3940    2.0710 C   0  0  0  0  0  0  0  0  0  0  0  0
    9.5480   -0.5130    1.0260 C   0  0  0  0  0  3  0  0  0  0  0  0
    9.9350    0.8090    1.3200 C   0  0  0  0  0  0  0  0  0  0  0  0
   10.8190    4.3020    0.6480 C   0  0  0  0  0  0  0  0  0  0  0  0
   12.1500    4.6790    0.4320 C   0  0  0  0  0  3  0  0  0  0  0  0
   12.4450    5.9220   -0.1300 C   0  0  0  0  0  3  0  0  0  0  0  0
   11.4080    6.7890   -0.4730 C   0  0  0  0  0  0  0  0  0  0  0  0
   11.7700    8.3150   -1.1800 Cl  0  0  0  0  0  0  0  0  0  0  0  0
   10.0800    6.4260   -0.2550 C   0  0  0  0  0  3  0  0  0  0  0  0
    9.7850    5.1830    0.3090 C   0  0  0  0  0  3  0  0  0  0  0  0
   10.5950    3.6010    3.7500 C   0  0  0  0  0  3  0  0  0  0  0  0
    9.6650    3.2920    4.9350 C   0  0  0  0  0  2  0  0  0  0  0  0
    9.8770    4.2740    6.0840 C   0  0  0  0  0  2  0  0  0  0  0  0
   11.3390    4.3280    6.5180 C   0  0  0  0  0  2  0  0  0  0  0  0
   12.2620    4.6470    5.3460 C   0  0  0  0  0  2  0  0  0  0  0  0
   12.0670    3.6660    4.1920 C   0  0  0  0  0  2  0  0  0  0  0  0
    8.7640   -2.8110    1.7690 C   0  0  0  0  0  0  0  0  0  0  0  0
    8.0530   -3.3920    2.6510 O   0  0  0  0  0  1  0  0  0  0  0  0
    9.1330   -3.3190    0.6630 O   0  0  0  0  0  0  0  0  0  0  0  0
   10.3510    1.7730   -0.9620 C   0  0  0  0  0  2  0  0  0  0  0  0
   12.7240    1.8180   -1.4680 O   0  0  0  0  0  0  0  0  0  0  0  0
   11.6590    1.2050   -1.4800 C   0  0  0  0  0  0  0  0  0  0  0  0
   11.5670   -0.0880   -1.9630 N   0  0  0  0  0  0  0  0  0  0  0  0
   10.6760   -0.5660   -1.9740 H   0  0  0  0  0  0  0  0  0  0  0  0
   12.7310   -0.7670   -2.4760 C   0  0  0  0  0  2  0  0  0  0  0  0
   12.9820   -2.0030   -1.6750 C   0  0  0  0  0  3  0  0  0  0  0  0
   11.8650   -2.9820   -1.4180 C   0  0  0  0  0  2  0  0  0  0  0  0
   12.9990   -3.3590   -2.3310 C   0  0  0  0  0  2  0  0  0  0  0  0
  1  2  1  0  0  0  0
  1  9  1  0  0  0  0
  2  3  2  0  0  0  0
  3  4  1  0  0  0  0
  3 17  1  0  0  0  0
  4  5  1  0  0  0  0
  6  5  2  0  0  0  0
  7  6  1  0  0  0  0
  8  9  1  0  0  0  0
  8  7  2  0  0  0  0
  9  4  2  0  0  0  0
 10  2  1  0  0  0  0
 11 10  1  0  0  0  0
 12 11  2  0  0  0  0
 13 15  2  0  0  0  0
 13 12  1  0  0  0  0
 14 13  1  0  0  0  0
 15 16  1  0  0  0  0
 16 10  2  0  0  0  0
 17 22  1  0  0  0  0
 17 18  1  0  0  0  0
 18 19  1  0  0  0  0
 19 20  1  0  0  0  0
 21 20  1  0  0  0  0
 22 21  1  0  0  0  0
 23  7  1  0  0  0  0
 23 24  1  0  0  0  0
 25 23  2  0  0  0  0
 26  1  1  0  0  0  0
 28 27  2  0  0  0  0
 28 26  1  0  0  0  0
 29 28  1  0  0  0  0
 30 29  1  0  0  0  0
 31 29  1  0  0  0  0
 31 32  1  0  0  0  0
 32 33  1  0  0  0  0
 34 32  1  0  0  0  0
 34 33  1  0  0  0  0
M  END
>  <minimizedAffinity>
-7.71386194

$$$$

 OpenBabel09122222293D

 34 38  0  0  0  0  0  0  0  0999 V2000
    7.5390   -3.3090    2.8350 N   0  0  0  0  0  0  0  0  0  0  0  0
    6.4000   -4.0760    3.0040 C   0  0  0  0  0  0  0  0  0  0  0  0
    6.3830   -5.0330    1.9920 C   0  0  0  0  0  0  0  0  0  0  0  0
    7.5120   -4.7690    1.1440 C   0  0  0  0  0  0  0  0  0  0  0  0
    8.0120   -5.3530   -0.0400 C   0  0  0  0  0  3  0  0  0  0  0  0
    9.1450   -4.8180   -0.6690 C   0  0  0  0  0  3  0  0  0  0  0  0
    9.8120   -3.7080   -0.1440 C   0  0  0  0  0  0  0  0  0  0  0  0
    9.3390   -3.1400    1.0530 C   0  0  0  0  0  3  0  0  0  0  0  0
    8.1970   -3.6750    1.6780 C   0  0  0  0  0  0  0  0  0  0  0  0
    5.4400   -3.8720    4.0860 C   0  0  0  0  0  0  0  0  0  0  0  0
    4.1320   -3.4630    3.7990 C   0  0  0  0  0  3  0  0  0  0  0  0
    3.2150   -3.2680    4.8340 C   0  0  0  0  0  3  0  0  0  0  0  0
    3.6090   -3.4770    6.1550 C   0  0  0  0  0  0  0  0  0  0  0  0
    2.4760   -3.2510    7.4300 Cl  0  0  0  0  0  0  0  0  0  0  0  0
    4.9110   -3.8770    6.4510 C   0  0  0  0  0  3  0  0  0  0  0  0
    5.8280   -4.0700    5.4160 C   0  0  0  0  0  3  0  0  0  0  0  0
    5.3420   -6.1190    1.8240 C   0  0  0  0  0  3  0  0  0  0  0  0
    4.9060   -6.3040    0.3620 C   0  0  0  0  0  2  0  0  0  0  0  0
    3.8360   -7.3850    0.2290 C   0  0  0  0  0  2  0  0  0  0  0  0
    4.2840   -8.7030    0.8530 C   0  0  0  0  0  2  0  0  0  0  0  0
    4.7050   -8.5230    2.3090 C   0  0  0  0  0  2  0  0  0  0  0  0
    5.7830   -7.4510    2.4550 C   0  0  0  0  0  2  0  0  0  0  0  0
   11.0200   -3.1190   -0.8510 C   0  0  0  0  0  0  0  0  0  0  0  0
   12.1620   -3.5890   -0.5390 O   0  0  0  0  0  1  0  0  0  0  0  0
   10.8060   -2.1920   -1.6950 O   0  0  0  0  0  0  0  0  0  0  0  0
    7.9430   -2.2020    3.6960 C   0  0  0  0  0  2  0  0  0  0  0  0
    9.7680   -3.5330    4.5820 O   0  0  0  0  0  0  0  0  0  0  0  0
    8.9840   -2.5980    4.7260 C   0  0  0  0  0  0  0  0  0  0  0  0
    8.9980   -1.8020    5.8580 N   0  0  0  0  0  0  0  0  0  0  0  0
    8.3330   -1.0470    5.9570 H   0  0  0  0  0  0  0  0  0  0  0  0
    9.9430   -2.0470    6.9180 C   0  0  0  0  0  2  0  0  0  0  0  0
   11.1340   -1.1620    6.7400 C   0  0  0  0  0  3  0  0  0  0  0  0
   10.9620    0.2570    6.2630 C   0  0  0  0  0  2  0  0  0  0  0  0
   11.3900   -0.0120    7.6800 C   0  0  0  0  0  2  0  0  0  0  0  0
  1  2  1  0  0  0  0
  1 26  1  0  0  0  0
  2 10  1  0  0  0  0
  3  2  2  0  0  0  0
  4  9  1  0  0  0  0
  4  3  1  0  0  0  0
  5  4  2  0  0  0  0
  6  7  2  0  0  0  0
  6  5  1  0  0  0  0
  7  8  1  0  0  0  0
  8  9  2  0  0  0  0
  9  1  1  0  0  0  0
 10 16  1  0  0  0  0
 11 10  2  0  0  0  0
 11 12  1  0  0  0  0
 12 13  2  0  0  0  0
 13 15  1  0  0  0  0
 13 14  1  0  0  0  0
 16 15  2  0  0  0  0
 17  3  1  0  0  0  0
 17 22  1  0  0  0  0
 18 17  1  0  0  0  0
 19 18  1  0  0  0  0
 19 20  1  0  0  0  0
 20 21  1  0  0  0  0
 21 22  1  0  0  0  0
 23 24  1  0  0  0  0
 23  7  1  0  0  0  0
 25 23  2  0  0  0  0
 26 28  1  0  0  0  0
 27 28  2  0  0  0  0
 28 29  1  0  0  0  0
 29 30  1  0  0  0  0
 29 31  1  0  0  0  0
 32 31  1  0  0  0  0
 32 34  1  0  0  0  0
 33 32  1  0  0  0  0
 33 34  1  0  0  0  0
M  END
>  <minimizedAffinity>
-7.39647245

$$$$

 OpenBabel09122222293D

 34 38  0  0  0  0  0  0  0  0999 V2000
    8.3930   -2.9360    3.4840 N   0  0  0  0  0  0  0  0  0  0  0  0
    7.2040   -3.6380    3.5770 C   0  0  0  0  0  0  0  0  0  0  0  0
    6.6430   -3.3540    4.8200 C   0  0  0  0  0  0  0  0  0  0  0  0
    7.5770   -2.5180    5.5210 C   0  0  0  0  0  0  0  0  0  0  0  0
    7.6030   -1.9350    6.8080 C   0  0  0  0  0  3  0  0  0  0  0  0
    8.7130   -1.1860    7.2220 C   0  0  0  0  0  3  0  0  0  0  0  0
    9.8120   -0.9880    6.3810 C   0  0  0  0  0  0  0  0  0  0  0  0
    9.7800   -1.5390    5.0870 C   0  0  0  0  0  3  0  0  0  0  0  0
    8.6660   -2.2960    4.6760 C   0  0  0  0  0  0  0  0  0  0  0  0
    6.6820   -4.4910    2.5130 C   0  0  0  0  0  0  0  0  0  0  0  0
    5.3170   -4.7960    2.4590 C   0  0  0  0  0  3  0  0  0  0  0  0
    4.8200   -5.6130    1.4420 C   0  0  0  0  0  3  0  0  0  0  0  0
    5.6890   -6.1280    0.4820 C   0  0  0  0  0  0  0  0  0  0  0  0
    5.0760   -7.1220   -0.7810 Cl  0  0  0  0  0  0  0  0  0  0  0  0
    7.0520   -5.8370    0.5310 C   0  0  0  0  0  3  0  0  0  0  0  0
    7.5490   -5.0210    1.5490 C   0  0  0  0  0  3  0  0  0  0  0  0
    5.3110   -3.8680    5.3230 C   0  0  0  0  0  3  0  0  0  0  0  0
    5.3920   -4.4310    6.7510 C   0  0  0  0  0  2  0  0  0  0  0  0
    4.0410   -4.9670    7.2190 C   0  0  0  0  0  2  0  0  0  0  0  0
    2.9420   -3.9160    7.0910 C   0  0  0  0  0  2  0  0  0  0  0  0
    2.8520   -3.3650    5.6710 C   0  0  0  0  0  2  0  0  0  0  0  0
    4.1950   -2.8170    5.1940 C   0  0  0  0  0  2  0  0  0  0  0  0
   11.0220   -0.2010    6.8520 C   0  0  0  0  0  0  0  0  0  0  0  0
   11.5360   -0.5390    7.9660 O   0  0  0  0  0  1  0  0  0  0  0  0
   11.4270    0.7470    6.1060 O   0  0  0  0  0  0  0  0  0  0  0  0
    9.2860   -2.9440    2.3300 C   0  0  0  0  0  2  0  0  0  0  0  0
    8.5540   -0.6840    1.8380 O   0  0  0  0  0  0  0  0  0  0  0  0
    9.2220   -1.6650    1.5180 C   0  0  0  0  0  0  0  0  0  0  0  0
   10.0000   -1.6760    0.3740 N   0  0  0  0  0  0  0  0  0  0  0  0
   10.5300   -2.5010    0.1280 H   0  0  0  0  0  0  0  0  0  0  0  0
   10.0530   -0.5250   -0.4920 C   0  0  0  0  0  2  0  0  0  0  0  0
   11.0720   -0.7510   -1.5610 C   0  0  0  0  0  3  0  0  0  0  0  0
   10.7830   -0.3470   -2.9840 C   0  0  0  0  0  2  0  0  0  0  0  0
   11.8100    0.4070   -2.1830 C   0  0  0  0  0  2  0  0  0  0  0  0
  1  2  1  0  0  0  0
  1  9  1  0  0  0  0
  2  3  2  0  0  0  0
  3 17  1  0  0  0  0
  3  4  1  0  0  0  0
  4  5  1  0  0  0  0
  5  6  2  0  0  0  0
  7 23  1  0  0  0  0
  7  6  1  0  0  0  0
  8  7  2  0  0  0  0
  9  8  1  0  0  0  0
  9  4  2  0  0  0  0
 10  2  1  0  0  0  0
 11 10  1  0  0  0  0
 12 11  2  0  0  0  0
 13 15  2  0  0  0  0
 13 12  1  0  0  0  0
 14 13  1  0  0  0  0
 15 16  1  0  0  0  0
 16 10  2  0  0  0  0
 17 18  1  0  0  0  0
 18 19  1  0  0  0  0
 20 19  1  0  0  0  0
 21 20  1  0  0  0  0
 22 17  1  0  0  0  0
 22 21  1  0  0  0  0
 23 24  1  0  0  0  0
 25 23  2  0  0  0  0
 26  1  1  0  0  0  0
 28 27  2  0  0  0  0
 28 26  1  0  0  0  0
 29 28  1  0  0  0  0
 30 29  1  0  0  0  0
 31 29  1  0  0  0  0
 32 31  1  0  0  0  0
 33 34  1  0  0  0  0
 33 32  1  0  0  0  0
 34 32  1  0  0  0  0
M  END
>  <minimizedAffinity>
-7.06832743

$$$$

 OpenBabel09122222293D

 34 38  0  0  0  0  0  0  0  0999 V2000
   11.7720    4.1460    2.8380 N   0  0  0  0  0  0  0  0  0  0  0  0
   11.3810    4.2820    1.5170 C   0  0  0  0  0  0  0  0  0  0  0  0
   11.1700    5.6380    1.2780 C   0  0  0  0  0  0  0  0  0  0  0  0
   11.3640    6.3200    2.5260 C   0  0  0  0  0  0  0  0  0  0  0  0
   11.2650    7.6680    2.9370 C   0  0  0  0  0  3  0  0  0  0  0  0
   11.4780    8.0150    4.2780 C   0  0  0  0  0  3  0  0  0  0  0  0
   11.8010    7.0510    5.2370 C   0  0  0  0  0  0  0  0  0  0  0  0
   11.9330    5.7120    4.8300 C   0  0  0  0  0  3  0  0  0  0  0  0
   11.7110    5.3640    3.4830 C   0  0  0  0  0  0  0  0  0  0  0  0
   11.2520    3.1590    0.5920 C   0  0  0  0  0  0  0  0  0  0  0  0
   10.1960    2.2500    0.7290 C   0  0  0  0  0  3  0  0  0  0  0  0
   10.0740    1.1770   -0.1550 C   0  0  0  0  0  3  0  0  0  0  0  0
   11.0110    1.0100   -1.1740 C   0  0  0  0  0  0  0  0  0  0  0  0
   10.8530   -0.3030   -2.2730 Cl  0  0  0  0  0  0  0  0  0  0  0  0
   12.0710    1.9050   -1.3140 C   0  0  0  0  0  3  0  0  0  0  0  0
   12.1940    2.9780   -0.4290 C   0  0  0  0  0  3  0  0  0  0  0  0
   10.7820    6.2460   -0.0530 C   0  0  0  0  0  3  0  0  0  0  0  0
    9.3070    6.6750   -0.1020 C   0  0  0  0  0  2  0  0  0  0  0  0
    8.9390    7.2580   -1.4650 C   0  0  0  0  0  2  0  0  0  0  0  0
    9.8690    8.4010   -1.8600 C   0  0  0  0  0  2  0  0  0  0  0  0
   11.3340    7.9740   -1.8230 C   0  0  0  0  0  2  0  0  0  0  0  0
   11.7180    7.3970   -0.4610 C   0  0  0  0  0  2  0  0  0  0  0  0
   12.0000    7.4360    6.6930 C   0  0  0  0  0  0  0  0  0  0  0  0
   12.7150    6.6610    7.4060 O   0  0  0  0  0  1  0  0  0  0  0  0
   11.4290    8.4980    7.0970 O   0  0  0  0  0  0  0  0  0  0  0  0
   12.1060    2.8840    3.4900 C   0  0  0  0  0  2  0  0  0  0  0  0
    9.7850    2.6890    4.1700 O   0  0  0  0  0  0  0  0  0  0  0  0
   10.9420    2.2820    4.2530 C   0  0  0  0  0  0  0  0  0  0  0  0
   11.2810    1.2080    5.0570 N   0  0  0  0  0  0  0  0  0  0  0  0
   12.2430    0.9020    5.1170 H   0  0  0  0  0  0  0  0  0  0  0  0
   10.2780    0.5230    5.8330 C   0  0  0  0  0  2  0  0  0  0  0  0
    9.9560   -0.7860    5.1870 C   0  0  0  0  0  3  0  0  0  0  0  0
   10.4140   -2.0770    5.8150 C   0  0  0  0  0  2  0  0  0  0  0  0
    8.9510   -1.7250    5.8040 C   0  0  0  0  0  2  0  0  0  0  0  0
  1  9  1  0  0  0  0
  1 26  1  0  0  0  0
  2  1  1  0  0  0  0
  3  2  2  0  0  0  0
  3  4  1  0  0  0  0
  4  5  2  0  0  0  0
  4  9  1  0  0  0  0
  5  6  1  0  0  0  0
  6  7  2  0  0  0  0
  7 23  1  0  0  0  0
  8  7  1  0  0  0  0
  9  8  2  0  0  0  0
 10 11  1  0  0  0  0
 10  2  1  0  0  0  0
 12 11  2  0  0  0  0
 13 12  1  0  0  0  0
 14 13  1  0  0  0  0
 15 13  2  0  0  0  0
 15 16  1  0  0  0  0
 16 10  2  0  0  0  0
 17  3  1  0  0  0  0
 18 17  1  0  0  0  0
 19 18  1  0  0  0  0
 20 21  1  0  0  0  0
 20 19  1  0  0  0  0
 21 22  1  0  0  0  0
 22 17  1  0  0  0  0
 23 25  2  0  0  0  0
 23 24  1  0  0  0  0
 26 28  1  0  0  0  0
 27 28  2  0  0  0  0
 28 29  1  0  0  0  0
 29 30  1  0  0  0  0
 29 31  1  0  0  0  0
 32 34  1  0  0  0  0
 32 33  1  0  0  0  0
 32 31  1  0  0  0  0
 34 33  1  0  0  0  0
M  END
>  <minimizedAffinity>
-7.05679178

$$$$

 OpenBabel09122222293D

 34 38  0  0  0  0  0  0  0  0999 V2000
   10.6560    5.6170    3.3070 N   0  0  0  0  0  0  0  0  0  0  0  0
   10.8780    4.2710    3.0740 C   0  0  0  0  0  0  0  0  0  0  0  0
   10.7210    4.0480    1.7080 C   0  0  0  0  0  0  0  0  0  0  0  0
   10.3080    5.2930    1.1240 C   0  0  0  0  0  0  0  0  0  0  0  0
    9.9650    5.7000   -0.1840 C   0  0  0  0  0  3  0  0  0  0  0  0
    9.5470    7.0160   -0.4280 C   0  0  0  0  0  3  0  0  0  0  0  0
    9.4670    7.9570    0.6030 C   0  0  0  0  0  0  0  0  0  0  0  0
    9.8380    7.5680    1.9020 C   0  0  0  0  0  3  0  0  0  0  0  0
   10.2510    6.2430    2.1460 C   0  0  0  0  0  0  0  0  0  0  0  0
   11.2310    3.3160    4.1220 C   0  0  0  0  0  0  0  0  0  0  0  0
   12.5320    3.2830    4.6360 C   0  0  0  0  0  3  0  0  0  0  0  0
   12.8690    2.3700    5.6370 C   0  0  0  0  0  3  0  0  0  0  0  0
   11.9040    1.4870    6.1190 C   0  0  0  0  0  0  0  0  0  0  0  0
   12.3130    0.3710    7.3630 Cl  0  0  0  0  0  0  0  0  0  0  0  0
   10.6070    1.5060    5.6080 C   0  0  0  0  0  3  0  0  0  0  0  0
   10.2710    2.4190    4.6060 C   0  0  0  0  0  3  0  0  0  0  0  0
   10.9250    2.7250    1.0040 C   0  0  0  0  0  3  0  0  0  0  0  0
    9.6630    1.8470    1.0090 C   0  0  0  0  0  2  0  0  0  0  0  0
    9.9090    0.5080    0.3180 C   0  0  0  0  0  2  0  0  0  0  0  0
   10.4560    0.6950   -1.0950 C   0  0  0  0  0  2  0  0  0  0  0  0
   11.7160    1.5560   -1.1000 C   0  0  0  0  0  2  0  0  0  0  0  0
   11.4820    2.9020   -0.4190 C   0  0  0  0  0  2  0  0  0  0  0  0
    8.9840    9.3710    0.3310 C   0  0  0  0  0  0  0  0  0  0  0  0
    7.7430    9.6020    0.5000 O   0  0  0  0  0  1  0  0  0  0  0  0
    9.8500   10.2190   -0.0550 O   0  0  0  0  0  0  0  0  0  0  0  0
   10.7370    6.2700    4.6090 C   0  0  0  0  0  2  0  0  0  0  0  0
   12.9990    7.0740    4.2580 O   0  0  0  0  0  0  0  0  0  0  0  0
   11.8710    7.2730    4.7030 C   0  0  0  0  0  0  0  0  0  0  0  0
   11.5320    8.4610    5.3250 N   0  0  0  0  0  0  0  0  0  0  0  0
   10.6000    8.5940    5.6940 H   0  0  0  0  0  0  0  0  0  0  0  0
   12.5010    9.5170    5.4750 C   0  0  0  0  0  2  0  0  0  0  0  0
   11.8590   10.6950    6.1330 C   0  0  0  0  0  3  0  0  0  0  0  0
   11.1970   10.5470    7.4790 C   0  0  0  0  0  2  0  0  0  0  0  0
   12.4760   11.3300    7.3540 C   0  0  0  0  0  2  0  0  0  0  0  0
  1 26  1  0  0  0  0
  2  1  1  0  0  0  0
  2 10  1  0  0  0  0
  3  2  2  0  0  0  0
  4  3  1  0  0  0  0
  4  9  1  0  0  0  0
  5  4  2  0  0  0  0
  6  5  1  0  0  0  0
  6  7  2  0  0  0  0
  7  8  1  0  0  0  0
  8  9  2  0  0  0  0
  9  1  1  0  0  0  0
 10 16  2  0  0  0  0
 10 11  1  0  0  0  0
 11 12  2  0  0  0  0
 12 13  1  0  0  0  0
 13 14  1  0  0  0  0
 15 13  2  0  0  0  0
 16 15  1  0  0  0  0
 17 18  1  0  0  0  0
 17  3  1  0  0  0  0
 19 18  1  0  0  0  0
 20 19  1  0  0  0  0
 21 20  1  0  0  0  0
 21 22  1  0  0  0  0
 22 17  1  0  0  0  0
 23 24  1  0  0  0  0
 23  7  1  0  0  0  0
 25 23  2  0  0  0  0
 26 28  1  0  0  0  0
 27 28  2  0  0  0  0
 28 29  1  0  0  0  0
 29 31  1  0  0  0  0
 29 30  1  0  0  0  0
 31 32  1  0  0  0  0
 32 34  1  0  0  0  0
 32 33  1  0  0  0  0
 34 33  1  0  0  0  0
M  END
>  <minimizedAffinity>
-7.01414013

$$$$

 OpenBabel09122222293D

 34 38  0  0  0  0  0  0  0  0999 V2000
   10.8170    4.3400    1.3830 N   0  0  0  0  0  0  0  0  0  0  0  0
   11.0800    5.6990    1.3940 C   0  0  0  0  0  0  0  0  0  0  0  0
   11.4580    6.0440    2.6900 C   0  0  0  0  0  0  0  0  0  0  0  0
   11.3340    4.8610    3.4940 C   0  0  0  0  0  0  0  0  0  0  0  0
   11.5330    4.5750    4.8630 C   0  0  0  0  0  3  0  0  0  0  0  0
   11.2740    3.2910    5.3620 C   0  0  0  0  0  3  0  0  0  0  0  0
   10.8250    2.2640    4.5280 C   0  0  0  0  0  0  0  0  0  0  0  0
   10.6540    2.5310    3.1580 C   0  0  0  0  0  3  0  0  0  0  0  0
   10.9080    3.8240    2.6600 C   0  0  0  0  0  0  0  0  0  0  0  0
   10.9760    6.5520    0.2140 C   0  0  0  0  0  0  0  0  0  0  0  0
   12.1220    6.8860   -0.5170 C   0  0  0  0  0  3  0  0  0  0  0  0
   12.0230    7.7030   -1.6450 C   0  0  0  0  0  3  0  0  0  0  0  0
   10.7770    8.1890   -2.0380 C   0  0  0  0  0  0  0  0  0  0  0  0
   10.6500    9.1840   -3.4360 Cl  0  0  0  0  0  0  0  0  0  0  0  0
    9.6300    7.8700   -1.3120 C   0  0  0  0  0  3  0  0  0  0  0  0
    9.7300    7.0540   -0.1830 C   0  0  0  0  0  3  0  0  0  0  0  0
   11.8860    7.4230    3.1430 C   0  0  0  0  0  3  0  0  0  0  0  0
   10.7510    8.4560    3.0580 C   0  0  0  0  0  2  0  0  0  0  0  0
   11.2220    9.8420    3.4940 C   0  0  0  0  0  2  0  0  0  0  0  0
   11.8510    9.8130    4.8840 C   0  0  0  0  0  2  0  0  0  0  0  0
   12.9870    8.7960    4.9660 C   0  0  0  0  0  2  0  0  0  0  0  0
   12.5270    7.4030    4.5410 C   0  0  0  0  0  2  0  0  0  0  0  0
   10.5190    0.8850    5.0870 C   0  0  0  0  0  0  0  0  0  0  0  0
   11.0580    0.5760    6.1980 O   0  0  0  0  0  1  0  0  0  0  0  0
    9.7560    0.1340    4.3990 O   0  0  0  0  0  0  0  0  0  0  0  0
   10.4040    3.5730    0.2130 C   0  0  0  0  0  2  0  0  0  0  0  0
   12.7390    3.1960   -0.3290 O   0  0  0  0  0  0  0  0  0  0  0  0
   11.5610    2.8840   -0.4860 C   0  0  0  0  0  0  0  0  0  0  0  0
   11.1860    1.8460   -1.3210 N   0  0  0  0  0  0  0  0  0  0  0  0
   10.2090    1.6190   -1.4420 H   0  0  0  0  0  0  0  0  0  0  0  0
   12.1770    1.0870   -2.0420 C   0  0  0  0  0  2  0  0  0  0  0  0
   11.5670   -0.1820   -2.5430 C   0  0  0  0  0  3  0  0  0  0  0  0
   12.4360   -1.3730   -2.8510 C   0  0  0  0  0  2  0  0  0  0  0  0
   11.5070   -1.4080   -1.6690 C   0  0  0  0  0  2  0  0  0  0  0  0
  1  2  1  0  0  0  0
  1  9  1  0  0  0  0
  2  3  2  0  0  0  0
  3 17  1  0  0  0  0
  3  4  1  0  0  0  0
  4  5  1  0  0  0  0
  5  6  2  0  0  0  0
  7 23  1  0  0  0  0
  7  6  1  0  0  0  0
  8  7  2  0  0  0  0
  9  8  1  0  0  0  0
  9  4  2  0  0  0  0
 10  2  1  0  0  0  0
 11 10  2  0  0  0  0
 12 11  1  0  0  0  0
 13 12  2  0  0  0  0
 13 15  1  0  0  0  0
 14 13  1  0  0  0  0
 15 16  2  0  0  0  0
 16 10  1  0  0  0  0
 17 22  1  0  0  0  0
 18 17  1  0  0  0  0
 18 19  1  0  0  0  0
 19 20  1  0  0  0  0
 20 21  1  0  0  0  0
 22 21  1  0  0  0  0
 23 24  1  0  0  0  0
 25 23  2  0  0  0  0
 26  1  1  0  0  0  0
 28 27  2  0  0  0  0
 28 26  1  0  0  0  0
 29 28  1  0  0  0  0
 30 29  1  0  0  0  0
 31 29  1  0  0  0  0
 32 31  1  0  0  0  0
 32 34  1  0  0  0  0
 33 32  1  0  0  0  0
 33 34  1  0  0  0  0
M  END
>  <minimizedAffinity>
-6.89496422

$$$$

 OpenBabel09122222293D

 34 38  0  0  0  0  0  0  0  0999 V2000
    6.5750   -3.5710    3.7100 N   0  0  0  0  0  0  0  0  0  0  0  0
    7.8090   -2.9450    3.7290 C   0  0  0  0  0  0  0  0  0  0  0  0
    8.1710   -2.7650    5.0620 C   0  0  0  0  0  0  0  0  0  0  0  0
    7.0720   -3.2280    5.8620 C   0  0  0  0  0  0  0  0  0  0  0  0
    6.8180   -3.2800    7.2500 C   0  0  0  0  0  3  0  0  0  0  0  0
    5.5910   -3.7610    7.7270 C   0  0  0  0  0  3  0  0  0  0  0  0
    4.5960   -4.2070    6.8530 C   0  0  0  0  0  0  0  0  0  0  0  0
    4.8530   -4.1880    5.4700 C   0  0  0  0  0  3  0  0  0  0  0  0
    6.0840   -3.6980    4.9940 C   0  0  0  0  0  0  0  0  0  0  0  0
    8.5510   -2.5830    2.5230 C   0  0  0  0  0  0  0  0  0  0  0  0
    9.1850   -3.5730    1.7620 C   0  0  0  0  0  3  0  0  0  0  0  0
    9.8940   -3.2270    0.6110 C   0  0  0  0  0  3  0  0  0  0  0  0
    9.9740   -1.8900    0.2240 C   0  0  0  0  0  0  0  0  0  0  0  0
   10.8360   -1.4630   -1.2020 Cl  0  0  0  0  0  0  0  0  0  0  0  0
    9.3540   -0.8960    0.9800 C   0  0  0  0  0  3  0  0  0  0  0  0
    8.6450   -1.2420    2.1320 C   0  0  0  0  0  3  0  0  0  0  0  0
    9.4730   -2.1660    5.5470 C   0  0  0  0  0  3  0  0  0  0  0  0
    9.5130   -0.6360    5.4060 C   0  0  0  0  0  2  0  0  0  0  0  0
   10.8480   -0.0640    5.8760 C   0  0  0  0  0  2  0  0  0  0  0  0
   11.1820   -0.5060    7.2990 C   0  0  0  0  0  2  0  0  0  0  0  0
   11.1550   -2.0250    7.4370 C   0  0  0  0  0  2  0  0  0  0  0  0
    9.8210   -2.6090    6.9790 C   0  0  0  0  0  2  0  0  0  0  0  0
    3.2590   -4.6980    7.3800 C   0  0  0  0  0  0  0  0  0  0  0  0
    2.9190   -5.8890    7.0850 O   0  0  0  0  0  0  0  0  0  0  0  0
    2.5690   -3.8810    8.0700 O   0  0  0  0  0  1  0  0  0  0  0  0
    5.8450   -3.9540    2.5070 C   0  0  0  0  0  2  0  0  0  0  0  0
    6.9530   -6.0670    2.0650 O   0  0  0  0  0  0  0  0  0  0  0  0
    5.9060   -5.4430    2.2220 C   0  0  0  0  0  0  0  0  0  0  0  0
    4.6710   -6.0640    2.1670 N   0  0  0  0  0  0  0  0  0  0  0  0
    3.8240   -5.5240    2.2870 H   0  0  0  0  0  0  0  0  0  0  0  0
    4.5690   -7.4800    1.9190 C   0  0  0  0  0  2  0  0  0  0  0  0
    4.2330   -7.7130    0.4810 C   0  0  0  0  0  3  0  0  0  0  0  0
    4.3940   -6.6040   -0.5260 C   0  0  0  0  0  2  0  0  0  0  0  0
    5.3170   -7.7910   -0.5630 C   0  0  0  0  0  2  0  0  0  0  0  0
  1  2  1  0  0  0  0
  1  9  1  0  0  0  0
  2  3  2  0  0  0  0
  3 17  1  0  0  0  0
  3  4  1  0  0  0  0
  4  5  1  0  0  0  0
  5  6  2  0  0  0  0
  7 23  1  0  0  0  0
  7  6  1  0  0  0  0
  8  7  2  0  0  0  0
  9  8  1  0  0  0  0
  9  4  2  0  0  0  0
 10  2  1  0  0  0  0
 11 10  2  0  0  0  0
 12 11  1  0  0  0  0
 13 12  2  0  0  0  0
 13 15  1  0  0  0  0
 14 13  1  0  0  0  0
 15 16  2  0  0  0  0
 16 10  1  0  0  0  0
 17 22  1  0  0  0  0
 18 17  1  0  0  0  0
 18 19  1  0  0  0  0
 19 20  1  0  0  0  0
 20 21  1  0  0  0  0
 22 21  1  0  0  0  0
 23 25  1  0  0  0  0
 24 23  2  0  0  0  0
 26  1  1  0  0  0  0
 27 28  2  0  0  0  0
 28 26  1  0  0  0  0
 29 28  1  0  0  0  0
 29 30  1  0  0  0  0
 31 29  1  0  0  0  0
 32 31  1  0  0  0  0
 33 32  1  0  0  0  0
 34 33  1  0  0  0  0
 34 32  1  0  0  0  0
M  END
>  <minimizedAffinity>
-6.83670187

$$$$

 OpenBabel09122222293D

 34 38  0  0  0  0  0  0  0  0999 V2000
    7.5050   -3.4570    2.9350 N   0  0  0  0  0  0  0  0  0  0  0  0
    6.3020   -4.1200    3.1060 C   0  0  0  0  0  0  0  0  0  0  0  0
    6.1660   -5.0230    2.0540 C   0  0  0  0  0  0  0  0  0  0  0  0
    7.2920   -4.8270    1.1840 C   0  0  0  0  0  0  0  0  0  0  0  0
    7.7000   -5.4010   -0.0410 C   0  0  0  0  0  3  0  0  0  0  0  0
    8.8620   -4.9460   -0.6810 C   0  0  0  0  0  3  0  0  0  0  0  0
    9.6460   -3.9300   -0.1290 C   0  0  0  0  0  0  0  0  0  0  0  0
    9.2630   -3.3760    1.1050 C   0  0  0  0  0  3  0  0  0  0  0  0
    8.0920   -3.8290    1.7430 C   0  0  0  0  0  0  0  0  0  0  0  0
    5.3960   -3.8770    4.2250 C   0  0  0  0  0  0  0  0  0  0  0  0
    4.0910   -3.4290    3.9910 C   0  0  0  0  0  3  0  0  0  0  0  0
    3.2260   -3.1960    5.0610 C   0  0  0  0  0  3  0  0  0  0  0  0
    3.6680   -3.4070    6.3660 C   0  0  0  0  0  0  0  0  0  0  0  0
    2.5990   -3.1350    7.6860 Cl  0  0  0  0  0  0  0  0  0  0  0  0
    4.9690   -3.8460    6.6110 C   0  0  0  0  0  3  0  0  0  0  0  0
    5.8350   -4.0770    5.5400 C   0  0  0  0  0  3  0  0  0  0  0  0
    5.0220   -5.9960    1.8720 C   0  0  0  0  0  3  0  0  0  0  0  0
    4.9280   -6.5430    0.4380 C   0  0  0  0  0  2  0  0  0  0  0  0
    3.7470   -7.4980    0.2800 C   0  0  0  0  0  2  0  0  0  0  0  0
    3.7910   -8.6250    1.3080 C   0  0  0  0  0  2  0  0  0  0  0  0
    3.8710   -8.0830    2.7330 C   0  0  0  0  0  2  0  0  0  0  0  0
    5.0540   -7.1330    2.9080 C   0  0  0  0  0  2  0  0  0  0  0  0
   10.8860   -3.4250   -0.8480 C   0  0  0  0  0  0  0  0  0  0  0  0
   10.7600   -2.3710   -1.5510 O   0  0  0  0  0  0  0  0  0  0  0  0
   11.9560   -4.0970   -0.7050 O   0  0  0  0  0  1  0  0  0  0  0  0
    8.0360   -2.4340    3.8310 C   0  0  0  0  0  2  0  0  0  0  0  0
   10.2820   -1.6270    3.3920 O   0  0  0  0  0  0  0  0  0  0  0  0
    9.0750   -1.5470    3.1720 C   0  0  0  0  0  0  0  0  0  0  0  0
    8.5570   -0.6310    2.2740 N   0  0  0  0  0  0  0  0  0  0  0  0
    7.5590   -0.5780    2.1210 H   0  0  0  0  0  0  0  0  0  0  0  0
    9.4240    0.2700    1.5580 C   0  0  0  0  0  2  0  0  0  0  0  0
    9.3300    1.6350    2.1590 C   0  0  0  0  0  3  0  0  0  0  0  0
   10.2350    2.0280    3.2990 C   0  0  0  0  0  2  0  0  0  0  0  0
   10.4220    2.6520    1.9430 C   0  0  0  0  0  2  0  0  0  0  0  0
  1  2  1  0  0  0  0
  1 26  1  0  0  0  0
  2 10  1  0  0  0  0
  3  2  2  0  0  0  0
  4  9  1  0  0  0  0
  4  3  1  0  0  0  0
  5  4  2  0  0  0  0
  6  7  2  0  0  0  0
  6  5  1  0  0  0  0
  7  8  1  0  0  0  0
  8  9  2  0  0  0  0
  9  1  1  0  0  0  0
 10 16  1  0  0  0  0
 11 10  2  0  0  0  0
 11 12  1  0  0  0  0
 12 13  2  0  0  0  0
 13 15  1  0  0  0  0
 13 14  1  0  0  0  0
 16 15  2  0  0  0  0
 17  3  1  0  0  0  0
 17 22  1  0  0  0  0
 18 17  1  0  0  0  0
 19 18  1  0  0  0  0
 19 20  1  0  0  0  0
 20 21  1  0  0  0  0
 21 22  1  0  0  0  0
 23 25  1  0  0  0  0
 23  7  1  0  0  0  0
 24 23  2  0  0  0  0
 28 27  2  0  0  0  0
 28 26  1  0  0  0  0
 29 28  1  0  0  0  0
 30 29  1  0  0  0  0
 31 32  1  0  0  0  0
 31 29  1  0  0  0  0
 32 33  1  0  0  0  0
 34 32  1  0  0  0  0
 34 33  1  0  0  0  0
M  END
>  <minimizedAffinity>
-6.80886793

$$$$
