
 OpenBabel09122222393D

 34 38  0  0  0  0  0  0  0  0999 V2000
    8.3930   -2.9360    3.4840 N   0  0  0  0  0  0  0  0  0  0  0  0
    7.2040   -3.6380    3.5770 C   0  0  0  0  0  0  0  0  0  0  0  0
    6.6430   -3.3540    4.8200 C   0  0  0  0  0  0  0  0  0  0  0  0
    7.5770   -2.5180    5.5210 C   0  0  0  0  0  0  0  0  0  0  0  0
    7.6030   -1.9350    6.8080 C   0  0  0  0  0  3  0  0  0  0  0  0
    8.7130   -1.1860    7.2220 C   0  0  0  0  0  3  0  0  0  0  0  0
    9.8120   -0.9880    6.3810 C   0  0  0  0  0  0  0  0  0  0  0  0
    9.7800   -1.5390    5.0870 C   0  0  0  0  0  3  0  0  0  0  0  0
    8.6660   -2.2960    4.6760 C   0  0  0  0  0  0  0  0  0  0  0  0
    6.6820   -4.4910    2.5130 C   0  0  0  0  0  0  0  0  0  0  0  0
    5.3170   -4.7960    2.4590 C   0  0  0  0  0  3  0  0  0  0  0  0
    4.8200   -5.6130    1.4420 C   0  0  0  0  0  3  0  0  0  0  0  0
    5.6890   -6.1280    0.4820 C   0  0  0  0  0  0  0  0  0  0  0  0
    5.0760   -7.1220   -0.7810 Cl  0  0  0  0  0  0  0  0  0  0  0  0
    7.0520   -5.8370    0.5310 C   0  0  0  0  0  3  0  0  0  0  0  0
    7.5490   -5.0210    1.5490 C   0  0  0  0  0  3  0  0  0  0  0  0
    5.3110   -3.8680    5.3230 C   0  0  0  0  0  3  0  0  0  0  0  0
    5.3920   -4.4310    6.7510 C   0  0  0  0  0  2  0  0  0  0  0  0
    4.0410   -4.9670    7.2190 C   0  0  0  0  0  2  0  0  0  0  0  0
    2.9420   -3.9160    7.0910 C   0  0  0  0  0  2  0  0  0  0  0  0
    2.8520   -3.3650    5.6710 C   0  0  0  0  0  2  0  0  0  0  0  0
    4.1950   -2.8170    5.1940 C   0  0  0  0  0  2  0  0  0  0  0  0
   11.0220   -0.2010    6.8520 C   0  0  0  0  0  0  0  0  0  0  0  0
   11.5360   -0.5390    7.9660 O   0  0  0  0  0  1  0  0  0  0  0  0
   11.4270    0.7470    6.1060 O   0  0  0  0  0  0  0  0  0  0  0  0
    9.2860   -2.9440    2.3300 C   0  0  0  0  0  2  0  0  0  0  0  0
    8.5540   -0.6840    1.8380 O   0  0  0  0  0  0  0  0  0  0  0  0
    9.2220   -1.6650    1.5180 C   0  0  0  0  0  0  0  0  0  0  0  0
   10.0000   -1.6760    0.3740 N   0  0  0  0  0  0  0  0  0  0  0  0
   10.5300   -2.5010    0.1280 H   0  0  0  0  0  0  0  0  0  0  0  0
   10.0530   -0.5250   -0.4920 C   0  0  0  0  0  2  0  0  0  0  0  0
   11.0720   -0.7510   -1.5610 C   0  0  0  0  0  3  0  0  0  0  0  0
   10.7830   -0.3470   -2.9840 C   0  0  0  0  0  2  0  0  0  0  0  0
   11.8100    0.4070   -2.1830 C   0  0  0  0  0  2  0  0  0  0  0  0
  1  2  1  0  0  0  0
  1  9  1  0  0  0  0
  2  3  2  0  0  0  0
  3 17  1  0  0  0  0
  3  4  1  0  0  0  0
  4  5  1  0  0  0  0
  5  6  2  0  0  0  0
  7 23  1  0  0  0  0
  7  6  1  0  0  0  0
  8  7  2  0  0  0  0
  9  8  1  0  0  0  0
  9  4  2  0  0  0  0
 10  2  1  0  0  0  0
 11 10  1  0  0  0  0
 12 11  2  0  0  0  0
 13 15  2  0  0  0  0
 13 12  1  0  0  0  0
 14 13  1  0  0  0  0
 15 16  1  0  0  0  0
 16 10  2  0  0  0  0
 17 18  1  0  0  0  0
 18 19  1  0  0  0  0
 20 19  1  0  0  0  0
 21 20  1  0  0  0  0
 22 17  1  0  0  0  0
 22 21  1  0  0  0  0
 23 24  1  0  0  0  0
 25 23  2  0  0  0  0
 26  1  1  0  0  0  0
 28 27  2  0  0  0  0
 28 26  1  0  0  0  0
 29 28  1  0  0  0  0
 30 29  1  0  0  0  0
 31 29  1  0  0  0  0
 32 31  1  0  0  0  0
 33 34  1  0  0  0  0
 33 32  1  0  0  0  0
 34 32  1  0  0  0  0
M  END
>  <minimizedAffinity>
-7.06832743

$$$$
