
 OpenBabel09122222393D

 34 38  0  0  0  0  0  0  0  0999 V2000
    7.5390   -3.3090    2.8350 N   0  0  0  0  0  0  0  0  0  0  0  0
    6.4000   -4.0760    3.0040 C   0  0  0  0  0  0  0  0  0  0  0  0
    6.3830   -5.0330    1.9920 C   0  0  0  0  0  0  0  0  0  0  0  0
    7.5120   -4.7690    1.1440 C   0  0  0  0  0  0  0  0  0  0  0  0
    8.0120   -5.3530   -0.0400 C   0  0  0  0  0  3  0  0  0  0  0  0
    9.1450   -4.8180   -0.6690 C   0  0  0  0  0  3  0  0  0  0  0  0
    9.8120   -3.7080   -0.1440 C   0  0  0  0  0  0  0  0  0  0  0  0
    9.3390   -3.1400    1.0530 C   0  0  0  0  0  3  0  0  0  0  0  0
    8.1970   -3.6750    1.6780 C   0  0  0  0  0  0  0  0  0  0  0  0
    5.4400   -3.8720    4.0860 C   0  0  0  0  0  0  0  0  0  0  0  0
    4.1320   -3.4630    3.7990 C   0  0  0  0  0  3  0  0  0  0  0  0
    3.2150   -3.2680    4.8340 C   0  0  0  0  0  3  0  0  0  0  0  0
    3.6090   -3.4770    6.1550 C   0  0  0  0  0  0  0  0  0  0  0  0
    2.4760   -3.2510    7.4300 Cl  0  0  0  0  0  0  0  0  0  0  0  0
    4.9110   -3.8770    6.4510 C   0  0  0  0  0  3  0  0  0  0  0  0
    5.8280   -4.0700    5.4160 C   0  0  0  0  0  3  0  0  0  0  0  0
    5.3420   -6.1190    1.8240 C   0  0  0  0  0  3  0  0  0  0  0  0
    4.9060   -6.3040    0.3620 C   0  0  0  0  0  2  0  0  0  0  0  0
    3.8360   -7.3850    0.2290 C   0  0  0  0  0  2  0  0  0  0  0  0
    4.2840   -8.7030    0.8530 C   0  0  0  0  0  2  0  0  0  0  0  0
    4.7050   -8.5230    2.3090 C   0  0  0  0  0  2  0  0  0  0  0  0
    5.7830   -7.4510    2.4550 C   0  0  0  0  0  2  0  0  0  0  0  0
   11.0200   -3.1190   -0.8510 C   0  0  0  0  0  0  0  0  0  0  0  0
   12.1620   -3.5890   -0.5390 O   0  0  0  0  0  1  0  0  0  0  0  0
   10.8060   -2.1920   -1.6950 O   0  0  0  0  0  0  0  0  0  0  0  0
    7.9430   -2.2020    3.6960 C   0  0  0  0  0  2  0  0  0  0  0  0
    9.7680   -3.5330    4.5820 O   0  0  0  0  0  0  0  0  0  0  0  0
    8.9840   -2.5980    4.7260 C   0  0  0  0  0  0  0  0  0  0  0  0
    8.9980   -1.8020    5.8580 N   0  0  0  0  0  0  0  0  0  0  0  0
    8.3330   -1.0470    5.9570 H   0  0  0  0  0  0  0  0  0  0  0  0
    9.9430   -2.0470    6.9180 C   0  0  0  0  0  2  0  0  0  0  0  0
   11.1340   -1.1620    6.7400 C   0  0  0  0  0  3  0  0  0  0  0  0
   10.9620    0.2570    6.2630 C   0  0  0  0  0  2  0  0  0  0  0  0
   11.3900   -0.0120    7.6800 C   0  0  0  0  0  2  0  0  0  0  0  0
  1  2  1  0  0  0  0
  1 26  1  0  0  0  0
  2 10  1  0  0  0  0
  3  2  2  0  0  0  0
  4  9  1  0  0  0  0
  4  3  1  0  0  0  0
  5  4  2  0  0  0  0
  6  7  2  0  0  0  0
  6  5  1  0  0  0  0
  7  8  1  0  0  0  0
  8  9  2  0  0  0  0
  9  1  1  0  0  0  0
 10 16  1  0  0  0  0
 11 10  2  0  0  0  0
 11 12  1  0  0  0  0
 12 13  2  0  0  0  0
 13 15  1  0  0  0  0
 13 14  1  0  0  0  0
 16 15  2  0  0  0  0
 17  3  1  0  0  0  0
 17 22  1  0  0  0  0
 18 17  1  0  0  0  0
 19 18  1  0  0  0  0
 19 20  1  0  0  0  0
 20 21  1  0  0  0  0
 21 22  1  0  0  0  0
 23 24  1  0  0  0  0
 23  7  1  0  0  0  0
 25 23  2  0  0  0  0
 26 28  1  0  0  0  0
 27 28  2  0  0  0  0
 28 29  1  0  0  0  0
 29 30  1  0  0  0  0
 29 31  1  0  0  0  0
 32 31  1  0  0  0  0
 32 34  1  0  0  0  0
 33 32  1  0  0  0  0
 33 34  1  0  0  0  0
M  END
>  <minimizedAffinity>
-7.39647245

$$$$
