REMARK  Name = 
REMARK  9 active torsions:
REMARK  status: ('A' for Active; 'I' for Inactive)
REMARK    1  A    between atoms: C_1  and  O_2
REMARK    2  A    between atoms: O_2  and  C_3
REMARK    3  A    between atoms: C_5  and  O_6
REMARK    4  A    between atoms: O_6  and  C_7
REMARK    5  A    between atoms: C_7  and  C_8
REMARK    6  A    between atoms: C_13  and  C_14
REMARK    7  A    between atoms: C_22  and  C_23
REMARK    8  A    between atoms: C_27  and  C_28
REMARK    9  A    between atoms: N_34  and  C_35
REMARK                            x       y       z     vdW  Elec       q    Type
REMARK                         _______ _______ _______ _____ _____    ______ ____
ROOT
ATOM      1  C   UNL     1       0.815   1.939  -1.632  0.00  0.00    +0.134 A 
ATOM      2  C   UNL     1       0.064   2.860  -2.363  0.00  0.00    +0.092 A 
ATOM      3  C   UNL     1       0.258   2.995  -3.737  0.00  0.00    +0.124 A 
ATOM      4  C   UNL     1       1.135   2.142  -4.404  0.00  0.00    +0.046 A 
ATOM      5  C   UNL     1       1.900   1.227  -3.674  0.00  0.00    +0.019 A 
ATOM      6  C   UNL     1       1.781   1.150  -2.278  0.00  0.00    +0.059 A 
ENDROOT
BRANCH   6   7
ATOM      7  C   UNL     1       2.723   0.317  -1.535  0.00  0.00    +0.146 A 
ATOM      8  N   UNL     1       2.601  -0.982  -1.360  0.00  0.00    -0.227 NA
ATOM      9  C   UNL     1       3.628  -1.348  -0.523  0.00  0.00    +0.090 A 
ATOM     10  C   UNL     1       3.928  -2.606   0.022  0.00  0.00    +0.039 A 
ATOM     11  C   UNL     1       5.030  -2.752   0.887  0.00  0.00    -0.001 A 
ATOM     12  C   UNL     1       5.817  -1.626   1.176  0.00  0.00    +0.012 A 
ATOM     13  C   UNL     1       5.539  -0.363   0.637  0.00  0.00    +0.028 A 
ATOM     14  C   UNL     1       4.430  -0.252  -0.210  0.00  0.00    +0.069 A 
ATOM     15  N   UNL     1       3.856   0.797  -0.897  0.00  0.00    -0.320 N 
BRANCH  15  16
ATOM     16  C   UNL     1       4.341   2.173  -0.964  0.00  0.00    +0.089 C 
ATOM     17  C   UNL     1       4.273   2.903   0.385  0.00  0.00    +0.025 C 
ATOM     18  C   UNL     1       4.724   4.357   0.248  0.00  0.00    +0.002 C 
ATOM     19  C   UNL     1       6.108   4.462  -0.388  0.00  0.00    +0.000 C 
ATOM     20  C   UNL     1       6.171   3.742  -1.732  0.00  0.00    +0.002 C 
ATOM     21  C   UNL     1       5.732   2.284  -1.612  0.00  0.00    +0.025 C 
ENDBRANCH  15  16
BRANCH  11  22
ATOM     22  C   UNL     1       5.359  -4.099   1.502  0.00  0.00    +0.072 C 
ATOM     23  O   UNL     1       4.599  -5.074   1.209  0.00  0.00    -0.545 OA
ATOM     24  O   UNL     1       6.372  -4.151   2.269  0.00  0.00    -0.545 OA
ENDBRANCH  11  22
ENDBRANCH   6   7
BRANCH   1  26
ATOM     25  C   UNL     1       0.233   0.681   0.246  0.00  0.00    +0.277 C 
ATOM     26  O   UNL     1       0.609   1.959  -0.276  0.00  0.00    -0.494 OA
ENDBRANCH   1  26
BRANCH   3  27
ATOM     27  O   UNL     1      -0.477   3.968  -4.356  0.00  0.00    -0.487 OA
BRANCH  27  28
ATOM     28  C   UNL     1       0.275   4.822  -5.235  0.00  0.00    +0.265 C 
BRANCH  28  29
ATOM     29  C   UNL     1       0.272   6.261  -4.741  0.00  0.00    -0.003 A 
ATOM     30  C   UNL     1       0.395   6.522  -3.361  0.00  0.00    +0.007 A 
ATOM     31  C   UNL     1       0.446   7.826  -2.869  0.00  0.00    +0.000 A 
ATOM     32  C   UNL     1       0.390   8.899  -3.747  0.00  0.00    +0.001 A 
ATOM     33  C   UNL     1       0.291   8.665  -5.117  0.00  0.00    +0.009 A 
ATOM     34  C   UNL     1       0.240   7.355  -5.636  0.00  0.00    -0.011 A 
BRANCH  34  35
ATOM     35  C   UNL     1       0.169   7.187  -7.093  0.00  0.00    -0.018 A 
ATOM     36  C   UNL     1       1.328   6.941  -7.844  0.00  0.00    +0.008 A 
ATOM     37  C   UNL     1       1.260   6.797  -9.232  0.00  0.00    +0.001 A 
ATOM     38  C   UNL     1       0.033   6.900  -9.884  0.00  0.00    +0.000 A 
ATOM     39  C   UNL     1      -1.127   7.146  -9.152  0.00  0.00    +0.001 A 
ATOM     40  C   UNL     1      -1.059   7.290  -7.765  0.00  0.00    +0.008 A 
ENDBRANCH  34  35
ENDBRANCH  28  29
ENDBRANCH  27  28
ENDBRANCH   3  27
TORSDOF 8
