
 OpenBabel09122219073D

 40 45  0  0  0  0  0  0  0  0999 V2000
    3.1720   -4.0140    4.1580 C   0  0  0  0  0  0  0  0  0  0  0  0
    2.0370   -4.3810    4.8820 C   0  0  0  0  0  3  0  0  0  0  0  0
    2.0550   -5.5120    5.6970 C   0  0  0  0  0  0  0  0  0  0  0  0
    3.2380   -6.2280    5.8680 C   0  0  0  0  0  3  0  0  0  0  0  0
    4.3740   -5.8730    5.1340 C   0  0  0  0  0  3  0  0  0  0  0  0
    4.3380   -4.7940    4.2380 C   0  0  0  0  0  0  0  0  0  0  0  0
    5.4810   -4.5680    3.3580 C   0  0  0  0  0  0  0  0  0  0  0  0
    6.3170   -3.5570    3.4560 N   0  0  0  0  0  0  0  0  0  0  0  0
    7.1670   -3.6640    2.3820 C   0  0  0  0  0  0  0  0  0  0  0  0
    8.2110   -2.8140    1.9830 C   0  0  0  0  0  3  0  0  0  0  0  0
    8.9490   -3.1060    0.8190 C   0  0  0  0  0  0  0  0  0  0  0  0
    8.6270   -4.2590    0.0850 C   0  0  0  0  0  3  0  0  0  0  0  0
    7.5940   -5.1240    0.4700 C   0  0  0  0  0  3  0  0  0  0  0  0
    6.8740   -4.7970    1.6260 C   0  0  0  0  0  0  0  0  0  0  0  0
    5.8160   -5.3830    2.2870 N   0  0  0  0  0  0  0  0  0  0  0  0
    5.1550   -6.6400    1.9470 C   0  0  0  0  0  3  0  0  0  0  0  0
    4.3690   -6.5720    0.6300 C   0  0  0  0  0  2  0  0  0  0  0  0
    3.6400   -7.8860    0.3540 C   0  0  0  0  0  2  0  0  0  0  0  0
    4.5920   -9.0790    0.3880 C   0  0  0  0  0  2  0  0  0  0  0  0
    5.3670   -9.1490    1.7010 C   0  0  0  0  0  2  0  0  0  0  0  0
    6.1100   -7.8460    1.9880 C   0  0  0  0  0  2  0  0  0  0  0  0
   10.0670   -2.1900    0.3600 C   0  0  0  0  0  0  0  0  0  0  0  0
   10.4950   -2.3430   -0.8260 O   0  0  0  0  0  0  0  0  0  0  0  0
   10.4950   -1.3370    1.2010 O   0  0  0  0  0  1  0  0  0  0  0  0
    2.2510   -1.8840    3.9090 C   0  0  0  0  0  1  0  0  0  0  0  0
    3.0100   -2.9420    3.3170 O   0  0  0  0  0  0  0  0  0  0  0  0
    0.8770   -5.8270    6.3150 O   0  0  0  0  0  0  0  0  0  0  0  0
   -0.3000   -5.5850    5.5260 C   0  0  0  0  0  2  0  0  0  0  0  0
   -1.2860   -6.7380    5.6400 C   0  0  0  0  0  0  0  0  0  0  0  0
   -2.6380   -6.4700    5.9350 C   0  0  0  0  0  3  0  0  0  0  0  0
   -3.5850   -7.4920    6.0000 C   0  0  0  0  0  3  0  0  0  0  0  0
   -3.2050   -8.8040    5.7560 C   0  0  0  0  0  3  0  0  0  0  0  0
   -1.8790   -9.0900    5.4400 C   0  0  0  0  0  3  0  0  0  0  0  0
   -0.9050   -8.0720    5.3670 C   0  0  0  0  0  0  0  0  0  0  0  0
    0.4650   -8.4470    4.9960 C   0  0  0  0  0  0  0  0  0  0  0  0
    1.4220   -8.7340    5.9810 C   0  0  0  0  0  3  0  0  0  0  0  0
    2.7290   -9.0750    5.6250 C   0  0  0  0  0  3  0  0  0  0  0  0
    3.0950   -9.1300    4.2820 C   0  0  0  0  0  3  0  0  0  0  0  0
    2.1560   -8.8450    3.2920 C   0  0  0  0  0  3  0  0  0  0  0  0
    0.8490   -8.5040    3.6470 C   0  0  0  0  0  3  0  0  0  0  0  0
  1  6  2  0  0  0  0
  1  2  1  0  0  0  0
  2  3  2  0  0  0  0
  3  4  1  0  0  0  0
  3 27  1  0  0  0  0
  5  4  2  0  0  0  0
  6  5  1  0  0  0  0
  7  8  2  0  0  0  0
  7  6  1  0  0  0  0
  9  8  1  0  0  0  0
 10  9  1  0  0  0  0
 11 10  2  0  0  0  0
 12 13  2  0  0  0  0
 12 11  1  0  0  0  0
 13 14  1  0  0  0  0
 14 15  1  0  0  0  0
 14  9  2  0  0  0  0
 15  7  1  0  0  0  0
 16 21  1  0  0  0  0
 16 15  1  0  0  0  0
 17 16  1  0  0  0  0
 18 19  1  0  0  0  0
 18 17  1  0  0  0  0
 19 20  1  0  0  0  0
 20 21  1  0  0  0  0
 22 11  1  0  0  0  0
 22 24  1  0  0  0  0
 23 22  2  0  0  0  0
 26 25  1  0  0  0  0
 26  1  1  0  0  0  0
 28 29  1  0  0  0  0
 28 27  1  0  0  0  0
 29 30  1  0  0  0  0
 30 31  2  0  0  0  0
 32 31  1  0  0  0  0
 33 32  2  0  0  0  0
 34 33  1  0  0  0  0
 34 29  2  0  0  0  0
 35 34  1  0  0  0  0
 35 36  1  0  0  0  0
 37 36  2  0  0  0  0
 38 37  1  0  0  0  0
 39 40  1  0  0  0  0
 39 38  2  0  0  0  0
 40 35  2  0  0  0  0
M  END
>  <minimizedAffinity>
-3.81890106

$$$$
