
 OpenBabel09122222393D

 24 27  0  0  0  0  0  0  0  0999 V2000
    3.5960   -7.8500    3.1990 C   0  0  0  0  0  0  0  0  0  0  0  0
    2.9960   -7.5720    4.3350 N   0  0  0  0  0  0  0  0  0  0  0  0
    3.2860   -6.2580    4.6020 C   0  0  0  0  0  0  0  0  0  0  0  0
    2.8770   -5.4570    5.6800 C   0  0  0  0  0  3  0  0  0  0  0  0
    3.3050   -4.1180    5.7630 C   0  0  0  0  0  0  0  0  0  0  0  0
    4.1360   -3.6120    4.7510 C   0  0  0  0  0  3  0  0  0  0  0  0
    4.5560   -4.3930    3.6660 C   0  0  0  0  0  3  0  0  0  0  0  0
    4.1150   -5.7220    3.6180 C   0  0  0  0  0  0  0  0  0  0  0  0
    4.3320   -6.7710    2.7440 N   0  0  0  0  0  0  0  0  0  0  0  0
    5.6420  -10.0260    3.5680 C   0  0  0  0  0  1  0  0  0  0  0  0
    4.4410  -10.1350    2.7660 N   0  0  0  0  0  0  0  0  0  0  0  0
    4.0790  -11.2490    2.0510 C   0  0  0  0  0  3  0  0  0  0  0  0
    2.8730  -10.9910    1.4390 C   0  0  0  0  0  3  0  0  0  0  0  0
    2.5030   -9.6680    1.7870 C   0  0  0  0  0  3  0  0  0  0  0  0
    3.5030   -9.1420    2.5870 C   0  0  0  0  0  0  0  0  0  0  0  0
    5.2430   -6.7770    1.6040 C   0  0  0  0  0  3  0  0  0  0  0  0
    4.5130   -6.9040    0.2590 C   0  0  0  0  0  2  0  0  0  0  0  0
    5.5020   -6.9650   -0.9050 C   0  0  0  0  0  2  0  0  0  0  0  0
    6.4720   -5.7860   -0.8880 C   0  0  0  0  0  2  0  0  0  0  0  0
    7.2050   -5.6790    0.4460 C   0  0  0  0  0  2  0  0  0  0  0  0
    6.2310   -5.5980    1.6190 C   0  0  0  0  0  2  0  0  0  0  0  0
    2.8800   -3.2400    6.9240 C   0  0  0  0  0  0  0  0  0  0  0  0
    2.5940   -3.8190    8.0180 O   0  0  0  0  0  1  0  0  0  0  0  0
    2.8460   -1.9850    6.7170 O   0  0  0  0  0  0  0  0  0  0  0  0
  1  2  2  0  0  0  0
  2  3  1  0  0  0  0
  3  4  1  0  0  0  0
  4  5  2  0  0  0  0
  5 22  1  0  0  0  0
  6  5  1  0  0  0  0
  7  6  2  0  0  0  0
  8  7  1  0  0  0  0
  8  3  2  0  0  0  0
  9  1  1  0  0  0  0
  9  8  1  0  0  0  0
 11 10  1  0  0  0  0
 12 11  1  0  0  0  0
 13 14  1  0  0  0  0
 13 12  2  0  0  0  0
 14 15  2  0  0  0  0
 15 11  1  0  0  0  0
 15  1  1  0  0  0  0
 16 21  1  0  0  0  0
 16  9  1  0  0  0  0
 17 16  1  0  0  0  0
 18 19  1  0  0  0  0
 18 17  1  0  0  0  0
 19 20  1  0  0  0  0
 20 21  1  0  0  0  0
 22 23  1  0  0  0  0
 24 22  2  0  0  0  0
M  END
>  <minimizedAffinity>
-6.58320236

$$$$
