
 OpenBabel09122222393D

 24 27  0  0  0  0  0  0  0  0999 V2000
    3.7650   -4.0780    4.3520 C   0  0  0  0  0  0  0  0  0  0  0  0
    4.3640   -3.7740    3.2220 N   0  0  0  0  0  0  0  0  0  0  0  0
    4.5110   -4.9570    2.5450 C   0  0  0  0  0  0  0  0  0  0  0  0
    5.0690   -5.1940    1.2790 C   0  0  0  0  0  3  0  0  0  0  0  0
    5.1270   -6.5070    0.7710 C   0  0  0  0  0  0  0  0  0  0  0  0
    4.6150   -7.5550    1.5520 C   0  0  0  0  0  3  0  0  0  0  0  0
    4.0540   -7.3410    2.8180 C   0  0  0  0  0  3  0  0  0  0  0  0
    4.0170   -6.0240    3.2940 C   0  0  0  0  0  0  0  0  0  0  0  0
    3.5740   -5.4420    4.4670 N   0  0  0  0  0  0  0  0  0  0  0  0
    5.7520   -2.8440    6.2470 C   0  0  0  0  0  1  0  0  0  0  0  0
    4.3430   -2.5170    6.1830 N   0  0  0  0  0  0  0  0  0  0  0  0
    3.7170   -1.6030    6.9940 C   0  0  0  0  0  3  0  0  0  0  0  0
    2.3920   -1.5420    6.6260 C   0  0  0  0  0  3  0  0  0  0  0  0
    2.2100   -2.4630    5.5660 C   0  0  0  0  0  3  0  0  0  0  0  0
    3.4250   -3.0810    5.3240 C   0  0  0  0  0  0  0  0  0  0  0  0
    3.0840   -6.1410    5.6510 C   0  0  0  0  0  3  0  0  0  0  0  0
    3.7810   -5.6850    6.9420 C   0  0  0  0  0  2  0  0  0  0  0  0
    3.2850   -6.4790    8.1500 C   0  0  0  0  0  2  0  0  0  0  0  0
    1.7630   -6.4320    8.2730 C   0  0  0  0  0  2  0  0  0  0  0  0
    1.0790   -6.9020    6.9920 C   0  0  0  0  0  2  0  0  0  0  0  0
    1.5510   -6.1070    5.7770 C   0  0  0  0  0  2  0  0  0  0  0  0
    5.7340   -6.7840   -0.5910 C   0  0  0  0  0  0  0  0  0  0  0  0
    5.4420   -7.8890   -1.1440 O   0  0  0  0  0  0  0  0  0  0  0  0
    6.4880   -5.8840   -1.0810 O   0  0  0  0  0  1  0  0  0  0  0  0
  1  9  1  0  0  0  0
  1 15  1  0  0  0  0
  2  1  2  0  0  0  0
  3  2  1  0  0  0  0
  3  8  1  0  0  0  0
  4  3  2  0  0  0  0
  5  4  1  0  0  0  0
  5  6  2  0  0  0  0
  6  7  1  0  0  0  0
  7  8  2  0  0  0  0
  8  9  1  0  0  0  0
  9 16  1  0  0  0  0
 11 10  1  0  0  0  0
 11 12  1  0  0  0  0
 13 12  2  0  0  0  0
 14 13  1  0  0  0  0
 15 14  2  0  0  0  0
 15 11  1  0  0  0  0
 16 21  1  0  0  0  0
 16 17  1  0  0  0  0
 17 18  1  0  0  0  0
 18 19  1  0  0  0  0
 20 19  1  0  0  0  0
 21 20  1  0  0  0  0
 22  5  1  0  0  0  0
 23 22  2  0  0  0  0
 24 22  1  0  0  0  0
M  END
>  <minimizedAffinity>
-6.66326141

$$$$
