
 OpenBabel09122222393D

 24 27  0  0  0  0  0  0  0  0999 V2000
    4.5260   -5.7210    2.3870 C   0  0  0  0  0  0  0  0  0  0  0  0
    4.2330   -4.4520    2.5650 N   0  0  0  0  0  0  0  0  0  0  0  0
    3.8460   -4.3350    3.8740 C   0  0  0  0  0  0  0  0  0  0  0  0
    3.4500   -3.1920    4.5870 C   0  0  0  0  0  3  0  0  0  0  0  0
    3.0780   -3.3010    5.9410 C   0  0  0  0  0  0  0  0  0  0  0  0
    3.1180   -4.5650    6.5520 C   0  0  0  0  0  3  0  0  0  0  0  0
    3.5100   -5.7180    5.8590 C   0  0  0  0  0  3  0  0  0  0  0  0
    3.8680   -5.5740    4.5130 C   0  0  0  0  0  0  0  0  0  0  0  0
    4.2740   -6.4580    3.5300 N   0  0  0  0  0  0  0  0  0  0  0  0
    7.3340   -5.3420    1.3730 C   0  0  0  0  0  1  0  0  0  0  0  0
    6.2820   -6.0520    0.6760 N   0  0  0  0  0  0  0  0  0  0  0  0
    6.4220   -6.6410   -0.5560 C   0  0  0  0  0  3  0  0  0  0  0  0
    5.2260   -7.2380   -0.8830 C   0  0  0  0  0  3  0  0  0  0  0  0
    4.3290   -6.9880    0.1840 C   0  0  0  0  0  3  0  0  0  0  0  0
    4.9930   -6.2250    1.1300 C   0  0  0  0  0  0  0  0  0  0  0  0
    4.3350   -7.9120    3.6420 C   0  0  0  0  0  3  0  0  0  0  0  0
    3.1070   -8.6070    3.0360 C   0  0  0  0  0  2  0  0  0  0  0  0
    3.1790  -10.1220    3.2230 C   0  0  0  0  0  2  0  0  0  0  0  0
    4.4880  -10.6980    2.6860 C   0  0  0  0  0  2  0  0  0  0  0  0
    5.7020  -10.0130    3.3060 C   0  0  0  0  0  2  0  0  0  0  0  0
    5.6550   -8.4990    3.1120 C   0  0  0  0  0  2  0  0  0  0  0  0
    2.6400   -2.0790    6.7250 C   0  0  0  0  0  0  0  0  0  0  0  0
    3.0730   -1.9640    7.9140 O   0  0  0  0  0  1  0  0  0  0  0  0
    1.8750   -1.2550    6.1300 O   0  0  0  0  0  0  0  0  0  0  0  0
  1  2  2  0  0  0  0
  1  9  1  0  0  0  0
  2  3  1  0  0  0  0
  3  8  2  0  0  0  0
  3  4  1  0  0  0  0
  4  5  2  0  0  0  0
  5  6  1  0  0  0  0
  5 22  1  0  0  0  0
  7  6  2  0  0  0  0
  8  7  1  0  0  0  0
  9 16  1  0  0  0  0
  9  8  1  0  0  0  0
 11 15  1  0  0  0  0
 11 10  1  0  0  0  0
 12 11  1  0  0  0  0
 13 12  2  0  0  0  0
 13 14  1  0  0  0  0
 14 15  2  0  0  0  0
 15  1  1  0  0  0  0
 17 18  1  0  0  0  0
 17 16  1  0  0  0  0
 19 18  1  0  0  0  0
 19 20  1  0  0  0  0
 21 20  1  0  0  0  0
 21 16  1  0  0  0  0
 22 23  1  0  0  0  0
 24 22  2  0  0  0  0
M  END
>  <minimizedAffinity>
-6.55390406

$$$$
