MODEL 1
REMARK VINA RESULT:      -7.9      0.000      0.000
REMARK  Name = 353134
REMARK  8 active torsions:
REMARK  status: ('A' for Active; 'I' for Inactive)
REMARK    1  A    between atoms: C_6  and  C_10
REMARK    2  A    between atoms: C_12  and  N_16
REMARK    3  A    between atoms: C_14  and  O_19
REMARK    4  A    between atoms: N_18  and  C_22
REMARK    5  A    between atoms: C_22  and  C_25
REMARK    6  A    between atoms: C_25  and  C_28
REMARK    7  A    between atoms: C_28  and  C_29
REMARK    8  A    between atoms: C_28  and  C_30
REMARK                            x       y       z     vdW  Elec       q    Type
REMARK                         _______ _______ _______ _____ _____    ______ ____
ROOT
ATOM      1  C   UNL     1     -12.535  54.475  49.515  0.00  0.00    +0.000 A 
ATOM      2  C   UNL     1     -12.352  54.139  50.958  0.00  0.00    +0.000 A 
ATOM      3  C   UNL     1     -13.202  55.623  49.265  0.00  0.00    +0.000 A 
ATOM      4  O   UNL     1     -12.300  52.975  51.338  0.00  0.00    +0.000 OA
ATOM      5  N   UNL     1     -12.010  55.269  51.734  0.00  0.00    +0.000 N 
ATOM      6  C   UNL     1     -13.714  56.388  50.397  0.00  0.00    +0.000 A 
ATOM      7  C   UNL     1     -13.035  56.281  51.625  0.00  0.00    +0.000 A 
ATOM      8  C   UNL     1     -14.852  57.184  50.305  0.00  0.00    +0.000 A 
ATOM      9  N   UNL     1     -13.459  56.910  52.739  0.00  0.00    +0.000 NA
ATOM     10  C   UNL     1     -15.335  57.788  51.454  0.00  0.00    +0.000 A 
ATOM     11  C   UNL     1     -14.613  57.625  52.631  0.00  0.00    +0.000 A 
ENDROOT
BRANCH   1  17
ATOM     12  S   UNL     1     -11.690  51.571  47.114  0.00  0.00    +0.000 S 
ATOM     13  O   UNL     1     -11.043  50.431  47.727  0.00  0.00    +0.000 OA
ATOM     14  O   UNL     1     -12.790  51.386  46.184  0.00  0.00    +0.000 OA
ATOM     15  N   UNL     1     -12.212  52.525  48.293  0.00  0.00    +0.000 N 
ATOM     16  C   UNL     1     -10.458  52.442  46.245  0.00  0.00    +0.000 A 
ATOM     17  C   UNL     1     -11.777  53.737  48.458  0.00  0.00    +0.000 C 
ATOM     18  C   UNL     1     -10.149  53.740  46.632  0.00  0.00    +0.000 A 
ATOM     19  C   UNL     1      -9.854  51.794  45.168  0.00  0.00    +0.000 A 
ATOM     20  N   UNL     1     -10.792  54.350  47.712  0.00  0.00    +0.000 N 
ATOM     21  C   UNL     1      -9.177  54.402  45.879  0.00  0.00    +0.000 A 
ATOM     22  C   UNL     1      -8.854  52.435  44.456  0.00  0.00    +0.000 A 
ATOM     23  C   UNL     1      -8.554  53.758  44.790  0.00  0.00    +0.000 A 
ATOM     24  H   UNL     1     -12.888  52.177  48.918  0.00  0.00    +0.000 HD
ATOM     25  H   UNL     1     -10.527  55.266  47.954  0.00  0.00    +0.000 HD
BRANCH  22  26
ATOM     26  N   UNL     1      -8.351  51.838  43.299  0.00  0.00    +0.000 N 
ATOM     27  H   UNL     1      -7.566  52.225  42.847  0.00  0.00    +0.000 HD
ATOM     28  H   UNL     1      -8.779  51.029  42.935  0.00  0.00    +0.000 HD
ENDBRANCH  22  26
ENDBRANCH   1  17
BRANCH   3  29
ATOM     29  O   UNL     1     -13.350  56.230  48.038  0.00  0.00    +0.000 OA
ATOM     30  H   UNL     1     -12.886  55.900  47.293  0.00  0.00    +0.000 HD
ENDBRANCH   3  29
BRANCH   5  31
ATOM     31  C   UNL     1     -10.662  55.735  51.341  0.00  0.00    +0.000 C 
BRANCH  31  32
ATOM     32  C   UNL     1      -9.458  54.950  51.851  0.00  0.00    +0.000 C 
BRANCH  32  33
ATOM     33  C   UNL     1      -9.471  54.654  53.356  0.00  0.00    +0.000 C 
ATOM     34  C   UNL     1      -9.628  53.165  53.678  0.00  0.00    +0.000 C 
ATOM     35  C   UNL     1      -8.177  55.178  53.982  0.00  0.00    +0.000 C 
ENDBRANCH  32  33
ENDBRANCH  31  32
ENDBRANCH   5  31
TORSDOF 6
ENDMDL
MODEL 2
REMARK VINA RESULT:      -7.8      3.303      6.771
REMARK  Name = 353134
REMARK  8 active torsions:
REMARK  status: ('A' for Active; 'I' for Inactive)
REMARK    1  A    between atoms: C_6  and  C_10
REMARK    2  A    between atoms: C_12  and  N_16
REMARK    3  A    between atoms: C_14  and  O_19
REMARK    4  A    between atoms: N_18  and  C_22
REMARK    5  A    between atoms: C_22  and  C_25
REMARK    6  A    between atoms: C_25  and  C_28
REMARK    7  A    between atoms: C_28  and  C_29
REMARK    8  A    between atoms: C_28  and  C_30
REMARK                            x       y       z     vdW  Elec       q    Type
REMARK                         _______ _______ _______ _____ _____    ______ ____
ROOT
ATOM      1  C   UNL     1     -10.335  55.562  50.599  0.00  0.00    +0.000 A 
ATOM      2  C   UNL     1      -9.938  55.884  49.197  0.00  0.00    +0.000 A 
ATOM      3  C   UNL     1     -11.639  55.754  50.893  0.00  0.00    +0.000 A 
ATOM      4  O   UNL     1      -8.813  56.294  48.932  0.00  0.00    +0.000 OA
ATOM      5  N   UNL     1     -10.887  55.434  48.252  0.00  0.00    +0.000 N 
ATOM      6  C   UNL     1     -12.512  56.292  49.854  0.00  0.00    +0.000 A 
ATOM      7  C   UNL     1     -12.175  56.033  48.513  0.00  0.00    +0.000 A 
ATOM      8  C   UNL     1     -13.632  57.064  50.149  0.00  0.00    +0.000 A 
ATOM      9  N   UNL     1     -12.892  56.527  47.483  0.00  0.00    +0.000 NA
ATOM     10  C   UNL     1     -14.342  57.629  49.102  0.00  0.00    +0.000 A 
ATOM     11  C   UNL     1     -13.940  57.333  47.804  0.00  0.00    +0.000 A 
ENDROOT
BRANCH   1  17
ATOM     12  S   UNL     1      -7.245  54.985  52.842  0.00  0.00    +0.000 S 
ATOM     13  O   UNL     1      -6.002  54.759  52.136  0.00  0.00    +0.000 OA
ATOM     14  O   UNL     1      -7.299  55.895  53.972  0.00  0.00    +0.000 OA
ATOM     15  N   UNL     1      -8.329  55.482  51.770  0.00  0.00    +0.000 N 
ATOM     16  C   UNL     1      -7.773  53.436  53.438  0.00  0.00    +0.000 A 
ATOM     17  C   UNL     1      -9.408  54.812  51.501  0.00  0.00    +0.000 C 
ATOM     18  C   UNL     1      -8.972  52.908  52.975  0.00  0.00    +0.000 A 
ATOM     19  C   UNL     1      -6.970  52.807  54.389  0.00  0.00    +0.000 A 
ATOM     20  N   UNL     1      -9.748  53.583  52.029  0.00  0.00    +0.000 N 
ATOM     21  C   UNL     1      -9.362  51.679  53.511  0.00  0.00    +0.000 A 
ATOM     22  C   UNL     1      -7.334  51.565  54.879  0.00  0.00    +0.000 A 
ATOM     23  C   UNL     1      -8.557  51.028  54.469  0.00  0.00    +0.000 A 
ATOM     24  H   UNL     1      -8.170  56.329  51.295  0.00  0.00    +0.000 HD
ATOM     25  H   UNL     1     -10.581  53.160  51.723  0.00  0.00    +0.000 HD
BRANCH  22  26
ATOM     26  N   UNL     1      -6.602  51.003  55.927  0.00  0.00    +0.000 N 
ATOM     27  H   UNL     1      -6.866  50.132  56.301  0.00  0.00    +0.000 HD
ATOM     28  H   UNL     1      -5.820  51.479  56.292  0.00  0.00    +0.000 HD
ENDBRANCH  22  26
ENDBRANCH   1  17
BRANCH   3  29
ATOM     29  O   UNL     1     -12.279  55.376  52.052  0.00  0.00    +0.000 OA
ATOM     30  H   UNL     1     -12.335  55.972  52.773  0.00  0.00    +0.000 HD
ENDBRANCH   3  29
BRANCH   5  31
ATOM     31  C   UNL     1     -10.902  53.955  48.249  0.00  0.00    +0.000 C 
BRANCH  31  32
ATOM     32  C   UNL     1     -10.199  53.236  47.102  0.00  0.00    +0.000 C 
BRANCH  32  33
ATOM     33  C   UNL     1     -10.185  54.001  45.772  0.00  0.00    +0.000 C 
ATOM     34  C   UNL     1      -8.928  53.739  44.937  0.00  0.00    +0.000 C 
ATOM     35  C   UNL     1     -11.426  53.622  44.962  0.00  0.00    +0.000 C 
ENDBRANCH  32  33
ENDBRANCH  31  32
ENDBRANCH   5  31
TORSDOF 6
ENDMDL
MODEL 3
REMARK VINA RESULT:      -7.7      3.304      6.338
REMARK  Name = 353134
REMARK  8 active torsions:
REMARK  status: ('A' for Active; 'I' for Inactive)
REMARK    1  A    between atoms: C_6  and  C_10
REMARK    2  A    between atoms: C_12  and  N_16
REMARK    3  A    between atoms: C_14  and  O_19
REMARK    4  A    between atoms: N_18  and  C_22
REMARK    5  A    between atoms: C_22  and  C_25
REMARK    6  A    between atoms: C_25  and  C_28
REMARK    7  A    between atoms: C_28  and  C_29
REMARK    8  A    between atoms: C_28  and  C_30
REMARK                            x       y       z     vdW  Elec       q    Type
REMARK                         _______ _______ _______ _____ _____    ______ ____
ROOT
ATOM      1  C   UNL     1     -10.437  55.757  50.981  0.00  0.00    +0.000 A 
ATOM      2  C   UNL     1     -10.733  56.228  49.597  0.00  0.00    +0.000 A 
ATOM      3  C   UNL     1     -11.513  55.570  51.775  0.00  0.00    +0.000 A 
ATOM      4  O   UNL     1      -9.946  56.942  48.985  0.00  0.00    +0.000 OA
ATOM      5  N   UNL     1     -11.847  55.567  49.031  0.00  0.00    +0.000 N 
ATOM      6  C   UNL     1     -12.833  55.883  51.238  0.00  0.00    +0.000 A 
ATOM      7  C   UNL     1     -13.021  55.777  49.847  0.00  0.00    +0.000 A 
ATOM      8  C   UNL     1     -13.886  56.305  52.046  0.00  0.00    +0.000 A 
ATOM      9  N   UNL     1     -14.189  56.091  49.252  0.00  0.00    +0.000 NA
ATOM     10  C   UNL     1     -15.073  56.689  51.443  0.00  0.00    +0.000 A 
ATOM     11  C   UNL     1     -15.175  56.564  50.062  0.00  0.00    +0.000 A 
ENDROOT
BRANCH   1  17
ATOM     12  S   UNL     1      -6.830  54.513  50.387  0.00  0.00    +0.000 S 
ATOM     13  O   UNL     1      -6.714  53.138  49.951  0.00  0.00    +0.000 OA
ATOM     14  O   UNL     1      -6.064  55.561  49.737  0.00  0.00    +0.000 OA
ATOM     15  N   UNL     1      -8.378  54.921  50.300  0.00  0.00    +0.000 N 
ATOM     16  C   UNL     1      -6.375  54.548  52.068  0.00  0.00    +0.000 A 
ATOM     17  C   UNL     1      -9.074  55.260  51.343  0.00  0.00    +0.000 C 
ATOM     18  C   UNL     1      -7.318  54.927  53.014  0.00  0.00    +0.000 A 
ATOM     19  C   UNL     1      -5.057  54.217  52.382  0.00  0.00    +0.000 A 
ATOM     20  N   UNL     1      -8.625  55.260  52.647  0.00  0.00    +0.000 N 
ATOM     21  C   UNL     1      -6.889  54.968  54.342  0.00  0.00    +0.000 A 
ATOM     22  C   UNL     1      -4.650  54.209  53.705  0.00  0.00    +0.000 A 
ATOM     23  C   UNL     1      -5.561  54.632  54.676  0.00  0.00    +0.000 A 
ATOM     24  H   UNL     1      -8.820  54.914  49.420  0.00  0.00    +0.000 HD
ATOM     25  H   UNL     1      -9.258  55.509  53.357  0.00  0.00    +0.000 HD
BRANCH  22  26
ATOM     26  N   UNL     1      -3.300  54.013  54.002  0.00  0.00    +0.000 N 
ATOM     27  H   UNL     1      -2.954  53.102  54.142  0.00  0.00    +0.000 HD
ATOM     28  H   UNL     1      -2.693  54.785  54.071  0.00  0.00    +0.000 HD
ENDBRANCH  22  26
ENDBRANCH   1  17
BRANCH   3  29
ATOM     29  O   UNL     1     -11.516  54.987  53.022  0.00  0.00    +0.000 OA
ATOM     30  H   UNL     1     -11.919  54.149  53.147  0.00  0.00    +0.000 HD
ENDBRANCH   3  29
BRANCH   5  31
ATOM     31  C   UNL     1     -11.509  54.144  48.819  0.00  0.00    +0.000 C 
BRANCH  31  32
ATOM     32  C   UNL     1     -11.730  53.555  47.430  0.00  0.00    +0.000 C 
BRANCH  32  33
ATOM     33  C   UNL     1     -11.146  54.383  46.278  0.00  0.00    +0.000 C 
ATOM     34  C   UNL     1      -9.632  54.592  46.390  0.00  0.00    +0.000 C 
ATOM     35  C   UNL     1     -11.469  53.695  44.950  0.00  0.00    +0.000 C 
ENDBRANCH  32  33
ENDBRANCH  31  32
ENDBRANCH   5  31
TORSDOF 6
ENDMDL
MODEL 4
REMARK VINA RESULT:      -7.6      3.701      6.095
REMARK  Name = 353134
REMARK  8 active torsions:
REMARK  status: ('A' for Active; 'I' for Inactive)
REMARK    1  A    between atoms: C_6  and  C_10
REMARK    2  A    between atoms: C_12  and  N_16
REMARK    3  A    between atoms: C_14  and  O_19
REMARK    4  A    between atoms: N_18  and  C_22
REMARK    5  A    between atoms: C_22  and  C_25
REMARK    6  A    between atoms: C_25  and  C_28
REMARK    7  A    between atoms: C_28  and  C_29
REMARK    8  A    between atoms: C_28  and  C_30
REMARK                            x       y       z     vdW  Elec       q    Type
REMARK                         _______ _______ _______ _____ _____    ______ ____
ROOT
ATOM      1  C   UNL     1      -6.814  54.914  50.197  0.00  0.00    +0.000 A 
ATOM      2  C   UNL     1      -7.289  55.936  51.176  0.00  0.00    +0.000 A 
ATOM      3  C   UNL     1      -5.786  54.143  50.614  0.00  0.00    +0.000 A 
ATOM      4  O   UNL     1      -7.764  57.003  50.802  0.00  0.00    +0.000 OA
ATOM      5  N   UNL     1      -7.353  55.429  52.494  0.00  0.00    +0.000 N 
ATOM      6  C   UNL     1      -5.214  54.404  51.931  0.00  0.00    +0.000 A 
ATOM      7  C   UNL     1      -6.052  54.963  52.914  0.00  0.00    +0.000 A 
ATOM      8  C   UNL     1      -3.879  54.145  52.228  0.00  0.00    +0.000 A 
ATOM      9  N   UNL     1      -5.603  55.284  54.144  0.00  0.00    +0.000 NA
ATOM     10  C   UNL     1      -3.389  54.524  53.467  0.00  0.00    +0.000 A 
ATOM     11  C   UNL     1      -4.278  55.081  54.379  0.00  0.00    +0.000 A 
ENDROOT
BRANCH   1  17
ATOM     12  S   UNL     1      -7.470  53.772  46.568  0.00  0.00    +0.000 S 
ATOM     13  O   UNL     1      -7.161  54.749  45.546  0.00  0.00    +0.000 OA
ATOM     14  O   UNL     1      -7.051  52.389  46.419  0.00  0.00    +0.000 OA
ATOM     15  N   UNL     1      -6.871  54.311  47.954  0.00  0.00    +0.000 N 
ATOM     16  C   UNL     1      -9.205  53.741  46.726  0.00  0.00    +0.000 A 
ATOM     17  C   UNL     1      -7.617  54.594  48.978  0.00  0.00    +0.000 C 
ATOM     18  C   UNL     1      -9.778  54.118  47.933  0.00  0.00    +0.000 A 
ATOM     19  C   UNL     1      -9.941  53.305  45.625  0.00  0.00    +0.000 A 
ATOM     20  N   UNL     1      -8.995  54.537  49.012  0.00  0.00    +0.000 N 
ATOM     21  C   UNL     1     -11.170  54.043  48.014  0.00  0.00    +0.000 A 
ATOM     22  C   UNL     1     -11.323  53.281  45.692  0.00  0.00    +0.000 A 
ATOM     23  C   UNL     1     -11.929  53.608  46.908  0.00  0.00    +0.000 A 
ATOM     24  H   UNL     1      -5.897  54.434  48.031  0.00  0.00    +0.000 HD
ATOM     25  H   UNL     1      -9.451  54.806  49.841  0.00  0.00    +0.000 HD
BRANCH  22  26
ATOM     26  N   UNL     1     -12.048  52.716  44.641  0.00  0.00    +0.000 N 
ATOM     27  H   UNL     1     -11.592  52.154  43.973  0.00  0.00    +0.000 HD
ATOM     28  H   UNL     1     -13.017  52.878  44.567  0.00  0.00    +0.000 HD
ENDBRANCH  22  26
ENDBRANCH   1  17
BRANCH   3  29
ATOM     29  O   UNL     1      -5.285  53.034  49.971  0.00  0.00    +0.000 OA
ATOM     30  H   UNL     1      -4.444  52.695  50.208  0.00  0.00    +0.000 HD
ENDBRANCH   3  29
BRANCH   5  31
ATOM     31  C   UNL     1      -8.412  54.401  52.566  0.00  0.00    +0.000 C 
BRANCH  31  32
ATOM     32  C   UNL     1      -9.708  54.758  53.285  0.00  0.00    +0.000 C 
BRANCH  32  33
ATOM     33  C   UNL     1     -10.990  54.412  52.517  0.00  0.00    +0.000 C 
ATOM     34  C   UNL     1     -11.428  55.512  51.545  0.00  0.00    +0.000 C 
ATOM     35  C   UNL     1     -10.777  53.107  51.748  0.00  0.00    +0.000 C 
ENDBRANCH  32  33
ENDBRANCH  31  32
ENDBRANCH   5  31
TORSDOF 6
ENDMDL
MODEL 5
REMARK VINA RESULT:      -7.6      1.690      2.150
REMARK  Name = 353134
REMARK  8 active torsions:
REMARK  status: ('A' for Active; 'I' for Inactive)
REMARK    1  A    between atoms: C_6  and  C_10
REMARK    2  A    between atoms: C_12  and  N_16
REMARK    3  A    between atoms: C_14  and  O_19
REMARK    4  A    between atoms: N_18  and  C_22
REMARK    5  A    between atoms: C_22  and  C_25
REMARK    6  A    between atoms: C_25  and  C_28
REMARK    7  A    between atoms: C_28  and  C_29
REMARK    8  A    between atoms: C_28  and  C_30
REMARK                            x       y       z     vdW  Elec       q    Type
REMARK                         _______ _______ _______ _____ _____    ______ ____
ROOT
ATOM      1  C   UNL     1     -12.112  54.567  48.851  0.00  0.00    +0.000 A 
ATOM      2  C   UNL     1     -12.064  54.049  50.250  0.00  0.00    +0.000 A 
ATOM      3  C   UNL     1     -12.915  55.635  48.653  0.00  0.00    +0.000 A 
ATOM      4  O   UNL     1     -11.877  52.860  50.482  0.00  0.00    +0.000 OA
ATOM      5  N   UNL     1     -12.005  55.088  51.206  0.00  0.00    +0.000 N 
ATOM      6  C   UNL     1     -13.681  56.145  49.786  0.00  0.00    +0.000 A 
ATOM      7  C   UNL     1     -13.156  55.952  51.077  0.00  0.00    +0.000 A 
ATOM      8  C   UNL     1     -14.910  56.779  49.628  0.00  0.00    +0.000 A 
ATOM      9  N   UNL     1     -13.813  56.344  52.187  0.00  0.00    +0.000 NA
ATOM     10  C   UNL     1     -15.625  57.133  50.761  0.00  0.00    +0.000 A 
ATOM     11  C   UNL     1     -15.041  56.900  52.001  0.00  0.00    +0.000 A 
ENDROOT
BRANCH   1  17
ATOM     12  S   UNL     1      -8.741  53.241  47.514  0.00  0.00    +0.000 S 
ATOM     13  O   UNL     1      -7.678  54.220  47.436  0.00  0.00    +0.000 OA
ATOM     14  O   UNL     1      -8.492  51.923  48.071  0.00  0.00    +0.000 OA
ATOM     15  N   UNL     1      -9.945  53.896  48.346  0.00  0.00    +0.000 N 
ATOM     16  C   UNL     1      -9.309  52.984  45.888  0.00  0.00    +0.000 A 
ATOM     17  C   UNL     1     -11.119  54.107  47.832  0.00  0.00    +0.000 C 
ATOM     18  C   UNL     1     -10.620  53.316  45.571  0.00  0.00    +0.000 A 
ATOM     19  C   UNL     1      -8.415  52.421  44.978  0.00  0.00    +0.000 A 
ATOM     20  N   UNL     1     -11.482  53.868  46.523  0.00  0.00    +0.000 N 
ATOM     21  C   UNL     1     -11.031  53.059  44.262  0.00  0.00    +0.000 A 
ATOM     22  C   UNL     1      -8.810  52.215  43.668  0.00  0.00    +0.000 A 
ATOM     23  C   UNL     1     -10.137  52.494  43.329  0.00  0.00    +0.000 A 
ATOM     24  H   UNL     1      -9.788  54.150  49.284  0.00  0.00    +0.000 HD
ATOM     25  H   UNL     1     -12.397  54.098  46.244  0.00  0.00    +0.000 HD
BRANCH  22  26
ATOM     26  N   UNL     1      -7.961  51.528  42.798  0.00  0.00    +0.000 N 
ATOM     27  H   UNL     1      -7.343  50.847  43.149  0.00  0.00    +0.000 HD
ATOM     28  H   UNL     1      -7.981  51.723  41.833  0.00  0.00    +0.000 HD
ENDBRANCH  22  26
ENDBRANCH   1  17
BRANCH   3  29
ATOM     29  O   UNL     1     -13.000  56.391  47.506  0.00  0.00    +0.000 OA
ATOM     30  H   UNL     1     -13.539  56.104  46.795  0.00  0.00    +0.000 HD
ENDBRANCH   3  29
BRANCH   5  31
ATOM     31  C   UNL     1     -10.710  55.789  51.080  0.00  0.00    +0.000 C 
BRANCH  31  32
ATOM     32  C   UNL     1      -9.499  55.188  51.786  0.00  0.00    +0.000 C 
BRANCH  32  33
ATOM     33  C   UNL     1      -8.143  55.730  51.316  0.00  0.00    +0.000 C 
ATOM     34  C   UNL     1      -7.153  54.627  50.927  0.00  0.00    +0.000 C 
ATOM     35  C   UNL     1      -8.361  56.664  50.124  0.00  0.00    +0.000 C 
ENDBRANCH  32  33
ENDBRANCH  31  32
ENDBRANCH   5  31
TORSDOF 6
ENDMDL
MODEL 6
REMARK VINA RESULT:      -7.5      2.342      7.369
REMARK  Name = 353134
REMARK  8 active torsions:
REMARK  status: ('A' for Active; 'I' for Inactive)
REMARK    1  A    between atoms: C_6  and  C_10
REMARK    2  A    between atoms: C_12  and  N_16
REMARK    3  A    between atoms: C_14  and  O_19
REMARK    4  A    between atoms: N_18  and  C_22
REMARK    5  A    between atoms: C_22  and  C_25
REMARK    6  A    between atoms: C_25  and  C_28
REMARK    7  A    between atoms: C_28  and  C_29
REMARK    8  A    between atoms: C_28  and  C_30
REMARK                            x       y       z     vdW  Elec       q    Type
REMARK                         _______ _______ _______ _____ _____    ______ ____
ROOT
ATOM      1  C   UNL     1     -11.390  53.678  47.506  0.00  0.00    +0.000 A 
ATOM      2  C   UNL     1     -11.193  54.498  46.274  0.00  0.00    +0.000 A 
ATOM      3  C   UNL     1     -10.895  52.422  47.453  0.00  0.00    +0.000 A 
ATOM      4  O   UNL     1     -12.000  55.361  45.949  0.00  0.00    +0.000 OA
ATOM      5  N   UNL     1      -9.904  54.333  45.718  0.00  0.00    +0.000 N 
ATOM      6  C   UNL     1     -10.271  51.974  46.212  0.00  0.00    +0.000 A 
ATOM      7  C   UNL     1      -9.677  52.946  45.386  0.00  0.00    +0.000 A 
ATOM      8  C   UNL     1     -10.273  50.639  45.817  0.00  0.00    +0.000 A 
ATOM      9  N   UNL     1      -9.119  52.637  44.198  0.00  0.00    +0.000 NA
ATOM     10  C   UNL     1      -9.758  50.315  44.572  0.00  0.00    +0.000 A 
ATOM     11  C   UNL     1      -9.198  51.334  43.811  0.00  0.00    +0.000 A 
ENDROOT
BRANCH   1  17
ATOM     12  S   UNL     1     -11.175  54.780  51.200  0.00  0.00    +0.000 S 
ATOM     13  O   UNL     1     -11.415  53.735  52.172  0.00  0.00    +0.000 OA
ATOM     14  O   UNL     1     -10.060  55.697  51.361  0.00  0.00    +0.000 OA
ATOM     15  N   UNL     1     -11.022  54.082  49.764  0.00  0.00    +0.000 N 
ATOM     16  C   UNL     1     -12.612  55.763  51.153  0.00  0.00    +0.000 A 
ATOM     17  C   UNL     1     -11.839  54.313  48.782  0.00  0.00    +0.000 C 
ATOM     18  C   UNL     1     -13.343  55.832  49.973  0.00  0.00    +0.000 A 
ATOM     19  C   UNL     1     -12.946  56.466  52.309  0.00  0.00    +0.000 A 
ATOM     20  N   UNL     1     -12.960  55.116  48.836  0.00  0.00    +0.000 N 
ATOM     21  C   UNL     1     -14.467  56.660  49.983  0.00  0.00    +0.000 A 
ATOM     22  C   UNL     1     -14.090  57.245  52.331  0.00  0.00    +0.000 A 
ATOM     23  C   UNL     1     -14.820  57.374  51.147  0.00  0.00    +0.000 A 
ATOM     24  H   UNL     1     -10.280  53.452  49.622  0.00  0.00    +0.000 HD
ATOM     25  H   UNL     1     -13.519  55.189  48.030  0.00  0.00    +0.000 HD
BRANCH  22  26
ATOM     26  N   UNL     1     -14.345  58.052  53.441  0.00  0.00    +0.000 N 
ATOM     27  H   UNL     1     -15.273  58.233  53.716  0.00  0.00    +0.000 HD
ATOM     28  H   UNL     1     -13.597  58.441  53.951  0.00  0.00    +0.000 HD
ENDBRANCH  22  26
ENDBRANCH   1  17
BRANCH   3  29
ATOM     29  O   UNL     1     -10.801  51.538  48.504  0.00  0.00    +0.000 OA
ATOM     30  H   UNL     1     -11.221  50.701  48.451  0.00  0.00    +0.000 HD
ENDBRANCH   3  29
BRANCH   5  31
ATOM     31  C   UNL     1      -8.901  54.901  46.645  0.00  0.00    +0.000 C 
BRANCH  31  32
ATOM     32  C   UNL     1      -7.439  54.522  46.436  0.00  0.00    +0.000 C 
BRANCH  32  33
ATOM     33  C   UNL     1      -6.808  53.727  47.587  0.00  0.00    +0.000 C 
ATOM     34  C   UNL     1      -7.669  53.710  48.853  0.00  0.00    +0.000 C 
ATOM     35  C   UNL     1      -6.552  52.292  47.123  0.00  0.00    +0.000 C 
ENDBRANCH  32  33
ENDBRANCH  31  32
ENDBRANCH   5  31
TORSDOF 6
ENDMDL
MODEL 7
REMARK VINA RESULT:      -7.5      3.230      6.730
REMARK  Name = 353134
REMARK  8 active torsions:
REMARK  status: ('A' for Active; 'I' for Inactive)
REMARK    1  A    between atoms: C_6  and  C_10
REMARK    2  A    between atoms: C_12  and  N_16
REMARK    3  A    between atoms: C_14  and  O_19
REMARK    4  A    between atoms: N_18  and  C_22
REMARK    5  A    between atoms: C_22  and  C_25
REMARK    6  A    between atoms: C_25  and  C_28
REMARK    7  A    between atoms: C_28  and  C_29
REMARK    8  A    between atoms: C_28  and  C_30
REMARK                            x       y       z     vdW  Elec       q    Type
REMARK                         _______ _______ _______ _____ _____    ______ ____
ROOT
ATOM      1  C   UNL     1      -8.524  55.155  50.272  0.00  0.00    +0.000 A 
ATOM      2  C   UNL     1      -7.697  56.114  51.062  0.00  0.00    +0.000 A 
ATOM      3  C   UNL     1      -7.939  53.968  50.002  0.00  0.00    +0.000 A 
ATOM      4  O   UNL     1      -7.812  57.326  50.914  0.00  0.00    +0.000 OA
ATOM      5  N   UNL     1      -6.999  55.482  52.116  0.00  0.00    +0.000 N 
ATOM      6  C   UNL     1      -6.568  53.752  50.454  0.00  0.00    +0.000 A 
ATOM      7  C   UNL     1      -6.132  54.451  51.595  0.00  0.00    +0.000 A 
ATOM      8  C   UNL     1      -5.685  52.911  49.781  0.00  0.00    +0.000 A 
ATOM      9  N   UNL     1      -4.870  54.355  52.060  0.00  0.00    +0.000 NA
ATOM     10  C   UNL     1      -4.370  52.849  50.210  0.00  0.00    +0.000 A 
ATOM     11  C   UNL     1      -4.016  53.577  51.340  0.00  0.00    +0.000 A 
ENDROOT
BRANCH   1  17
ATOM     12  S   UNL     1     -11.917  55.066  48.432  0.00  0.00    +0.000 S 
ATOM     13  O   UNL     1     -12.070  56.037  47.370  0.00  0.00    +0.000 OA
ATOM     14  O   UNL     1     -12.316  53.685  48.233  0.00  0.00    +0.000 OA
ATOM     15  N   UNL     1     -10.374  55.065  48.870  0.00  0.00    +0.000 N 
ATOM     16  C   UNL     1     -12.843  55.652  49.786  0.00  0.00    +0.000 A 
ATOM     17  C   UNL     1      -9.983  55.400  50.062  0.00  0.00    +0.000 C 
ATOM     18  C   UNL     1     -12.184  55.972  50.966  0.00  0.00    +0.000 A 
ATOM     19  C   UNL     1     -14.225  55.742  49.626  0.00  0.00    +0.000 A 
ATOM     20  N   UNL     1     -10.796  55.852  51.081  0.00  0.00    +0.000 N 
ATOM     21  C   UNL     1     -12.979  56.405  52.029  0.00  0.00    +0.000 A 
ATOM     22  C   UNL     1     -15.005  56.221  50.665  0.00  0.00    +0.000 A 
ATOM     23  C   UNL     1     -14.378  56.506  51.881  0.00  0.00    +0.000 A 
ATOM     24  H   UNL     1      -9.696  54.800  48.208  0.00  0.00    +0.000 HD
ATOM     25  H   UNL     1     -10.376  56.105  51.934  0.00  0.00    +0.000 HD
BRANCH  22  26
ATOM     26  N   UNL     1     -16.395  56.181  50.549  0.00  0.00    +0.000 N 
ATOM     27  H   UNL     1     -16.818  56.230  49.661  0.00  0.00    +0.000 HD
ATOM     28  H   UNL     1     -16.955  56.103  51.357  0.00  0.00    +0.000 HD
ENDBRANCH  22  26
ENDBRANCH   1  17
BRANCH   3  29
ATOM     29  O   UNL     1      -8.547  52.866  49.444  0.00  0.00    +0.000 OA
ATOM     30  H   UNL     1      -8.963  52.232  49.994  0.00  0.00    +0.000 HD
ENDBRANCH   3  29
BRANCH   5  31
ATOM     31  C   UNL     1      -7.973  54.999  53.119  0.00  0.00    +0.000 C 
BRANCH  31  32
ATOM     32  C   UNL     1      -7.632  53.732  53.895  0.00  0.00    +0.000 C 
BRANCH  32  33
ATOM     33  C   UNL     1      -8.626  52.577  53.715  0.00  0.00    +0.000 C 
ATOM     34  C   UNL     1      -9.926  53.000  53.025  0.00  0.00    +0.000 C 
ATOM     35  C   UNL     1      -7.960  51.461  52.909  0.00  0.00    +0.000 C 
ENDBRANCH  32  33
ENDBRANCH  31  32
ENDBRANCH   5  31
TORSDOF 6
ENDMDL
MODEL 8
REMARK VINA RESULT:      -7.4      2.766      7.509
REMARK  Name = 353134
REMARK  8 active torsions:
REMARK  status: ('A' for Active; 'I' for Inactive)
REMARK    1  A    between atoms: C_6  and  C_10
REMARK    2  A    between atoms: C_12  and  N_16
REMARK    3  A    between atoms: C_14  and  O_19
REMARK    4  A    between atoms: N_18  and  C_22
REMARK    5  A    between atoms: C_22  and  C_25
REMARK    6  A    between atoms: C_25  and  C_28
REMARK    7  A    between atoms: C_28  and  C_29
REMARK    8  A    between atoms: C_28  and  C_30
REMARK                            x       y       z     vdW  Elec       q    Type
REMARK                         _______ _______ _______ _____ _____    ______ ____
ROOT
ATOM      1  C   UNL     1     -10.261  54.138  46.951  0.00  0.00    +0.000 A 
ATOM      2  C   UNL     1      -8.893  53.634  47.273  0.00  0.00    +0.000 A 
ATOM      3  C   UNL     1     -10.754  53.756  45.753  0.00  0.00    +0.000 A 
ATOM      4  O   UNL     1      -8.124  54.284  47.972  0.00  0.00    +0.000 OA
ATOM      5  N   UNL     1      -8.717  52.282  46.903  0.00  0.00    +0.000 N 
ATOM      6  C   UNL     1      -9.909  52.944  44.883  0.00  0.00    +0.000 A 
ATOM      7  C   UNL     1      -8.944  52.117  45.486  0.00  0.00    +0.000 A 
ATOM      8  C   UNL     1     -10.011  52.987  43.495  0.00  0.00    +0.000 A 
ATOM      9  N   UNL     1      -8.086  51.368  44.765  0.00  0.00    +0.000 NA
ATOM     10  C   UNL     1      -9.098  52.270  42.739  0.00  0.00    +0.000 A 
ATOM     11  C   UNL     1      -8.168  51.485  43.411  0.00  0.00    +0.000 A 
ENDROOT
BRANCH   1  17
ATOM     12  S   UNL     1     -11.521  54.894  50.521  0.00  0.00    +0.000 S 
ATOM     13  O   UNL     1     -12.353  53.869  51.113  0.00  0.00    +0.000 OA
ATOM     14  O   UNL     1     -10.451  55.510  51.285  0.00  0.00    +0.000 OA
ATOM     15  N   UNL     1     -10.873  54.284  49.188  0.00  0.00    +0.000 N 
ATOM     16  C   UNL     1     -12.583  56.188  50.040  0.00  0.00    +0.000 A 
ATOM     17  C   UNL     1     -11.109  54.770  48.007  0.00  0.00    +0.000 C 
ATOM     18  C   UNL     1     -12.686  56.511  48.693  0.00  0.00    +0.000 A 
ATOM     19  C   UNL     1     -13.266  56.866  51.049  0.00  0.00    +0.000 A 
ATOM     20  N   UNL     1     -11.972  55.807  47.719  0.00  0.00    +0.000 N 
ATOM     21  C   UNL     1     -13.527  57.577  48.368  0.00  0.00    +0.000 A 
ATOM     22  C   UNL     1     -14.138  57.889  50.719  0.00  0.00    +0.000 A 
ATOM     23  C   UNL     1     -14.227  58.269  49.377  0.00  0.00    +0.000 A 
ATOM     24  H   UNL     1     -10.272  53.508  49.267  0.00  0.00    +0.000 HD
ATOM     25  H   UNL     1     -12.090  56.067  46.777  0.00  0.00    +0.000 HD
BRANCH  22  26
ATOM     26  N   UNL     1     -14.712  58.652  51.737  0.00  0.00    +0.000 N 
ATOM     27  H   UNL     1     -15.407  59.316  51.523  0.00  0.00    +0.000 HD
ATOM     28  H   UNL     1     -14.422  58.527  52.670  0.00  0.00    +0.000 HD
ENDBRANCH  22  26
ENDBRANCH   1  17
BRANCH   3  29
ATOM     29  O   UNL     1     -12.041  53.946  45.302  0.00  0.00    +0.000 OA
ATOM     30  H   UNL     1     -12.233  53.870  44.388  0.00  0.00    +0.000 HD
ENDBRANCH   3  29
BRANCH   5  31
ATOM     31  C   UNL     1      -9.579  51.432  47.752  0.00  0.00    +0.000 C 
BRANCH  31  32
ATOM     32  C   UNL     1     -10.096  50.124  47.164  0.00  0.00    +0.000 C 
BRANCH  32  33
ATOM     33  C   UNL     1     -11.624  50.022  47.060  0.00  0.00    +0.000 C 
ATOM     34  C   UNL     1     -12.357  51.133  47.817  0.00  0.00    +0.000 C 
ATOM     35  C   UNL     1     -12.030  50.053  45.586  0.00  0.00    +0.000 C 
ENDBRANCH  32  33
ENDBRANCH  31  32
ENDBRANCH   5  31
TORSDOF 6
ENDMDL
MODEL 9
REMARK VINA RESULT:      -7.3      3.123      7.301
REMARK  Name = 353134
REMARK  8 active torsions:
REMARK  status: ('A' for Active; 'I' for Inactive)
REMARK    1  A    between atoms: C_6  and  C_10
REMARK    2  A    between atoms: C_12  and  N_16
REMARK    3  A    between atoms: C_14  and  O_19
REMARK    4  A    between atoms: N_18  and  C_22
REMARK    5  A    between atoms: C_22  and  C_25
REMARK    6  A    between atoms: C_25  and  C_28
REMARK    7  A    between atoms: C_28  and  C_29
REMARK    8  A    between atoms: C_28  and  C_30
REMARK                            x       y       z     vdW  Elec       q    Type
REMARK                         _______ _______ _______ _____ _____    ______ ____
ROOT
ATOM      1  C   UNL     1      -8.395  54.202  50.763  0.00  0.00    +0.000 A 
ATOM      2  C   UNL     1      -7.769  53.097  49.980  0.00  0.00    +0.000 A 
ATOM      3  C   UNL     1      -7.562  54.875  51.587  0.00  0.00    +0.000 A 
ATOM      4  O   UNL     1      -8.409  52.101  49.661  0.00  0.00    +0.000 OA
ATOM      5  N   UNL     1      -6.500  53.450  49.469  0.00  0.00    +0.000 N 
ATOM      6  C   UNL     1      -6.172  54.442  51.672  0.00  0.00    +0.000 A 
ATOM      7  C   UNL     1      -5.608  53.809  50.548  0.00  0.00    +0.000 A 
ATOM      8  C   UNL     1      -5.409  54.607  52.825  0.00  0.00    +0.000 A 
ATOM      9  N   UNL     1      -4.348  53.331  50.547  0.00  0.00    +0.000 NA
ATOM     10  C   UNL     1      -4.134  54.067  52.861  0.00  0.00    +0.000 A 
ATOM     11  C   UNL     1      -3.653  53.448  51.712  0.00  0.00    +0.000 A 
ENDROOT
BRANCH   1  17
ATOM     12  S   UNL     1     -11.573  54.696  48.626  0.00  0.00    +0.000 S 
ATOM     13  O   UNL     1     -11.460  55.676  47.567  0.00  0.00    +0.000 OA
ATOM     14  O   UNL     1     -12.184  53.403  48.373  0.00  0.00    +0.000 OA
ATOM     15  N   UNL     1     -10.099  54.429  49.200  0.00  0.00    +0.000 N 
ATOM     16  C   UNL     1     -12.503  55.435  49.900  0.00  0.00    +0.000 A 
ATOM     17  C   UNL     1      -9.766  54.694  50.426  0.00  0.00    +0.000 C 
ATOM     18  C   UNL     1     -11.908  55.639  51.138  0.00  0.00    +0.000 A 
ATOM     19  C   UNL     1     -13.829  55.762  49.617  0.00  0.00    +0.000 A 
ATOM     20  N   UNL     1     -10.577  55.283  51.374  0.00  0.00    +0.000 N 
ATOM     21  C   UNL     1     -12.710  56.205  52.131  0.00  0.00    +0.000 A 
ATOM     22  C   UNL     1     -14.605  56.370  50.589  0.00  0.00    +0.000 A 
ATOM     23  C   UNL     1     -14.051  56.546  51.860  0.00  0.00    +0.000 A 
ATOM     24  H   UNL     1      -9.419  54.050  48.598  0.00  0.00    +0.000 HD
ATOM     25  H   UNL     1     -10.199  55.461  52.265  0.00  0.00    +0.000 HD
BRANCH  22  26
ATOM     26  N   UNL     1     -15.966  56.570  50.349  0.00  0.00    +0.000 N 
ATOM     27  H   UNL     1     -16.606  55.838  50.500  0.00  0.00    +0.000 HD
ATOM     28  H   UNL     1     -16.286  57.445  50.028  0.00  0.00    +0.000 HD
ENDBRANCH  22  26
ENDBRANCH   1  17
BRANCH   3  29
ATOM     29  O   UNL     1      -7.855  56.029  52.278  0.00  0.00    +0.000 OA
ATOM     30  H   UNL     1      -7.808  56.859  51.845  0.00  0.00    +0.000 HD
ENDBRANCH   3  29
BRANCH   5  31
ATOM     31  C   UNL     1      -6.667  54.509  48.450  0.00  0.00    +0.000 C 
BRANCH  31  32
ATOM     32  C   UNL     1      -6.684  54.092  46.984  0.00  0.00    +0.000 C 
BRANCH  32  33
ATOM     33  C   UNL     1      -7.980  54.427  46.233  0.00  0.00    +0.000 C 
ATOM     34  C   UNL     1      -7.738  54.943  44.811  0.00  0.00    +0.000 C 
ATOM     35  C   UNL     1      -8.866  53.181  46.181  0.00  0.00    +0.000 C 
ENDBRANCH  32  33
ENDBRANCH  31  32
ENDBRANCH   5  31
TORSDOF 6
ENDMDL
