MODEL 1
REMARK VINA RESULT:      -8.0      0.000      0.000
REMARK  Name = 352973
REMARK  10 active torsions:
REMARK  status: ('A' for Active; 'I' for Inactive)
REMARK    1  A    between atoms: C_6  and  C_10
REMARK    2  A    between atoms: C_12  and  O_16
REMARK    3  A    between atoms: C_14  and  O_19
REMARK    4  A    between atoms: O_16  and  C_21
REMARK    5  A    between atoms: N_18  and  C_23
REMARK    6  A    between atoms: C_21  and  C_25
REMARK    7  A    between atoms: C_23  and  C_27
REMARK    8  A    between atoms: C_27  and  C_32
REMARK    9  A    between atoms: C_32  and  C_35
REMARK   10  A    between atoms: C_32  and  C_36
REMARK                            x       y       z     vdW  Elec       q    Type
REMARK                         _______ _______ _______ _____ _____    ______ ____
ROOT
ATOM      1  S   UNL     1     -10.934  54.283  51.476  0.00  0.00    +0.000 S 
ATOM      2  O   UNL     1     -10.720  55.350  52.436  0.00  0.00    +0.000 OA
ATOM      3  O   UNL     1     -11.817  53.178  51.787  0.00  0.00    +0.000 OA
ATOM      4  N   UNL     1      -9.483  53.669  51.097  0.00  0.00    +0.000 N 
ATOM      5  C   UNL     1     -11.590  55.043  50.037  0.00  0.00    +0.000 A 
ATOM      6  C   UNL     1      -8.937  53.898  49.940  0.00  0.00    +0.000 C 
ATOM      7  C   UNL     1     -10.765  55.133  48.925  0.00  0.00    +0.000 A 
ATOM      8  C   UNL     1     -12.905  55.503  50.014  0.00  0.00    +0.000 A 
ATOM      9  N   UNL     1      -9.456  54.680  48.945  0.00  0.00    +0.000 N 
ATOM     10  C   UNL     1     -11.238  55.771  47.784  0.00  0.00    +0.000 A 
ATOM     11  C   UNL     1     -13.382  56.089  48.845  0.00  0.00    +0.000 A 
ATOM     12  C   UNL     1     -12.534  56.256  47.747  0.00  0.00    +0.000 A 
ATOM     13  H   UNL     1      -9.007  53.113  51.755  0.00  0.00    +0.000 HD
ATOM     14  H   UNL     1      -8.865  54.936  48.200  0.00  0.00    +0.000 HD
ENDROOT
BRANCH   6  15
ATOM     15  C   UNL     1      -7.624  53.219  49.662  0.00  0.00    +0.000 A 
ATOM     16  C   UNL     1      -6.423  53.572  50.485  0.00  0.00    +0.000 A 
ATOM     17  C   UNL     1      -7.547  52.271  48.717  0.00  0.00    +0.000 A 
ATOM     18  O   UNL     1      -6.561  54.341  51.437  0.00  0.00    +0.000 OA
ATOM     19  N   UNL     1      -5.212  53.007  50.147  0.00  0.00    +0.000 N 
ATOM     20  C   UNL     1      -6.252  51.673  48.401  0.00  0.00    +0.000 A 
ATOM     21  C   UNL     1      -5.100  52.067  49.089  0.00  0.00    +0.000 A 
ATOM     22  C   UNL     1      -6.118  50.738  47.370  0.00  0.00    +0.000 A 
ATOM     23  N   UNL     1      -3.872  51.585  48.788  0.00  0.00    +0.000 NA
ATOM     24  C   UNL     1      -4.864  50.245  47.043  0.00  0.00    +0.000 A 
ATOM     25  C   UNL     1      -3.781  50.696  47.775  0.00  0.00    +0.000 A 
BRANCH  17  26
ATOM     26  O   UNL     1      -8.613  51.814  47.964  0.00  0.00    +0.000 OA
ATOM     27  H   UNL     1      -8.850  50.908  47.988  0.00  0.00    +0.000 HD
ENDBRANCH  17  26
BRANCH  19  28
ATOM     28  C   UNL     1      -3.996  53.400  50.872  0.00  0.00    +0.000 C 
BRANCH  28  29
ATOM     29  C   UNL     1      -3.668  52.426  52.012  0.00  0.00    +0.000 C 
BRANCH  29  30
ATOM     30  C   UNL     1      -3.797  53.017  53.431  0.00  0.00    +0.000 C 
ATOM     31  C   UNL     1      -3.610  54.535  53.461  0.00  0.00    +0.000 C 
ATOM     32  C   UNL     1      -5.175  52.663  54.002  0.00  0.00    +0.000 C 
ENDBRANCH  29  30
ENDBRANCH  28  29
ENDBRANCH  19  28
ENDBRANCH   6  15
BRANCH  11  33
ATOM     33  O   UNL     1     -14.693  56.473  48.841  0.00  0.00    +0.000 OA
BRANCH  33  34
ATOM     34  C   UNL     1     -15.406  56.095  50.024  0.00  0.00    +0.000 C 
BRANCH  34  35
ATOM     35  C   UNL     1     -15.304  57.202  51.024  0.00  0.00    +0.000 A 
ATOM     36  C   UNL     1     -15.154  58.533  50.616  0.00  0.00    +0.000 A 
ATOM     37  C   UNL     1     -15.396  56.903  52.392  0.00  0.00    +0.000 A 
ATOM     38  C   UNL     1     -15.069  59.544  51.566  0.00  0.00    +0.000 A 
ATOM     39  C   UNL     1     -15.303  57.917  53.338  0.00  0.00    +0.000 A 
ATOM     40  C   UNL     1     -15.136  59.236  52.926  0.00  0.00    +0.000 A 
ENDBRANCH  34  35
ENDBRANCH  33  34
ENDBRANCH  11  33
TORSDOF 8
ENDMDL
MODEL 2
REMARK VINA RESULT:      -7.8      2.107      4.237
REMARK  Name = 352973
REMARK  10 active torsions:
REMARK  status: ('A' for Active; 'I' for Inactive)
REMARK    1  A    between atoms: C_6  and  C_10
REMARK    2  A    between atoms: C_12  and  O_16
REMARK    3  A    between atoms: C_14  and  O_19
REMARK    4  A    between atoms: O_16  and  C_21
REMARK    5  A    between atoms: N_18  and  C_23
REMARK    6  A    between atoms: C_21  and  C_25
REMARK    7  A    between atoms: C_23  and  C_27
REMARK    8  A    between atoms: C_27  and  C_32
REMARK    9  A    between atoms: C_32  and  C_35
REMARK   10  A    between atoms: C_32  and  C_36
REMARK                            x       y       z     vdW  Elec       q    Type
REMARK                         _______ _______ _______ _____ _____    ______ ____
ROOT
ATOM      1  S   UNL     1     -10.508  54.348  50.544  0.00  0.00    +0.000 S 
ATOM      2  O   UNL     1      -9.933  55.449  51.293  0.00  0.00    +0.000 OA
ATOM      3  O   UNL     1     -11.398  53.404  51.187  0.00  0.00    +0.000 OA
ATOM      4  N   UNL     1      -9.282  53.510  49.890  0.00  0.00    +0.000 N 
ATOM      5  C   UNL     1     -11.424  55.071  49.234  0.00  0.00    +0.000 A 
ATOM      6  C   UNL     1      -9.033  53.567  48.616  0.00  0.00    +0.000 C 
ATOM      7  C   UNL     1     -10.912  54.956  47.951  0.00  0.00    +0.000 A 
ATOM      8  C   UNL     1     -12.641  55.704  49.485  0.00  0.00    +0.000 A 
ATOM      9  N   UNL     1      -9.702  54.330  47.697  0.00  0.00    +0.000 N 
ATOM     10  C   UNL     1     -11.590  55.558  46.896  0.00  0.00    +0.000 A 
ATOM     11  C   UNL     1     -13.335  56.253  48.410  0.00  0.00    +0.000 A 
ATOM     12  C   UNL     1     -12.788  56.212  47.126  0.00  0.00    +0.000 A 
ATOM     13  H   UNL     1      -8.718  52.950  50.469  0.00  0.00    +0.000 HD
ATOM     14  H   UNL     1      -9.300  54.441  46.805  0.00  0.00    +0.000 HD
ENDROOT
BRANCH   6  15
ATOM     15  C   UNL     1      -7.923  52.694  48.102  0.00  0.00    +0.000 A 
ATOM     16  C   UNL     1      -8.239  51.588  47.140  0.00  0.00    +0.000 A 
ATOM     17  C   UNL     1      -6.655  52.936  48.466  0.00  0.00    +0.000 A 
ATOM     18  O   UNL     1      -9.390  51.482  46.717  0.00  0.00    +0.000 OA
ATOM     19  N   UNL     1      -7.219  50.743  46.761  0.00  0.00    +0.000 N 
ATOM     20  C   UNL     1      -5.594  52.035  48.025  0.00  0.00    +0.000 A 
ATOM     21  C   UNL     1      -5.887  50.937  47.211  0.00  0.00    +0.000 A 
ATOM     22  C   UNL     1      -4.272  52.211  48.446  0.00  0.00    +0.000 A 
ATOM     23  N   UNL     1      -4.945  50.043  46.830  0.00  0.00    +0.000 NA
ATOM     24  C   UNL     1      -3.300  51.296  48.072  0.00  0.00    +0.000 A 
ATOM     25  C   UNL     1      -3.683  50.237  47.270  0.00  0.00    +0.000 A 
BRANCH  17  26
ATOM     26  O   UNL     1      -6.250  53.981  49.277  0.00  0.00    +0.000 OA
ATOM     27  H   UNL     1      -5.365  54.285  49.244  0.00  0.00    +0.000 HD
ENDBRANCH  17  26
BRANCH  19  28
ATOM     28  C   UNL     1      -7.509  49.593  45.894  0.00  0.00    +0.000 C 
BRANCH  28  29
ATOM     29  C   UNL     1      -7.129  49.867  44.432  0.00  0.00    +0.000 C 
BRANCH  29  30
ATOM     30  C   UNL     1      -8.320  50.134  43.488  0.00  0.00    +0.000 C 
ATOM     31  C   UNL     1      -9.616  49.475  43.967  0.00  0.00    +0.000 C 
ATOM     32  C   UNL     1      -8.536  51.646  43.362  0.00  0.00    +0.000 C 
ENDBRANCH  29  30
ENDBRANCH  28  29
ENDBRANCH  19  28
ENDBRANCH   6  15
BRANCH  11  33
ATOM     33  O   UNL     1     -14.550  56.812  48.687  0.00  0.00    +0.000 OA
BRANCH  33  34
ATOM     34  C   UNL     1     -15.187  56.259  49.844  0.00  0.00    +0.000 C 
BRANCH  34  35
ATOM     35  C   UNL     1     -15.174  57.280  50.936  0.00  0.00    +0.000 A 
ATOM     36  C   UNL     1     -15.013  58.641  50.652  0.00  0.00    +0.000 A 
ATOM     37  C   UNL     1     -15.363  56.867  52.264  0.00  0.00    +0.000 A 
ATOM     38  C   UNL     1     -15.011  59.571  51.685  0.00  0.00    +0.000 A 
ATOM     39  C   UNL     1     -15.354  57.801  53.295  0.00  0.00    +0.000 A 
ATOM     40  C   UNL     1     -15.175  59.150  53.007  0.00  0.00    +0.000 A 
ENDBRANCH  34  35
ENDBRANCH  33  34
ENDBRANCH  11  33
TORSDOF 8
ENDMDL
MODEL 3
REMARK VINA RESULT:      -7.8      1.751      2.264
REMARK  Name = 352973
REMARK  10 active torsions:
REMARK  status: ('A' for Active; 'I' for Inactive)
REMARK    1  A    between atoms: C_6  and  C_10
REMARK    2  A    between atoms: C_12  and  O_16
REMARK    3  A    between atoms: C_14  and  O_19
REMARK    4  A    between atoms: O_16  and  C_21
REMARK    5  A    between atoms: N_18  and  C_23
REMARK    6  A    between atoms: C_21  and  C_25
REMARK    7  A    between atoms: C_23  and  C_27
REMARK    8  A    between atoms: C_27  and  C_32
REMARK    9  A    between atoms: C_32  and  C_35
REMARK   10  A    between atoms: C_32  and  C_36
REMARK                            x       y       z     vdW  Elec       q    Type
REMARK                         _______ _______ _______ _____ _____    ______ ____
ROOT
ATOM      1  S   UNL     1     -11.584  52.354  49.981  0.00  0.00    +0.000 S 
ATOM      2  O   UNL     1     -12.436  52.158  51.138  0.00  0.00    +0.000 OA
ATOM      3  O   UNL     1     -11.949  51.799  48.694  0.00  0.00    +0.000 OA
ATOM      4  N   UNL     1     -10.109  51.799  50.361  0.00  0.00    +0.000 N 
ATOM      5  C   UNL     1     -11.463  54.089  49.748  0.00  0.00    +0.000 A 
ATOM      6  C   UNL     1      -9.120  52.614  50.580  0.00  0.00    +0.000 C 
ATOM      7  C   UNL     1     -10.255  54.696  50.055  0.00  0.00    +0.000 A 
ATOM      8  C   UNL     1     -12.540  54.813  49.239  0.00  0.00    +0.000 A 
ATOM      9  N   UNL     1      -9.183  53.981  50.564  0.00  0.00    +0.000 N 
ATOM     10  C   UNL     1     -10.140  56.076  49.926  0.00  0.00    +0.000 A 
ATOM     11  C   UNL     1     -12.391  56.186  49.063  0.00  0.00    +0.000 A 
ATOM     12  C   UNL     1     -11.205  56.818  49.444  0.00  0.00    +0.000 A 
ATOM     13  H   UNL     1      -9.960  50.829  50.428  0.00  0.00    +0.000 HD
ATOM     14  H   UNL     1      -8.423  54.485  50.936  0.00  0.00    +0.000 HD
ENDROOT
BRANCH   6  15
ATOM     15  C   UNL     1      -7.777  51.994  50.851  0.00  0.00    +0.000 A 
ATOM     16  C   UNL     1      -7.129  52.192  52.188  0.00  0.00    +0.000 A 
ATOM     17  C   UNL     1      -7.190  51.231  49.917  0.00  0.00    +0.000 A 
ATOM     18  O   UNL     1      -7.757  52.778  53.070  0.00  0.00    +0.000 OA
ATOM     19  N   UNL     1      -5.858  51.695  52.376  0.00  0.00    +0.000 N 
ATOM     20  C   UNL     1      -5.852  50.698  50.159  0.00  0.00    +0.000 A 
ATOM     21  C   UNL     1      -5.189  50.961  51.362  0.00  0.00    +0.000 A 
ATOM     22  C   UNL     1      -5.177  49.963  49.180  0.00  0.00    +0.000 A 
ATOM     23  N   UNL     1      -3.927  50.538  51.604  0.00  0.00    +0.000 NA
ATOM     24  C   UNL     1      -3.878  49.535  49.410  0.00  0.00    +0.000 A 
ATOM     25  C   UNL     1      -3.301  49.845  50.628  0.00  0.00    +0.000 A 
BRANCH  17  26
ATOM     26  O   UNL     1      -7.743  50.918  48.688  0.00  0.00    +0.000 OA
ATOM     27  H   UNL     1      -7.754  50.030  48.392  0.00  0.00    +0.000 HD
ENDBRANCH  17  26
BRANCH  19  28
ATOM     28  C   UNL     1      -5.155  51.950  53.641  0.00  0.00    +0.000 C 
BRANCH  28  29
ATOM     29  C   UNL     1      -4.210  53.155  53.539  0.00  0.00    +0.000 C 
BRANCH  29  30
ATOM     30  C   UNL     1      -4.848  54.515  53.892  0.00  0.00    +0.000 C 
ATOM     31  C   UNL     1      -5.863  54.416  55.032  0.00  0.00    +0.000 C 
ATOM     32  C   UNL     1      -3.745  55.506  54.278  0.00  0.00    +0.000 C 
ENDBRANCH  29  30
ENDBRANCH  28  29
ENDBRANCH  19  28
ENDBRANCH   6  15
BRANCH  11  33
ATOM     33  O   UNL     1     -13.446  56.851  48.507  0.00  0.00    +0.000 OA
BRANCH  33  34
ATOM     34  C   UNL     1     -14.702  56.561  49.131  0.00  0.00    +0.000 C 
BRANCH  34  35
ATOM     35  C   UNL     1     -14.790  57.319  50.416  0.00  0.00    +0.000 A 
ATOM     36  C   UNL     1     -14.912  56.653  51.641  0.00  0.00    +0.000 A 
ATOM     37  C   UNL     1     -14.713  58.720  50.393  0.00  0.00    +0.000 A 
ATOM     38  C   UNL     1     -14.985  57.382  52.823  0.00  0.00    +0.000 A 
ATOM     39  C   UNL     1     -14.793  59.444  51.577  0.00  0.00    +0.000 A 
ATOM     40  C   UNL     1     -14.933  58.778  52.790  0.00  0.00    +0.000 A 
ENDBRANCH  34  35
ENDBRANCH  33  34
ENDBRANCH  11  33
TORSDOF 8
ENDMDL
MODEL 4
REMARK VINA RESULT:      -7.6      2.646      9.435
REMARK  Name = 352973
REMARK  10 active torsions:
REMARK  status: ('A' for Active; 'I' for Inactive)
REMARK    1  A    between atoms: C_6  and  C_10
REMARK    2  A    between atoms: C_12  and  O_16
REMARK    3  A    between atoms: C_14  and  O_19
REMARK    4  A    between atoms: O_16  and  C_21
REMARK    5  A    between atoms: N_18  and  C_23
REMARK    6  A    between atoms: C_21  and  C_25
REMARK    7  A    between atoms: C_23  and  C_27
REMARK    8  A    between atoms: C_27  and  C_32
REMARK    9  A    between atoms: C_32  and  C_35
REMARK   10  A    between atoms: C_32  and  C_36
REMARK                            x       y       z     vdW  Elec       q    Type
REMARK                         _______ _______ _______ _____ _____    ______ ____
ROOT
ATOM      1  S   UNL     1      -7.736  55.292  53.147  0.00  0.00    +0.000 S 
ATOM      2  O   UNL     1      -8.327  55.410  54.467  0.00  0.00    +0.000 OA
ATOM      3  O   UNL     1      -6.548  56.045  52.801  0.00  0.00    +0.000 OA
ATOM      4  N   UNL     1      -8.886  55.653  52.063  0.00  0.00    +0.000 N 
ATOM      5  C   UNL     1      -7.318  53.600  52.946  0.00  0.00    +0.000 A 
ATOM      6  C   UNL     1      -9.435  54.729  51.332  0.00  0.00    +0.000 C 
ATOM      7  C   UNL     1      -8.085  52.849  52.068  0.00  0.00    +0.000 A 
ATOM      8  C   UNL     1      -6.230  53.052  53.623  0.00  0.00    +0.000 A 
ATOM      9  N   UNL     1      -9.170  53.388  51.395  0.00  0.00    +0.000 N 
ATOM     10  C   UNL     1      -7.810  51.493  51.921  0.00  0.00    +0.000 A 
ATOM     11  C   UNL     1      -5.934  51.707  53.422  0.00  0.00    +0.000 A 
ATOM     12  C   UNL     1      -6.748  50.924  52.602  0.00  0.00    +0.000 A 
ATOM     13  H   UNL     1      -9.174  56.588  51.958  0.00  0.00    +0.000 HD
ATOM     14  H   UNL     1      -9.785  52.771  50.936  0.00  0.00    +0.000 HD
ENDROOT
BRANCH   6  15
ATOM     15  C   UNL     1     -10.437  55.181  50.306  0.00  0.00    +0.000 A 
ATOM     16  C   UNL     1     -10.131  55.004  48.849  0.00  0.00    +0.000 A 
ATOM     17  C   UNL     1     -11.613  55.693  50.697  0.00  0.00    +0.000 A 
ATOM     18  O   UNL     1      -9.106  54.403  48.527  0.00  0.00    +0.000 OA
ATOM     19  N   UNL     1     -11.022  55.515  47.930  0.00  0.00    +0.000 N 
ATOM     20  C   UNL     1     -12.545  56.202  49.694  0.00  0.00    +0.000 A 
ATOM     21  C   UNL     1     -12.230  56.140  48.334  0.00  0.00    +0.000 A 
ATOM     22  C   UNL     1     -13.747  56.812  50.066  0.00  0.00    +0.000 A 
ATOM     23  N   UNL     1     -13.037  56.653  47.376  0.00  0.00    +0.000 NA
ATOM     24  C   UNL     1     -14.577  57.353  49.096  0.00  0.00    +0.000 A 
ATOM     25  C   UNL     1     -14.181  57.250  47.776  0.00  0.00    +0.000 A 
BRANCH  17  26
ATOM     26  O   UNL     1     -12.025  55.818  52.011  0.00  0.00    +0.000 OA
ATOM     27  H   UNL     1     -12.818  55.408  52.295  0.00  0.00    +0.000 HD
ENDBRANCH  17  26
BRANCH  19  28
ATOM     28  C   UNL     1     -10.710  55.443  46.496  0.00  0.00    +0.000 C 
BRANCH  28  29
ATOM     29  C   UNL     1     -11.265  54.165  45.852  0.00  0.00    +0.000 C 
BRANCH  29  30
ATOM     30  C   UNL     1     -10.197  53.203  45.289  0.00  0.00    +0.000 C 
ATOM     31  C   UNL     1     -10.602  52.586  43.949  0.00  0.00    +0.000 C 
ATOM     32  C   UNL     1      -8.875  53.960  45.120  0.00  0.00    +0.000 C 
ENDBRANCH  29  30
ENDBRANCH  28  29
ENDBRANCH  19  28
ENDBRANCH   6  15
BRANCH  11  33
ATOM     33  O   UNL     1      -4.826  51.222  54.056  0.00  0.00    +0.000 OA
BRANCH  33  34
ATOM     34  C   UNL     1      -3.592  51.636  53.457  0.00  0.00    +0.000 C 
BRANCH  34  35
ATOM     35  C   UNL     1      -3.506  51.057  52.081  0.00  0.00    +0.000 A 
ATOM     36  C   UNL     1      -3.496  51.881  50.949  0.00  0.00    +0.000 A 
ATOM     37  C   UNL     1      -3.399  49.666  51.926  0.00  0.00    +0.000 A 
ATOM     38  C   UNL     1      -3.408  51.318  49.681  0.00  0.00    +0.000 A 
ATOM     39  C   UNL     1      -3.318  49.108  50.656  0.00  0.00    +0.000 A 
ATOM     40  C   UNL     1      -3.327  49.931  49.534  0.00  0.00    +0.000 A 
ENDBRANCH  34  35
ENDBRANCH  33  34
ENDBRANCH  11  33
TORSDOF 8
ENDMDL
MODEL 5
REMARK VINA RESULT:      -7.5      1.975      2.833
REMARK  Name = 352973
REMARK  10 active torsions:
REMARK  status: ('A' for Active; 'I' for Inactive)
REMARK    1  A    between atoms: C_6  and  C_10
REMARK    2  A    between atoms: C_12  and  O_16
REMARK    3  A    between atoms: C_14  and  O_19
REMARK    4  A    between atoms: O_16  and  C_21
REMARK    5  A    between atoms: N_18  and  C_23
REMARK    6  A    between atoms: C_21  and  C_25
REMARK    7  A    between atoms: C_23  and  C_27
REMARK    8  A    between atoms: C_27  and  C_32
REMARK    9  A    between atoms: C_32  and  C_35
REMARK   10  A    between atoms: C_32  and  C_36
REMARK                            x       y       z     vdW  Elec       q    Type
REMARK                         _______ _______ _______ _____ _____    ______ ____
ROOT
ATOM      1  S   UNL     1      -8.969  55.789  48.585  0.00  0.00    +0.000 S 
ATOM      2  O   UNL     1      -8.806  55.568  47.160  0.00  0.00    +0.000 OA
ATOM      3  O   UNL     1      -8.804  57.113  49.149  0.00  0.00    +0.000 OA
ATOM      4  N   UNL     1      -7.950  54.789  49.354  0.00  0.00    +0.000 N 
ATOM      5  C   UNL     1     -10.607  55.294  48.975  0.00  0.00    +0.000 A 
ATOM      6  C   UNL     1      -8.388  53.744  49.992  0.00  0.00    +0.000 C 
ATOM      7  C   UNL     1     -10.769  54.120  49.696  0.00  0.00    +0.000 A 
ATOM      8  C   UNL     1     -11.695  56.079  48.598  0.00  0.00    +0.000 A 
ATOM      9  N   UNL     1      -9.690  53.334  50.070  0.00  0.00    +0.000 N 
ATOM     10  C   UNL     1     -12.055  53.674  49.981  0.00  0.00    +0.000 A 
ATOM     11  C   UNL     1     -12.973  55.647  48.939  0.00  0.00    +0.000 A 
ATOM     12  C   UNL     1     -13.150  54.427  49.595  0.00  0.00    +0.000 A 
ATOM     13  H   UNL     1      -6.985  54.977  49.336  0.00  0.00    +0.000 HD
ATOM     14  H   UNL     1      -9.872  52.429  50.411  0.00  0.00    +0.000 HD
ENDROOT
BRANCH   6  15
ATOM     15  C   UNL     1      -7.367  52.927  50.734  0.00  0.00    +0.000 A 
ATOM     16  C   UNL     1      -7.450  52.821  52.227  0.00  0.00    +0.000 A 
ATOM     17  C   UNL     1      -6.421  52.261  50.056  0.00  0.00    +0.000 A 
ATOM     18  O   UNL     1      -8.412  53.327  52.804  0.00  0.00    +0.000 OA
ATOM     19  N   UNL     1      -6.447  52.146  52.889  0.00  0.00    +0.000 N 
ATOM     20  C   UNL     1      -5.387  51.533  50.789  0.00  0.00    +0.000 A 
ATOM     21  C   UNL     1      -5.390  51.511  52.187  0.00  0.00    +0.000 A 
ATOM     22  C   UNL     1      -4.341  50.890  50.120  0.00  0.00    +0.000 A 
ATOM     23  N   UNL     1      -4.419  50.901  52.906  0.00  0.00    +0.000 NA
ATOM     24  C   UNL     1      -3.333  50.273  50.845  0.00  0.00    +0.000 A 
ATOM     25  C   UNL     1      -3.416  50.305  52.225  0.00  0.00    +0.000 A 
BRANCH  17  26
ATOM     26  O   UNL     1      -6.311  52.224  48.678  0.00  0.00    +0.000 OA
ATOM     27  H   UNL     1      -5.864  52.911  48.225  0.00  0.00    +0.000 HD
ENDBRANCH  17  26
BRANCH  19  28
ATOM     28  C   UNL     1      -6.445  52.101  54.358  0.00  0.00    +0.000 C 
BRANCH  28  29
ATOM     29  C   UNL     1      -5.833  53.368  54.970  0.00  0.00    +0.000 C 
BRANCH  29  30
ATOM     30  C   UNL     1      -5.383  54.433  53.947  0.00  0.00    +0.000 C 
ATOM     31  C   UNL     1      -6.249  55.694  53.984  0.00  0.00    +0.000 C 
ATOM     32  C   UNL     1      -3.923  54.812  54.220  0.00  0.00    +0.000 C 
ENDBRANCH  29  30
ENDBRANCH  28  29
ENDBRANCH  19  28
ENDBRANCH   6  15
BRANCH  11  33
ATOM     33  O   UNL     1     -14.009  56.473  48.605  0.00  0.00    +0.000 OA
BRANCH  33  34
ATOM     34  C   UNL     1     -13.839  57.821  49.058  0.00  0.00    +0.000 C 
BRANCH  34  35
ATOM     35  C   UNL     1     -14.335  57.924  50.464  0.00  0.00    +0.000 A 
ATOM     36  C   UNL     1     -14.010  59.024  51.267  0.00  0.00    +0.000 A 
ATOM     37  C   UNL     1     -15.170  56.917  50.974  0.00  0.00    +0.000 A 
ATOM     38  C   UNL     1     -14.491  59.099  52.570  0.00  0.00    +0.000 A 
ATOM     39  C   UNL     1     -15.642  56.993  52.279  0.00  0.00    +0.000 A 
ATOM     40  C   UNL     1     -15.300  58.080  53.078  0.00  0.00    +0.000 A 
ENDBRANCH  34  35
ENDBRANCH  33  34
ENDBRANCH  11  33
TORSDOF 8
ENDMDL
MODEL 6
REMARK VINA RESULT:      -7.4      2.413      9.597
REMARK  Name = 352973
REMARK  10 active torsions:
REMARK  status: ('A' for Active; 'I' for Inactive)
REMARK    1  A    between atoms: C_6  and  C_10
REMARK    2  A    between atoms: C_12  and  O_16
REMARK    3  A    between atoms: C_14  and  O_19
REMARK    4  A    between atoms: O_16  and  C_21
REMARK    5  A    between atoms: N_18  and  C_23
REMARK    6  A    between atoms: C_21  and  C_25
REMARK    7  A    between atoms: C_23  and  C_27
REMARK    8  A    between atoms: C_27  and  C_32
REMARK    9  A    between atoms: C_32  and  C_35
REMARK   10  A    between atoms: C_32  and  C_36
REMARK                            x       y       z     vdW  Elec       q    Type
REMARK                         _______ _______ _______ _____ _____    ______ ____
ROOT
ATOM      1  S   UNL     1      -6.858  55.068  51.614  0.00  0.00    +0.000 S 
ATOM      2  O   UNL     1      -6.574  55.603  52.932  0.00  0.00    +0.000 OA
ATOM      3  O   UNL     1      -5.940  55.288  50.515  0.00  0.00    +0.000 OA
ATOM      4  N   UNL     1      -8.314  55.624  51.165  0.00  0.00    +0.000 N 
ATOM      5  C   UNL     1      -6.982  53.329  51.806  0.00  0.00    +0.000 A 
ATOM      6  C   UNL     1      -9.353  54.843  51.138  0.00  0.00    +0.000 C 
ATOM      7  C   UNL     1      -8.242  52.759  51.707  0.00  0.00    +0.000 A 
ATOM      8  C   UNL     1      -5.841  52.555  52.016  0.00  0.00    +0.000 A 
ATOM      9  N   UNL     1      -9.379  53.524  51.502  0.00  0.00    +0.000 N 
ATOM     10  C   UNL     1      -8.381  51.389  51.901  0.00  0.00    +0.000 A 
ATOM     11  C   UNL     1      -5.991  51.178  52.152  0.00  0.00    +0.000 A 
ATOM     12  C   UNL     1      -7.265  50.605  52.133  0.00  0.00    +0.000 A 
ATOM     13  H   UNL     1      -8.412  56.569  50.910  0.00  0.00    +0.000 HD
ATOM     14  H   UNL     1     -10.256  53.095  51.627  0.00  0.00    +0.000 HD
ENDROOT
BRANCH   6  15
ATOM     15  C   UNL     1     -10.637  55.440  50.634  0.00  0.00    +0.000 A 
ATOM     16  C   UNL     1     -11.753  55.708  51.598  0.00  0.00    +0.000 A 
ATOM     17  C   UNL     1     -10.761  55.773  49.342  0.00  0.00    +0.000 A 
ATOM     18  O   UNL     1     -11.557  55.523  52.799  0.00  0.00    +0.000 OA
ATOM     19  N   UNL     1     -12.953  56.164  51.096  0.00  0.00    +0.000 N 
ATOM     20  C   UNL     1     -12.039  56.278  48.847  0.00  0.00    +0.000 A 
ATOM     21  C   UNL     1     -13.124  56.436  49.714  0.00  0.00    +0.000 A 
ATOM     22  C   UNL     1     -12.229  56.564  47.491  0.00  0.00    +0.000 A 
ATOM     23  N   UNL     1     -14.342  56.844  49.287  0.00  0.00    +0.000 NA
ATOM     24  C   UNL     1     -13.475  56.970  47.039  0.00  0.00    +0.000 A 
ATOM     25  C   UNL     1     -14.491  57.094  47.968  0.00  0.00    +0.000 A 
BRANCH  17  26
ATOM     26  O   UNL     1      -9.762  55.646  48.392  0.00  0.00    +0.000 OA
ATOM     27  H   UNL     1      -9.839  55.004  47.714  0.00  0.00    +0.000 HD
ENDBRANCH  17  26
BRANCH  19  28
ATOM     28  C   UNL     1     -14.098  56.350  51.998  0.00  0.00    +0.000 C 
BRANCH  28  29
ATOM     29  C   UNL     1     -14.060  57.715  52.699  0.00  0.00    +0.000 C 
BRANCH  29  30
ATOM     30  C   UNL     1     -15.192  58.685  52.298  0.00  0.00    +0.000 C 
ATOM     31  C   UNL     1     -15.659  59.564  53.459  0.00  0.00    +0.000 C 
ATOM     32  C   UNL     1     -14.709  59.576  51.148  0.00  0.00    +0.000 C 
ENDBRANCH  29  30
ENDBRANCH  28  29
ENDBRANCH  19  28
ENDBRANCH   6  15
BRANCH  11  33
ATOM     33  O   UNL     1      -4.846  50.448  52.296  0.00  0.00    +0.000 OA
BRANCH  33  34
ATOM     34  C   UNL     1      -4.727  49.373  51.357  0.00  0.00    +0.000 C 
BRANCH  34  35
ATOM     35  C   UNL     1      -4.585  49.945  49.984  0.00  0.00    +0.000 A 
ATOM     36  C   UNL     1      -5.577  49.755  49.015  0.00  0.00    +0.000 A 
ATOM     37  C   UNL     1      -3.452  50.714  49.674  0.00  0.00    +0.000 A 
ATOM     38  C   UNL     1      -5.423  50.304  47.747  0.00  0.00    +0.000 A 
ATOM     39  C   UNL     1      -3.301  51.255  48.402  0.00  0.00    +0.000 A 
ATOM     40  C   UNL     1      -4.282  51.047  47.438  0.00  0.00    +0.000 A 
ENDBRANCH  34  35
ENDBRANCH  33  34
ENDBRANCH  11  33
TORSDOF 8
ENDMDL
MODEL 7
REMARK VINA RESULT:      -7.4      1.972      2.712
REMARK  Name = 352973
REMARK  10 active torsions:
REMARK  status: ('A' for Active; 'I' for Inactive)
REMARK    1  A    between atoms: C_6  and  C_10
REMARK    2  A    between atoms: C_12  and  O_16
REMARK    3  A    between atoms: C_14  and  O_19
REMARK    4  A    between atoms: O_16  and  C_21
REMARK    5  A    between atoms: N_18  and  C_23
REMARK    6  A    between atoms: C_21  and  C_25
REMARK    7  A    between atoms: C_23  and  C_27
REMARK    8  A    between atoms: C_27  and  C_32
REMARK    9  A    between atoms: C_32  and  C_35
REMARK   10  A    between atoms: C_32  and  C_36
REMARK                            x       y       z     vdW  Elec       q    Type
REMARK                         _______ _______ _______ _____ _____    ______ ____
ROOT
ATOM      1  S   UNL     1     -11.053  53.139  46.879  0.00  0.00    +0.000 S 
ATOM      2  O   UNL     1     -12.196  52.271  47.090  0.00  0.00    +0.000 OA
ATOM      3  O   UNL     1     -10.819  53.750  45.587  0.00  0.00    +0.000 OA
ATOM      4  N   UNL     1      -9.724  52.302  47.282  0.00  0.00    +0.000 N 
ATOM      5  C   UNL     1     -11.223  54.461  48.021  0.00  0.00    +0.000 A 
ATOM      6  C   UNL     1      -9.068  52.566  48.373  0.00  0.00    +0.000 C 
ATOM      7  C   UNL     1     -10.354  54.493  49.101  0.00  0.00    +0.000 A 
ATOM      8  C   UNL     1     -12.179  55.455  47.818  0.00  0.00    +0.000 A 
ATOM      9  N   UNL     1      -9.405  53.505  49.309  0.00  0.00    +0.000 N 
ATOM     10  C   UNL     1     -10.493  55.501  50.050  0.00  0.00    +0.000 A 
ATOM     11  C   UNL     1     -12.267  56.488  48.747  0.00  0.00    +0.000 A 
ATOM     12  C   UNL     1     -11.450  56.486  49.879  0.00  0.00    +0.000 A 
ATOM     13  H   UNL     1      -9.409  51.582  46.690  0.00  0.00    +0.000 HD
ATOM     14  H   UNL     1      -8.947  53.477  50.180  0.00  0.00    +0.000 HD
ENDROOT
BRANCH   6  15
ATOM     15  C   UNL     1      -7.807  51.782  48.613  0.00  0.00    +0.000 A 
ATOM     16  C   UNL     1      -7.555  51.187  49.966  0.00  0.00    +0.000 A 
ATOM     17  C   UNL     1      -6.943  51.579  47.609  0.00  0.00    +0.000 A 
ATOM     18  O   UNL     1      -8.434  51.272  50.824  0.00  0.00    +0.000 OA
ATOM     19  N   UNL     1      -6.349  50.557  50.186  0.00  0.00    +0.000 N 
ATOM     20  C   UNL     1      -5.685  50.884  47.871  0.00  0.00    +0.000 A 
ATOM     21  C   UNL     1      -5.387  50.413  49.153  0.00  0.00    +0.000 A 
ATOM     22  C   UNL     1      -4.725  50.720  46.867  0.00  0.00    +0.000 A 
ATOM     23  N   UNL     1      -4.209  49.818  49.454  0.00  0.00    +0.000 NA
ATOM     24  C   UNL     1      -3.509  50.123  47.165  0.00  0.00    +0.000 A 
ATOM     25  C   UNL     1      -3.300  49.693  48.462  0.00  0.00    +0.000 A 
BRANCH  17  26
ATOM     26  O   UNL     1      -7.124  52.011  46.307  0.00  0.00    +0.000 OA
ATOM     27  H   UNL     1      -7.702  52.725  46.126  0.00  0.00    +0.000 HD
ENDBRANCH  17  26
BRANCH  19  28
ATOM     28  C   UNL     1      -6.029  50.044  51.525  0.00  0.00    +0.000 C 
BRANCH  28  29
ATOM     29  C   UNL     1      -5.351  51.108  52.400  0.00  0.00    +0.000 C 
BRANCH  29  30
ATOM     30  C   UNL     1      -5.193  52.492  51.736  0.00  0.00    +0.000 C 
ATOM     31  C   UNL     1      -5.819  53.619  52.559  0.00  0.00    +0.000 C 
ATOM     32  C   UNL     1      -3.703  52.784  51.525  0.00  0.00    +0.000 C 
ENDBRANCH  29  30
ENDBRANCH  28  29
ENDBRANCH  19  28
ENDBRANCH   6  15
BRANCH  11  33
ATOM     33  O   UNL     1     -13.174  57.474  48.483  0.00  0.00    +0.000 OA
BRANCH  33  34
ATOM     34  C   UNL     1     -14.519  57.128  48.834  0.00  0.00    +0.000 C 
BRANCH  34  35
ATOM     35  C   UNL     1     -14.763  57.523  50.255  0.00  0.00    +0.000 A 
ATOM     36  C   UNL     1     -15.145  56.575  51.213  0.00  0.00    +0.000 A 
ATOM     37  C   UNL     1     -14.571  58.859  50.641  0.00  0.00    +0.000 A 
ATOM     38  C   UNL     1     -15.359  56.967  52.530  0.00  0.00    +0.000 A 
ATOM     39  C   UNL     1     -14.793  59.246  51.957  0.00  0.00    +0.000 A 
ATOM     40  C   UNL     1     -15.190  58.303  52.900  0.00  0.00    +0.000 A 
ENDBRANCH  34  35
ENDBRANCH  33  34
ENDBRANCH  11  33
TORSDOF 8
ENDMDL
MODEL 8
REMARK VINA RESULT:      -7.0      2.330      9.415
REMARK  Name = 352973
REMARK  10 active torsions:
REMARK  status: ('A' for Active; 'I' for Inactive)
REMARK    1  A    between atoms: C_6  and  C_10
REMARK    2  A    between atoms: C_12  and  O_16
REMARK    3  A    between atoms: C_14  and  O_19
REMARK    4  A    between atoms: O_16  and  C_21
REMARK    5  A    between atoms: N_18  and  C_23
REMARK    6  A    between atoms: C_21  and  C_25
REMARK    7  A    between atoms: C_23  and  C_27
REMARK    8  A    between atoms: C_27  and  C_32
REMARK    9  A    between atoms: C_32  and  C_35
REMARK   10  A    between atoms: C_32  and  C_36
REMARK                            x       y       z     vdW  Elec       q    Type
REMARK                         _______ _______ _______ _____ _____    ______ ____
ROOT
ATOM      1  S   UNL     1      -9.605  50.236  50.348  0.00  0.00    +0.000 S 
ATOM      2  O   UNL     1     -10.124  49.144  49.545  0.00  0.00    +0.000 OA
ATOM      3  O   UNL     1      -9.400  50.070  51.772  0.00  0.00    +0.000 OA
ATOM      4  N   UNL     1     -10.585  51.509  50.132  0.00  0.00    +0.000 N 
ATOM      5  C   UNL     1      -8.038  50.642  49.672  0.00  0.00    +0.000 A 
ATOM      6  C   UNL     1     -10.209  52.535  49.427  0.00  0.00    +0.000 C 
ATOM      7  C   UNL     1      -7.929  51.834  48.971  0.00  0.00    +0.000 A 
ATOM      8  C   UNL     1      -6.941  49.804  49.870  0.00  0.00    +0.000 A 
ATOM      9  N   UNL     1      -9.017  52.667  48.769  0.00  0.00    +0.000 N 
ATOM     10  C   UNL     1      -6.713  52.162  48.382  0.00  0.00    +0.000 A 
ATOM     11  C   UNL     1      -5.717  50.176  49.322  0.00  0.00    +0.000 A 
ATOM     12  C   UNL     1      -5.617  51.334  48.547  0.00  0.00    +0.000 A 
ATOM     13  H   UNL     1     -11.481  51.505  50.540  0.00  0.00    +0.000 HD
ATOM     14  H   UNL     1      -8.928  53.396  48.113  0.00  0.00    +0.000 HD
ENDROOT
BRANCH   6  15
ATOM     15  C   UNL     1     -11.165  53.694  49.353  0.00  0.00    +0.000 A 
ATOM     16  C   UNL     1     -11.931  54.098  50.576  0.00  0.00    +0.000 A 
ATOM     17  C   UNL     1     -11.290  54.387  48.212  0.00  0.00    +0.000 A 
ATOM     18  O   UNL     1     -11.687  53.532  51.642  0.00  0.00    +0.000 OA
ATOM     19  N   UNL     1     -12.870  55.099  50.455  0.00  0.00    +0.000 N 
ATOM     20  C   UNL     1     -12.278  55.460  48.126  0.00  0.00    +0.000 A 
ATOM     21  C   UNL     1     -13.075  55.781  49.228  0.00  0.00    +0.000 A 
ATOM     22  C   UNL     1     -12.491  56.154  46.931  0.00  0.00    +0.000 A 
ATOM     23  N   UNL     1     -14.043  56.726  49.174  0.00  0.00    +0.000 NA
ATOM     24  C   UNL     1     -13.488  57.116  46.859  0.00  0.00    +0.000 A 
ATOM     25  C   UNL     1     -14.231  57.363  47.998  0.00  0.00    +0.000 A 
BRANCH  17  26
ATOM     26  O   UNL     1     -10.567  54.149  47.057  0.00  0.00    +0.000 OA
ATOM     27  H   UNL     1      -9.677  54.433  46.994  0.00  0.00    +0.000 HD
ENDBRANCH  17  26
BRANCH  19  28
ATOM     28  C   UNL     1     -13.705  55.458  51.610  0.00  0.00    +0.000 C 
BRANCH  28  29
ATOM     29  C   UNL     1     -13.210  56.736  52.300  0.00  0.00    +0.000 C 
BRANCH  29  30
ATOM     30  C   UNL     1     -14.322  57.646  52.863  0.00  0.00    +0.000 C 
ATOM     31  C   UNL     1     -14.283  59.061  52.283  0.00  0.00    +0.000 C 
ATOM     32  C   UNL     1     -15.688  57.015  52.570  0.00  0.00    +0.000 C 
ENDBRANCH  29  30
ENDBRANCH  28  29
ENDBRANCH  19  28
ENDBRANCH   6  15
BRANCH  11  33
ATOM     33  O   UNL     1      -4.654  49.361  49.588  0.00  0.00    +0.000 OA
BRANCH  33  34
ATOM     34  C   UNL     1      -3.420  50.066  49.770  0.00  0.00    +0.000 C 
BRANCH  34  35
ATOM     35  C   UNL     1      -3.410  50.676  51.134  0.00  0.00    +0.000 A 
ATOM     36  C   UNL     1      -3.460  49.878  52.283  0.00  0.00    +0.000 A 
ATOM     37  C   UNL     1      -3.312  52.070  51.263  0.00  0.00    +0.000 A 
ATOM     38  C   UNL     1      -3.442  50.470  53.541  0.00  0.00    +0.000 A 
ATOM     39  C   UNL     1      -3.301  52.657  52.523  0.00  0.00    +0.000 A 
ATOM     40  C   UNL     1      -3.370  51.860  53.661  0.00  0.00    +0.000 A 
ENDBRANCH  34  35
ENDBRANCH  33  34
ENDBRANCH  11  33
TORSDOF 8
ENDMDL
MODEL 9
REMARK VINA RESULT:      -6.7      4.222      6.610
REMARK  Name = 352973
REMARK  10 active torsions:
REMARK  status: ('A' for Active; 'I' for Inactive)
REMARK    1  A    between atoms: C_6  and  C_10
REMARK    2  A    between atoms: C_12  and  O_16
REMARK    3  A    between atoms: C_14  and  O_19
REMARK    4  A    between atoms: O_16  and  C_21
REMARK    5  A    between atoms: N_18  and  C_23
REMARK    6  A    between atoms: C_21  and  C_25
REMARK    7  A    between atoms: C_23  and  C_27
REMARK    8  A    between atoms: C_27  and  C_32
REMARK    9  A    between atoms: C_32  and  C_35
REMARK   10  A    between atoms: C_32  and  C_36
REMARK                            x       y       z     vdW  Elec       q    Type
REMARK                         _______ _______ _______ _____ _____    ______ ____
ROOT
ATOM      1  S   UNL     1     -10.746  54.265  49.241  0.00  0.00    +0.000 S 
ATOM      2  O   UNL     1     -10.911  55.705  49.310  0.00  0.00    +0.000 OA
ATOM      3  O   UNL     1     -11.868  53.410  48.910  0.00  0.00    +0.000 OA
ATOM      4  N   UNL     1     -10.149  53.773  50.666  0.00  0.00    +0.000 N 
ATOM      5  C   UNL     1      -9.527  53.968  48.015  0.00  0.00    +0.000 A 
ATOM      6  C   UNL     1      -8.913  53.388  50.780  0.00  0.00    +0.000 C 
ATOM      7  C   UNL     1      -8.279  53.539  48.440  0.00  0.00    +0.000 A 
ATOM      8  C   UNL     1      -9.826  54.128  46.663  0.00  0.00    +0.000 A 
ATOM      9  N   UNL     1      -7.976  53.381  49.783  0.00  0.00    +0.000 N 
ATOM     10  C   UNL     1      -7.276  53.339  47.498  0.00  0.00    +0.000 A 
ATOM     11  C   UNL     1      -8.827  53.870  45.728  0.00  0.00    +0.000 A 
ATOM     12  C   UNL     1      -7.545  53.514  46.152  0.00  0.00    +0.000 A 
ATOM     13  H   UNL     1     -10.734  53.767  51.458  0.00  0.00    +0.000 HD
ATOM     14  H   UNL     1      -7.032  53.258  50.034  0.00  0.00    +0.000 HD
ENDROOT
BRANCH   6  15
ATOM     15  C   UNL     1      -8.482  52.880  52.128  0.00  0.00    +0.000 A 
ATOM     16  C   UNL     1      -7.265  53.461  52.781  0.00  0.00    +0.000 A 
ATOM     17  C   UNL     1      -9.213  51.949  52.758  0.00  0.00    +0.000 A 
ATOM     18  O   UNL     1      -6.699  54.412  52.240  0.00  0.00    +0.000 OA
ATOM     19  N   UNL     1      -6.837  52.911  53.970  0.00  0.00    +0.000 N 
ATOM     20  C   UNL     1      -8.744  51.405  54.030  0.00  0.00    +0.000 A 
ATOM     21  C   UNL     1      -7.554  51.862  54.603  0.00  0.00    +0.000 A 
ATOM     22  C   UNL     1      -9.438  50.379  54.680  0.00  0.00    +0.000 A 
ATOM     23  N   UNL     1      -7.052  51.345  55.748  0.00  0.00    +0.000 NA
ATOM     24  C   UNL     1      -8.929  49.831  55.847  0.00  0.00    +0.000 A 
ATOM     25  C   UNL     1      -7.742  50.344  56.337  0.00  0.00    +0.000 A 
BRANCH  17  26
ATOM     26  O   UNL     1     -10.396  51.413  52.281  0.00  0.00    +0.000 OA
ATOM     27  H   UNL     1     -10.402  50.932  51.477  0.00  0.00    +0.000 HD
ENDBRANCH  17  26
BRANCH  19  28
ATOM     28  C   UNL     1      -5.596  53.392  54.591  0.00  0.00    +0.000 C 
BRANCH  28  29
ATOM     29  C   UNL     1      -4.354  52.730  53.980  0.00  0.00    +0.000 C 
BRANCH  29  30
ATOM     30  C   UNL     1      -3.310  53.709  53.403  0.00  0.00    +0.000 C 
ATOM     31  C   UNL     1      -3.342  53.779  51.875  0.00  0.00    +0.000 C 
ATOM     32  C   UNL     1      -3.557  55.108  53.980  0.00  0.00    +0.000 C 
ENDBRANCH  29  30
ENDBRANCH  28  29
ENDBRANCH  19  28
ENDBRANCH   6  15
BRANCH  11  33
ATOM     33  O   UNL     1      -9.176  53.980  44.412  0.00  0.00    +0.000 OA
BRANCH  33  34
ATOM     34  C   UNL     1      -8.930  52.792  43.651  0.00  0.00    +0.000 C 
BRANCH  34  35
ATOM     35  C   UNL     1      -9.772  51.685  44.199  0.00  0.00    +0.000 A 
ATOM     36  C   UNL     1     -11.166  51.801  44.265  0.00  0.00    +0.000 A 
ATOM     37  C   UNL     1      -9.155  50.497  44.622  0.00  0.00    +0.000 A 
ATOM     38  C   UNL     1     -11.926  50.754  44.773  0.00  0.00    +0.000 A 
ATOM     39  C   UNL     1      -9.920  49.456  45.135  0.00  0.00    +0.000 A 
ATOM     40  C   UNL     1     -11.303  49.585  45.215  0.00  0.00    +0.000 A 
ENDBRANCH  34  35
ENDBRANCH  33  34
ENDBRANCH  11  33
TORSDOF 8
ENDMDL
