MODEL 1
REMARK VINA RESULT:      -7.3      0.000      0.000
REMARK  Name = 353260
REMARK  11 active torsions:
REMARK  status: ('A' for Active; 'I' for Inactive)
REMARK    1  A    between atoms: C_6  and  C_10
REMARK    2  A    between atoms: C_12  and  O_16
REMARK    3  A    between atoms: C_14  and  O_19
REMARK    4  A    between atoms: O_16  and  C_21
REMARK    5  A    between atoms: N_18  and  C_23
REMARK    6  A    between atoms: C_21  and  C_25
REMARK    7  A    between atoms: C_23  and  C_27
REMARK    8  A    between atoms: C_27  and  C_32
REMARK    9  A    between atoms: N_30  and  C_33
REMARK   10  A    between atoms: C_32  and  C_34
REMARK   11  A    between atoms: C_32  and  C_35
REMARK                            x       y       z     vdW  Elec       q    Type
REMARK                         _______ _______ _______ _____ _____    ______ ____
ROOT
ATOM      1  S   UNL     1     -11.395  54.697  47.594  0.00  0.00    +0.000 S 
ATOM      2  O   UNL     1     -11.834  53.387  47.173  0.00  0.00    +0.000 OA
ATOM      3  O   UNL     1     -11.542  55.865  46.753  0.00  0.00    +0.000 OA
ATOM      4  N   UNL     1      -9.804  54.603  48.017  0.00  0.00    +0.000 N 
ATOM      5  C   UNL     1     -12.143  55.039  49.130  0.00  0.00    +0.000 A 
ATOM      6  C   UNL     1      -9.392  54.126  49.256  0.00  0.00    +0.000 C 
ATOM      7  C   UNL     1     -11.426  54.718  50.278  0.00  0.00    +0.000 A 
ATOM      8  C   UNL     1     -13.404  55.638  49.174  0.00  0.00    +0.000 A 
ATOM      9  N   UNL     1     -10.163  54.113  50.299  0.00  0.00    +0.000 N 
ATOM     10  C   UNL     1     -11.997  55.033  51.512  0.00  0.00    +0.000 A 
ATOM     11  C   UNL     1     -13.966  55.911  50.415  0.00  0.00    +0.000 A 
ATOM     12  C   UNL     1     -13.251  55.634  51.582  0.00  0.00    +0.000 A 
ATOM     13  H   UNL     1      -9.122  54.895  47.369  0.00  0.00    +0.000 HD
ATOM     14  H   UNL     1      -9.855  53.668  51.122  0.00  0.00    +0.000 HD
ENDROOT
BRANCH   6  15
ATOM     15  C   UNL     1      -8.008  53.591  49.319  0.00  0.00    +0.000 A 
ATOM     16  C   UNL     1      -6.974  54.221  50.187  0.00  0.00    +0.000 A 
ATOM     17  C   UNL     1      -7.692  52.538  48.544  0.00  0.00    +0.000 A 
ATOM     18  O   UNL     1      -7.273  55.242  50.811  0.00  0.00    +0.000 OA
ATOM     19  N   UNL     1      -5.731  53.617  50.268  0.00  0.00    +0.000 N 
ATOM     20  C   UNL     1      -6.320  52.031  48.521  0.00  0.00    +0.000 A 
ATOM     21  C   UNL     1      -5.361  52.563  49.387  0.00  0.00    +0.000 A 
ATOM     22  C   UNL     1      -5.924  51.026  47.628  0.00  0.00    +0.000 A 
ATOM     23  N   UNL     1      -4.077  52.129  49.390  0.00  0.00    +0.000 NA
ATOM     24  C   UNL     1      -4.608  50.589  47.614  0.00  0.00    +0.000 A 
ATOM     25  C   UNL     1      -3.729  51.167  48.508  0.00  0.00    +0.000 A 
BRANCH  17  26
ATOM     26  O   UNL     1      -8.574  51.873  47.707  0.00  0.00    +0.000 OA
ATOM     27  H   UNL     1      -8.716  52.184  46.834  0.00  0.00    +0.000 HD
ENDBRANCH  17  26
BRANCH  19  28
ATOM     28  C   UNL     1      -4.701  54.216  51.122  0.00  0.00    +0.000 C 
BRANCH  28  29
ATOM     29  C   UNL     1      -4.696  53.730  52.582  0.00  0.00    +0.000 C 
BRANCH  29  30
ATOM     30  C   UNL     1      -5.056  54.780  53.648  0.00  0.00    +0.000 C 
ATOM     31  C   UNL     1      -5.995  54.229  54.720  0.00  0.00    +0.000 C 
ATOM     32  C   UNL     1      -3.768  55.289  54.307  0.00  0.00    +0.000 C 
ENDBRANCH  29  30
ENDBRANCH  28  29
ENDBRANCH  19  28
ENDBRANCH   6  15
BRANCH  11  33
ATOM     33  O   UNL     1     -15.186  56.485  50.603  0.00  0.00    +0.000 OA
BRANCH  33  34
ATOM     34  C   UNL     1     -15.314  57.284  51.783  0.00  0.00    +0.000 C 
BRANCH  34  35
ATOM     35  C   UNL     1     -14.725  58.672  51.527  0.00  0.00    +0.000 C 
ATOM     36  O   UNL     1     -14.277  59.367  52.434  0.00  0.00    +0.000 OA
ATOM     37  N   UNL     1     -14.723  59.046  50.201  0.00  0.00    +0.000 N 
ATOM     38  C   UNL     1     -14.205  60.301  49.727  0.00  0.00    +0.000 C 
ATOM     39  H   UNL     1     -15.096  58.419  49.540  0.00  0.00    +0.000 HD
ENDBRANCH  34  35
ENDBRANCH  33  34
ENDBRANCH  11  33
TORSDOF 8
ENDMDL
MODEL 2
REMARK VINA RESULT:      -7.2      2.914      4.364
REMARK  Name = 353260
REMARK  11 active torsions:
REMARK  status: ('A' for Active; 'I' for Inactive)
REMARK    1  A    between atoms: C_6  and  C_10
REMARK    2  A    between atoms: C_12  and  O_16
REMARK    3  A    between atoms: C_14  and  O_19
REMARK    4  A    between atoms: O_16  and  C_21
REMARK    5  A    between atoms: N_18  and  C_23
REMARK    6  A    between atoms: C_21  and  C_25
REMARK    7  A    between atoms: C_23  and  C_27
REMARK    8  A    between atoms: C_27  and  C_32
REMARK    9  A    between atoms: N_30  and  C_33
REMARK   10  A    between atoms: C_32  and  C_34
REMARK   11  A    between atoms: C_32  and  C_35
REMARK                            x       y       z     vdW  Elec       q    Type
REMARK                         _______ _______ _______ _____ _____    ______ ____
ROOT
ATOM      1  S   UNL     1     -11.500  54.825  50.736  0.00  0.00    +0.000 S 
ATOM      2  O   UNL     1     -10.299  55.515  51.148  0.00  0.00    +0.000 OA
ATOM      3  O   UNL     1     -12.280  54.025  51.655  0.00  0.00    +0.000 OA
ATOM      4  N   UNL     1     -11.134  53.863  49.449  0.00  0.00    +0.000 N 
ATOM      5  C   UNL     1     -12.561  55.997  50.005  0.00  0.00    +0.000 A 
ATOM      6  C   UNL     1     -11.040  54.360  48.153  0.00  0.00    +0.000 C 
ATOM      7  C   UNL     1     -12.491  56.151  48.623  0.00  0.00    +0.000 A 
ATOM      8  C   UNL     1     -13.456  56.720  50.797  0.00  0.00    +0.000 A 
ATOM      9  N   UNL     1     -11.614  55.461  47.777  0.00  0.00    +0.000 N 
ATOM     10  C   UNL     1     -13.371  57.052  48.023  0.00  0.00    +0.000 A 
ATOM     11  C   UNL     1     -14.298  57.636  50.180  0.00  0.00    +0.000 A 
ATOM     12  C   UNL     1     -14.275  57.782  48.791  0.00  0.00    +0.000 A 
ATOM     13  H   UNL     1     -10.975  52.903  49.602  0.00  0.00    +0.000 HD
ATOM     14  H   UNL     1     -11.429  55.820  46.879  0.00  0.00    +0.000 HD
ENDROOT
BRANCH   6  15
ATOM     15  C   UNL     1     -10.208  53.569  47.212  0.00  0.00    +0.000 A 
ATOM     16  C   UNL     1      -8.884  53.023  47.623  0.00  0.00    +0.000 A 
ATOM     17  C   UNL     1     -10.659  53.380  45.959  0.00  0.00    +0.000 A 
ATOM     18  O   UNL     1      -8.459  53.294  48.747  0.00  0.00    +0.000 OA
ATOM     19  N   UNL     1      -8.202  52.217  46.726  0.00  0.00    +0.000 N 
ATOM     20  C   UNL     1      -9.834  52.672  44.981  0.00  0.00    +0.000 A 
ATOM     21  C   UNL     1      -8.626  52.089  45.375  0.00  0.00    +0.000 A 
ATOM     22  C   UNL     1     -10.211  52.575  43.636  0.00  0.00    +0.000 A 
ATOM     23  N   UNL     1      -7.828  51.433  44.498  0.00  0.00    +0.000 NA
ATOM     24  C   UNL     1      -9.390  51.920  42.729  0.00  0.00    +0.000 A 
ATOM     25  C   UNL     1      -8.217  51.368  43.207  0.00  0.00    +0.000 A 
BRANCH  17  26
ATOM     26  O   UNL     1     -11.875  53.837  45.474  0.00  0.00    +0.000 OA
ATOM     27  H   UNL     1     -11.915  54.641  44.995  0.00  0.00    +0.000 HD
ENDBRANCH  17  26
BRANCH  19  28
ATOM     28  C   UNL     1      -6.902  51.662  47.112  0.00  0.00    +0.000 C 
BRANCH  28  29
ATOM     29  C   UNL     1      -5.737  52.667  47.122  0.00  0.00    +0.000 C 
BRANCH  29  30
ATOM     30  C   UNL     1      -4.889  52.710  48.406  0.00  0.00    +0.000 C 
ATOM     31  C   UNL     1      -4.988  54.054  49.128  0.00  0.00    +0.000 C 
ATOM     32  C   UNL     1      -5.344  51.589  49.347  0.00  0.00    +0.000 C 
ENDBRANCH  29  30
ENDBRANCH  28  29
ENDBRANCH  19  28
ENDBRANCH   6  15
BRANCH  11  33
ATOM     33  O   UNL     1     -15.212  58.409  50.831  0.00  0.00    +0.000 OA
BRANCH  33  34
ATOM     34  C   UNL     1     -14.674  59.296  51.815  0.00  0.00    +0.000 C 
BRANCH  34  35
ATOM     35  C   UNL     1     -15.325  59.011  53.170  0.00  0.00    +0.000 C 
ATOM     36  O   UNL     1     -15.389  57.878  53.636  0.00  0.00    +0.000 OA
ATOM     37  N   UNL     1     -15.800  60.134  53.813  0.00  0.00    +0.000 N 
ATOM     38  C   UNL     1     -16.437  60.105  55.102  0.00  0.00    +0.000 C 
ATOM     39  H   UNL     1     -15.698  61.004  53.365  0.00  0.00    +0.000 HD
ENDBRANCH  34  35
ENDBRANCH  33  34
ENDBRANCH  11  33
TORSDOF 8
ENDMDL
MODEL 3
REMARK VINA RESULT:      -7.1      3.287      9.211
REMARK  Name = 353260
REMARK  11 active torsions:
REMARK  status: ('A' for Active; 'I' for Inactive)
REMARK    1  A    between atoms: C_6  and  C_10
REMARK    2  A    between atoms: C_12  and  O_16
REMARK    3  A    between atoms: C_14  and  O_19
REMARK    4  A    between atoms: O_16  and  C_21
REMARK    5  A    between atoms: N_18  and  C_23
REMARK    6  A    between atoms: C_21  and  C_25
REMARK    7  A    between atoms: C_23  and  C_27
REMARK    8  A    between atoms: C_27  and  C_32
REMARK    9  A    between atoms: N_30  and  C_33
REMARK   10  A    between atoms: C_32  and  C_34
REMARK   11  A    between atoms: C_32  and  C_35
REMARK                            x       y       z     vdW  Elec       q    Type
REMARK                         _______ _______ _______ _____ _____    ______ ____
ROOT
ATOM      1  S   UNL     1      -9.455  52.360  52.658  0.00  0.00    +0.000 S 
ATOM      2  O   UNL     1      -9.585  51.126  51.917  0.00  0.00    +0.000 OA
ATOM      3  O   UNL     1      -9.869  52.474  54.039  0.00  0.00    +0.000 OA
ATOM      4  N   UNL     1     -10.224  53.553  51.821  0.00  0.00    +0.000 N 
ATOM      5  C   UNL     1      -7.793  52.872  52.547  0.00  0.00    +0.000 A 
ATOM      6  C   UNL     1      -9.635  54.202  50.742  0.00  0.00    +0.000 C 
ATOM      7  C   UNL     1      -7.462  53.757  51.526  0.00  0.00    +0.000 A 
ATOM      8  C   UNL     1      -6.859  52.417  53.480  0.00  0.00    +0.000 A 
ATOM      9  N   UNL     1      -8.351  54.245  50.560  0.00  0.00    +0.000 N 
ATOM     10  C   UNL     1      -6.145  54.211  51.459  0.00  0.00    +0.000 A 
ATOM     11  C   UNL     1      -5.545  52.857  53.371  0.00  0.00    +0.000 A 
ATOM     12  C   UNL     1      -5.195  53.775  52.379  0.00  0.00    +0.000 A 
ATOM     13  H   UNL     1     -11.133  53.816  52.096  0.00  0.00    +0.000 HD
ATOM     14  H   UNL     1      -7.995  54.626  49.725  0.00  0.00    +0.000 HD
ENDROOT
BRANCH   6  15
ATOM     15  C   UNL     1     -10.569  54.829  49.772  0.00  0.00    +0.000 A 
ATOM     16  C   UNL     1     -10.414  54.621  48.305  0.00  0.00    +0.000 A 
ATOM     17  C   UNL     1     -11.546  55.623  50.244  0.00  0.00    +0.000 A 
ATOM     18  O   UNL     1      -9.451  53.965  47.903  0.00  0.00    +0.000 OA
ATOM     19  N   UNL     1     -11.373  55.159  47.463  0.00  0.00    +0.000 N 
ATOM     20  C   UNL     1     -12.438  56.319  49.317  0.00  0.00    +0.000 A 
ATOM     21  C   UNL     1     -12.352  56.072  47.944  0.00  0.00    +0.000 A 
ATOM     22  C   UNL     1     -13.377  57.257  49.766  0.00  0.00    +0.000 A 
ATOM     23  N   UNL     1     -13.152  56.703  47.051  0.00  0.00    +0.000 NA
ATOM     24  C   UNL     1     -14.187  57.919  48.855  0.00  0.00    +0.000 A 
ATOM     25  C   UNL     1     -14.039  57.608  47.518  0.00  0.00    +0.000 A 
BRANCH  17  26
ATOM     26  O   UNL     1     -11.784  55.880  51.586  0.00  0.00    +0.000 OA
ATOM     27  H   UNL     1     -11.067  55.937  52.186  0.00  0.00    +0.000 HD
ENDBRANCH  17  26
BRANCH  19  28
ATOM     28  C   UNL     1     -11.245  54.960  46.017  0.00  0.00    +0.000 C 
BRANCH  28  29
ATOM     29  C   UNL     1     -11.916  53.689  45.468  0.00  0.00    +0.000 C 
BRANCH  29  30
ATOM     30  C   UNL     1     -10.974  52.627  44.873  0.00  0.00    +0.000 C 
ATOM     31  C   UNL     1      -9.595  53.190  44.535  0.00  0.00    +0.000 C 
ATOM     32  C   UNL     1     -10.825  51.473  45.872  0.00  0.00    +0.000 C 
ENDBRANCH  29  30
ENDBRANCH  28  29
ENDBRANCH  19  28
ENDBRANCH   6  15
BRANCH  11  33
ATOM     33  O   UNL     1      -4.534  52.489  54.207  0.00  0.00    +0.000 OA
BRANCH  33  34
ATOM     34  C   UNL     1      -3.300  52.153  53.566  0.00  0.00    +0.000 C 
BRANCH  34  35
ATOM     35  C   UNL     1      -3.303  50.669  53.197  0.00  0.00    +0.000 C 
ATOM     36  O   UNL     1      -3.300  49.786  54.049  0.00  0.00    +0.000 OA
ATOM     37  N   UNL     1      -3.337  50.426  51.841  0.00  0.00    +0.000 N 
ATOM     38  C   UNL     1      -3.360  49.109  51.267  0.00  0.00    +0.000 C 
ATOM     39  H   UNL     1      -3.347  51.199  51.231  0.00  0.00    +0.000 HD
ENDBRANCH  34  35
ENDBRANCH  33  34
ENDBRANCH  11  33
TORSDOF 8
ENDMDL
MODEL 4
REMARK VINA RESULT:      -7.1      2.816      9.290
REMARK  Name = 353260
REMARK  11 active torsions:
REMARK  status: ('A' for Active; 'I' for Inactive)
REMARK    1  A    between atoms: C_6  and  C_10
REMARK    2  A    between atoms: C_12  and  O_16
REMARK    3  A    between atoms: C_14  and  O_19
REMARK    4  A    between atoms: O_16  and  C_21
REMARK    5  A    between atoms: N_18  and  C_23
REMARK    6  A    between atoms: C_21  and  C_25
REMARK    7  A    between atoms: C_23  and  C_27
REMARK    8  A    between atoms: C_27  and  C_32
REMARK    9  A    between atoms: N_30  and  C_33
REMARK   10  A    between atoms: C_32  and  C_34
REMARK   11  A    between atoms: C_32  and  C_35
REMARK                            x       y       z     vdW  Elec       q    Type
REMARK                         _______ _______ _______ _____ _____    ______ ____
ROOT
ATOM      1  S   UNL     1      -7.455  54.648  52.802  0.00  0.00    +0.000 S 
ATOM      2  O   UNL     1      -8.128  53.685  53.643  0.00  0.00    +0.000 OA
ATOM      3  O   UNL     1      -6.550  55.639  53.340  0.00  0.00    +0.000 OA
ATOM      4  N   UNL     1      -8.592  55.457  51.924  0.00  0.00    +0.000 N 
ATOM      5  C   UNL     1      -6.614  53.767  51.555  0.00  0.00    +0.000 A 
ATOM      6  C   UNL     1      -9.157  54.924  50.770  0.00  0.00    +0.000 C 
ATOM      7  C   UNL     1      -7.279  53.571  50.349  0.00  0.00    +0.000 A 
ATOM      8  C   UNL     1      -5.313  53.313  51.779  0.00  0.00    +0.000 A 
ATOM      9  N   UNL     1      -8.583  53.997  50.067  0.00  0.00    +0.000 N 
ATOM     10  C   UNL     1      -6.596  52.910  49.328  0.00  0.00    +0.000 A 
ATOM     11  C   UNL     1      -4.665  52.627  50.758  0.00  0.00    +0.000 A 
ATOM     12  C   UNL     1      -5.296  52.450  49.525  0.00  0.00    +0.000 A 
ATOM     13  H   UNL     1      -8.881  56.348  52.227  0.00  0.00    +0.000 HD
ATOM     14  H   UNL     1      -9.075  53.584  49.321  0.00  0.00    +0.000 HD
ENDROOT
BRANCH   6  15
ATOM     15  C   UNL     1     -10.491  55.458  50.394  0.00  0.00    +0.000 A 
ATOM     16  C   UNL     1     -11.601  55.533  51.384  0.00  0.00    +0.000 A 
ATOM     17  C   UNL     1     -10.691  55.844  49.121  0.00  0.00    +0.000 A 
ATOM     18  O   UNL     1     -11.410  55.083  52.516  0.00  0.00    +0.000 OA
ATOM     19  N   UNL     1     -12.789  56.126  50.992  0.00  0.00    +0.000 N 
ATOM     20  C   UNL     1     -12.013  56.304  48.694  0.00  0.00    +0.000 A 
ATOM     21  C   UNL     1     -13.039  56.452  49.630  0.00  0.00    +0.000 A 
ATOM     22  C   UNL     1     -12.292  56.584  47.350  0.00  0.00    +0.000 A 
ATOM     23  N   UNL     1     -14.280  56.864  49.274  0.00  0.00    +0.000 NA
ATOM     24  C   UNL     1     -13.565  56.990  46.976  0.00  0.00    +0.000 A 
ATOM     25  C   UNL     1     -14.517  57.116  47.968  0.00  0.00    +0.000 A 
BRANCH  17  26
ATOM     26  O   UNL     1      -9.730  55.823  48.122  0.00  0.00    +0.000 OA
ATOM     27  H   UNL     1      -9.928  55.439  47.290  0.00  0.00    +0.000 HD
ENDBRANCH  17  26
BRANCH  19  28
ATOM     28  C   UNL     1     -13.892  56.218  51.953  0.00  0.00    +0.000 C 
BRANCH  28  29
ATOM     29  C   UNL     1     -13.937  57.516  52.777  0.00  0.00    +0.000 C 
BRANCH  29  30
ATOM     30  C   UNL     1     -14.889  58.613  52.266  0.00  0.00    +0.000 C 
ATOM     31  C   UNL     1     -15.577  59.368  53.403  0.00  0.00    +0.000 C 
ATOM     32  C   UNL     1     -14.099  59.600  51.399  0.00  0.00    +0.000 C 
ENDBRANCH  29  30
ENDBRANCH  28  29
ENDBRANCH  19  28
ENDBRANCH   6  15
BRANCH  11  33
ATOM     33  O   UNL     1      -3.402  52.126  50.843  0.00  0.00    +0.000 OA
BRANCH  33  34
ATOM     34  C   UNL     1      -3.300  50.701  50.766  0.00  0.00    +0.000 C 
BRANCH  34  35
ATOM     35  C   UNL     1      -3.895  50.078  52.031  0.00  0.00    +0.000 C 
ATOM     36  O   UNL     1      -4.805  49.256  51.985  0.00  0.00    +0.000 OA
ATOM     37  N   UNL     1      -3.302  50.502  53.200  0.00  0.00    +0.000 N 
ATOM     38  C   UNL     1      -3.689  50.039  54.504  0.00  0.00    +0.000 C 
ATOM     39  H   UNL     1      -2.571  51.159  53.138  0.00  0.00    +0.000 HD
ENDBRANCH  34  35
ENDBRANCH  33  34
ENDBRANCH  11  33
TORSDOF 8
ENDMDL
MODEL 5
REMARK VINA RESULT:      -7.1      3.337      9.232
REMARK  Name = 353260
REMARK  11 active torsions:
REMARK  status: ('A' for Active; 'I' for Inactive)
REMARK    1  A    between atoms: C_6  and  C_10
REMARK    2  A    between atoms: C_12  and  O_16
REMARK    3  A    between atoms: C_14  and  O_19
REMARK    4  A    between atoms: O_16  and  C_21
REMARK    5  A    between atoms: N_18  and  C_23
REMARK    6  A    between atoms: C_21  and  C_25
REMARK    7  A    between atoms: C_23  and  C_27
REMARK    8  A    between atoms: C_27  and  C_32
REMARK    9  A    between atoms: N_30  and  C_33
REMARK   10  A    between atoms: C_32  and  C_34
REMARK   11  A    between atoms: C_32  and  C_35
REMARK                            x       y       z     vdW  Elec       q    Type
REMARK                         _______ _______ _______ _____ _____    ______ ____
ROOT
ATOM      1  S   UNL     1      -7.974  55.212  53.101  0.00  0.00    +0.000 S 
ATOM      2  O   UNL     1      -9.001  55.189  54.118  0.00  0.00    +0.000 OA
ATOM      3  O   UNL     1      -6.801  56.050  53.213  0.00  0.00    +0.000 OA
ATOM      4  N   UNL     1      -8.682  55.559  51.654  0.00  0.00    +0.000 N 
ATOM      5  C   UNL     1      -7.444  53.571  52.845  0.00  0.00    +0.000 A 
ATOM      6  C   UNL     1      -9.335  54.594  50.896  0.00  0.00    +0.000 C 
ATOM      7  C   UNL     1      -8.064  52.849  51.831  0.00  0.00    +0.000 A 
ATOM      8  C   UNL     1      -6.416  53.040  53.626  0.00  0.00    +0.000 A 
ATOM      9  N   UNL     1      -9.102  53.323  51.019  0.00  0.00    +0.000 N 
ATOM     10  C   UNL     1      -7.613  51.551  51.586  0.00  0.00    +0.000 A 
ATOM     11  C   UNL     1      -6.007  51.734  53.386  0.00  0.00    +0.000 A 
ATOM     12  C   UNL     1      -6.587  51.000  52.349  0.00  0.00    +0.000 A 
ATOM     13  H   UNL     1      -8.640  56.483  51.314  0.00  0.00    +0.000 HD
ATOM     14  H   UNL     1      -9.667  52.680  50.533  0.00  0.00    +0.000 HD
ENDROOT
BRANCH   6  15
ATOM     15  C   UNL     1     -10.356  55.098  49.942  0.00  0.00    +0.000 A 
ATOM     16  C   UNL     1     -10.189  54.930  48.471  0.00  0.00    +0.000 A 
ATOM     17  C   UNL     1     -11.428  55.745  50.433  0.00  0.00    +0.000 A 
ATOM     18  O   UNL     1      -9.150  54.416  48.052  0.00  0.00    +0.000 OA
ATOM     19  N   UNL     1     -11.221  55.341  47.644  0.00  0.00    +0.000 N 
ATOM     20  C   UNL     1     -12.416  56.323  49.521  0.00  0.00    +0.000 A 
ATOM     21  C   UNL     1     -12.311  56.105  48.145  0.00  0.00    +0.000 A 
ATOM     22  C   UNL     1     -13.469  57.118  49.990  0.00  0.00    +0.000 A 
ATOM     23  N   UNL     1     -13.198  56.631  47.267  0.00  0.00    +0.000 NA
ATOM     24  C   UNL     1     -14.372  57.673  49.095  0.00  0.00    +0.000 A 
ATOM     25  C   UNL     1     -14.196  57.401  47.753  0.00  0.00    +0.000 A 
BRANCH  17  26
ATOM     26  O   UNL     1     -11.685  55.952  51.779  0.00  0.00    +0.000 OA
ATOM     27  H   UNL     1     -12.559  55.869  52.106  0.00  0.00    +0.000 HD
ENDBRANCH  17  26
BRANCH  19  28
ATOM     28  C   UNL     1     -11.082  55.178  46.195  0.00  0.00    +0.000 C 
BRANCH  28  29
ATOM     29  C   UNL     1     -11.758  53.927  45.607  0.00  0.00    +0.000 C 
BRANCH  29  30
ATOM     30  C   UNL     1     -10.960  53.165  44.533  0.00  0.00    +0.000 C 
ATOM     31  C   UNL     1      -9.451  53.359  44.677  0.00  0.00    +0.000 C 
ATOM     32  C   UNL     1     -11.296  51.672  44.623  0.00  0.00    +0.000 C 
ENDBRANCH  29  30
ENDBRANCH  28  29
ENDBRANCH  19  28
ENDBRANCH   6  15
BRANCH  11  33
ATOM     33  O   UNL     1      -5.023  51.092  54.074  0.00  0.00    +0.000 OA
BRANCH  33  34
ATOM     34  C   UNL     1      -3.702  51.252  53.549  0.00  0.00    +0.000 C 
BRANCH  34  35
ATOM     35  C   UNL     1      -3.515  50.327  52.345  0.00  0.00    +0.000 C 
ATOM     36  O   UNL     1      -3.436  49.108  52.467  0.00  0.00    +0.000 OA
ATOM     37  N   UNL     1      -3.471  50.982  51.134  0.00  0.00    +0.000 N 
ATOM     38  C   UNL     1      -3.316  50.313  49.871  0.00  0.00    +0.000 C 
ATOM     39  H   UNL     1      -3.551  51.963  51.133  0.00  0.00    +0.000 HD
ENDBRANCH  34  35
ENDBRANCH  33  34
ENDBRANCH  11  33
TORSDOF 8
ENDMDL
MODEL 6
REMARK VINA RESULT:      -7.0      1.743      2.294
REMARK  Name = 353260
REMARK  11 active torsions:
REMARK  status: ('A' for Active; 'I' for Inactive)
REMARK    1  A    between atoms: C_6  and  C_10
REMARK    2  A    between atoms: C_12  and  O_16
REMARK    3  A    between atoms: C_14  and  O_19
REMARK    4  A    between atoms: O_16  and  C_21
REMARK    5  A    between atoms: N_18  and  C_23
REMARK    6  A    between atoms: C_21  and  C_25
REMARK    7  A    between atoms: C_23  and  C_27
REMARK    8  A    between atoms: C_27  and  C_32
REMARK    9  A    between atoms: N_30  and  C_33
REMARK   10  A    between atoms: C_32  and  C_34
REMARK   11  A    between atoms: C_32  and  C_35
REMARK                            x       y       z     vdW  Elec       q    Type
REMARK                         _______ _______ _______ _____ _____    ______ ____
ROOT
ATOM      1  S   UNL     1     -11.287  53.548  51.618  0.00  0.00    +0.000 S 
ATOM      2  O   UNL     1     -10.935  54.314  52.793  0.00  0.00    +0.000 OA
ATOM      3  O   UNL     1     -12.282  52.499  51.654  0.00  0.00    +0.000 OA
ATOM      4  N   UNL     1      -9.911  52.890  50.994  0.00  0.00    +0.000 N 
ATOM      5  C   UNL     1     -11.734  54.675  50.366  0.00  0.00    +0.000 A 
ATOM      6  C   UNL     1      -9.037  53.617  50.192  0.00  0.00    +0.000 C 
ATOM      7  C   UNL     1     -10.738  55.078  49.482  0.00  0.00    +0.000 A 
ATOM      8  C   UNL     1     -13.055  55.115  50.262  0.00  0.00    +0.000 A 
ATOM      9  N   UNL     1      -9.398  54.677  49.537  0.00  0.00    +0.000 N 
ATOM     10  C   UNL     1     -11.097  55.942  48.447  0.00  0.00    +0.000 A 
ATOM     11  C   UNL     1     -13.380  56.001  49.243  0.00  0.00    +0.000 A 
ATOM     12  C   UNL     1     -12.409  56.392  48.319  0.00  0.00    +0.000 A 
ATOM     13  H   UNL     1      -9.700  51.949  51.195  0.00  0.00    +0.000 HD
ATOM     14  H   UNL     1      -8.714  55.211  49.071  0.00  0.00    +0.000 HD
ENDROOT
BRANCH   6  15
ATOM     15  C   UNL     1      -7.636  53.126  50.148  0.00  0.00    +0.000 A 
ATOM     16  C   UNL     1      -6.530  53.887  50.794  0.00  0.00    +0.000 A 
ATOM     17  C   UNL     1      -7.375  51.989  49.479  0.00  0.00    +0.000 A 
ATOM     18  O   UNL     1      -6.791  54.973  51.317  0.00  0.00    +0.000 OA
ATOM     19  N   UNL     1      -5.264  53.327  50.794  0.00  0.00    +0.000 N 
ATOM     20  C   UNL     1      -5.998  51.515  49.348  0.00  0.00    +0.000 A 
ATOM     21  C   UNL     1      -4.963  52.177  50.014  0.00  0.00    +0.000 A 
ATOM     22  C   UNL     1      -5.674  50.413  48.547  0.00  0.00    +0.000 A 
ATOM     23  N   UNL     1      -3.672  51.777  49.911  0.00  0.00    +0.000 NA
ATOM     24  C   UNL     1      -4.353  50.008  48.423  0.00  0.00    +0.000 A 
ATOM     25  C   UNL     1      -3.396  50.716  49.121  0.00  0.00    +0.000 A 
BRANCH  17  26
ATOM     26  O   UNL     1      -8.326  51.201  48.848  0.00  0.00    +0.000 OA
ATOM     27  H   UNL     1      -8.988  50.772  49.354  0.00  0.00    +0.000 HD
ENDBRANCH  17  26
BRANCH  19  28
ATOM     28  C   UNL     1      -4.162  54.055  51.431  0.00  0.00    +0.000 C 
BRANCH  28  29
ATOM     29  C   UNL     1      -4.041  53.861  52.952  0.00  0.00    +0.000 C 
BRANCH  29  30
ATOM     30  C   UNL     1      -4.674  54.956  53.829  0.00  0.00    +0.000 C 
ATOM     31  C   UNL     1      -5.719  54.401  54.797  0.00  0.00    +0.000 C 
ATOM     32  C   UNL     1      -3.570  55.668  54.620  0.00  0.00    +0.000 C 
ENDBRANCH  29  30
ENDBRANCH  28  29
ENDBRANCH  19  28
ENDBRANCH   6  15
BRANCH  11  33
ATOM     33  O   UNL     1     -14.625  56.513  49.030  0.00  0.00    +0.000 OA
BRANCH  33  34
ATOM     34  C   UNL     1     -15.532  56.399  50.130  0.00  0.00    +0.000 C 
BRANCH  34  35
ATOM     35  C   UNL     1     -15.331  57.579  51.083  0.00  0.00    +0.000 C 
ATOM     36  O   UNL     1     -15.146  58.722  50.674  0.00  0.00    +0.000 OA
ATOM     37  N   UNL     1     -15.402  57.244  52.417  0.00  0.00    +0.000 N 
ATOM     38  C   UNL     1     -15.256  58.193  53.487  0.00  0.00    +0.000 C 
ATOM     39  H   UNL     1     -15.562  56.301  52.651  0.00  0.00    +0.000 HD
ENDBRANCH  34  35
ENDBRANCH  33  34
ENDBRANCH  11  33
TORSDOF 8
ENDMDL
MODEL 7
REMARK VINA RESULT:      -6.9      2.510      4.783
REMARK  Name = 353260
REMARK  11 active torsions:
REMARK  status: ('A' for Active; 'I' for Inactive)
REMARK    1  A    between atoms: C_6  and  C_10
REMARK    2  A    between atoms: C_12  and  O_16
REMARK    3  A    between atoms: C_14  and  O_19
REMARK    4  A    between atoms: O_16  and  C_21
REMARK    5  A    between atoms: N_18  and  C_23
REMARK    6  A    between atoms: C_21  and  C_25
REMARK    7  A    between atoms: C_23  and  C_27
REMARK    8  A    between atoms: C_27  and  C_32
REMARK    9  A    between atoms: N_30  and  C_33
REMARK   10  A    between atoms: C_32  and  C_34
REMARK   11  A    between atoms: C_32  and  C_35
REMARK                            x       y       z     vdW  Elec       q    Type
REMARK                         _______ _______ _______ _____ _____    ______ ____
ROOT
ATOM      1  S   UNL     1      -9.613  54.625  52.187  0.00  0.00    +0.000 S 
ATOM      2  O   UNL     1      -8.751  55.781  52.093  0.00  0.00    +0.000 OA
ATOM      3  O   UNL     1      -9.955  54.022  53.457  0.00  0.00    +0.000 OA
ATOM      4  N   UNL     1      -8.989  53.431  51.238  0.00  0.00    +0.000 N 
ATOM      5  C   UNL     1     -11.094  54.997  51.349  0.00  0.00    +0.000 A 
ATOM      6  C   UNL     1      -9.184  53.397  49.862  0.00  0.00    +0.000 C 
ATOM      7  C   UNL     1     -11.184  54.627  50.010  0.00  0.00    +0.000 A 
ATOM      8  C   UNL     1     -12.144  55.619  52.029  0.00  0.00    +0.000 A 
ATOM      9  N   UNL     1     -10.167  54.008  49.274  0.00  0.00    +0.000 N 
ATOM     10  C   UNL     1     -12.384  54.878  49.344  0.00  0.00    +0.000 A 
ATOM     11  C   UNL     1     -13.317  55.888  51.334  0.00  0.00    +0.000 A 
ATOM     12  C   UNL     1     -13.447  55.493  50.001  0.00  0.00    +0.000 A 
ATOM     13  H   UNL     1      -8.458  52.716  51.660  0.00  0.00    +0.000 HD
ATOM     14  H   UNL     1     -10.197  54.038  48.290  0.00  0.00    +0.000 HD
ENDROOT
BRANCH   6  15
ATOM     15  C   UNL     1      -8.175  52.639  49.080  0.00  0.00    +0.000 A 
ATOM     16  C   UNL     1      -8.583  51.660  48.034  0.00  0.00    +0.000 A 
ATOM     17  C   UNL     1      -6.873  52.827  49.360  0.00  0.00    +0.000 A 
ATOM     18  O   UNL     1      -9.785  51.443  47.869  0.00  0.00    +0.000 OA
ATOM     19  N   UNL     1      -7.590  51.056  47.280  0.00  0.00    +0.000 N 
ATOM     20  C   UNL     1      -5.852  52.043  48.665  0.00  0.00    +0.000 A 
ATOM     21  C   UNL     1      -6.217  51.180  47.629  0.00  0.00    +0.000 A 
ATOM     22  C   UNL     1      -4.500  52.115  49.026  0.00  0.00    +0.000 A 
ATOM     23  N   UNL     1      -5.304  50.428  46.968  0.00  0.00    +0.000 NA
ATOM     24  C   UNL     1      -3.563  51.335  48.364  0.00  0.00    +0.000 A 
ATOM     25  C   UNL     1      -4.011  50.514  47.348  0.00  0.00    +0.000 A 
BRANCH  17  26
ATOM     26  O   UNL     1      -6.383  53.714  50.307  0.00  0.00    +0.000 OA
ATOM     27  H   UNL     1      -6.908  53.945  51.048  0.00  0.00    +0.000 HD
ENDBRANCH  17  26
BRANCH  19  28
ATOM     28  C   UNL     1      -7.969  50.097  46.239  0.00  0.00    +0.000 C 
BRANCH  28  29
ATOM     29  C   UNL     1      -7.969  50.651  44.804  0.00  0.00    +0.000 C 
BRANCH  29  30
ATOM     30  C   UNL     1      -9.108  51.624  44.452  0.00  0.00    +0.000 C 
ATOM     31  C   UNL     1      -8.622  53.066  44.306  0.00  0.00    +0.000 C 
ATOM     32  C   UNL     1      -9.770  51.172  43.145  0.00  0.00    +0.000 C 
ENDBRANCH  29  30
ENDBRANCH  28  29
ENDBRANCH  19  28
ENDBRANCH   6  15
BRANCH  11  33
ATOM     33  O   UNL     1     -14.413  56.492  51.871  0.00  0.00    +0.000 OA
BRANCH  33  34
ATOM     34  C   UNL     1     -15.204  57.255  50.955  0.00  0.00    +0.000 C 
BRANCH  34  35
ATOM     35  C   UNL     1     -14.771  58.722  51.006  0.00  0.00    +0.000 C 
ATOM     36  O   UNL     1     -15.008  59.438  51.975  0.00  0.00    +0.000 OA
ATOM     37  N   UNL     1     -14.081  59.144  49.891  0.00  0.00    +0.000 N 
ATOM     38  C   UNL     1     -13.568  60.477  49.728  0.00  0.00    +0.000 C 
ATOM     39  H   UNL     1     -13.930  58.496  49.165  0.00  0.00    +0.000 HD
ENDBRANCH  34  35
ENDBRANCH  33  34
ENDBRANCH  11  33
TORSDOF 8
ENDMDL
MODEL 8
REMARK VINA RESULT:      -6.8      2.434      3.586
REMARK  Name = 353260
REMARK  11 active torsions:
REMARK  status: ('A' for Active; 'I' for Inactive)
REMARK    1  A    between atoms: C_6  and  C_10
REMARK    2  A    between atoms: C_12  and  O_16
REMARK    3  A    between atoms: C_14  and  O_19
REMARK    4  A    between atoms: O_16  and  C_21
REMARK    5  A    between atoms: N_18  and  C_23
REMARK    6  A    between atoms: C_21  and  C_25
REMARK    7  A    between atoms: C_23  and  C_27
REMARK    8  A    between atoms: C_27  and  C_32
REMARK    9  A    between atoms: N_30  and  C_33
REMARK   10  A    between atoms: C_32  and  C_34
REMARK   11  A    between atoms: C_32  and  C_35
REMARK                            x       y       z     vdW  Elec       q    Type
REMARK                         _______ _______ _______ _____ _____    ______ ____
ROOT
ATOM      1  S   UNL     1      -9.904  55.575  50.098  0.00  0.00    +0.000 S 
ATOM      2  O   UNL     1      -8.805  56.500  49.944  0.00  0.00    +0.000 OA
ATOM      3  O   UNL     1     -10.488  55.283  51.389  0.00  0.00    +0.000 OA
ATOM      4  N   UNL     1      -9.471  54.133  49.426  0.00  0.00    +0.000 N 
ATOM      5  C   UNL     1     -11.182  56.087  49.030  0.00  0.00    +0.000 A 
ATOM      6  C   UNL     1      -9.539  53.902  48.057  0.00  0.00    +0.000 C 
ATOM      7  C   UNL     1     -11.224  55.516  47.761  0.00  0.00    +0.000 A 
ATOM      8  C   UNL     1     -12.129  57.015  49.468  0.00  0.00    +0.000 A 
ATOM      9  N   UNL     1     -10.303  54.586  47.263  0.00  0.00    +0.000 N 
ATOM     10  C   UNL     1     -12.271  55.883  46.916  0.00  0.00    +0.000 A 
ATOM     11  C   UNL     1     -13.143  57.390  48.596  0.00  0.00    +0.000 A 
ATOM     12  C   UNL     1     -13.230  56.804  47.331  0.00  0.00    +0.000 A 
ATOM     13  H   UNL     1      -9.153  53.411  50.016  0.00  0.00    +0.000 HD
ATOM     14  H   UNL     1     -10.233  54.450  46.290  0.00  0.00    +0.000 HD
ENDROOT
BRANCH   6  15
ATOM     15  C   UNL     1      -8.651  52.832  47.534  0.00  0.00    +0.000 A 
ATOM     16  C   UNL     1      -7.239  52.708  47.990  0.00  0.00    +0.000 A 
ATOM     17  C   UNL     1      -9.140  51.989  46.607  0.00  0.00    +0.000 A 
ATOM     18  O   UNL     1      -6.796  53.555  48.769  0.00  0.00    +0.000 OA
ATOM     19  N   UNL     1      -6.495  51.633  47.532  0.00  0.00    +0.000 N 
ATOM     20  C   UNL     1      -8.275  50.971  46.013  0.00  0.00    +0.000 A 
ATOM     21  C   UNL     1      -6.972  50.795  46.487  0.00  0.00    +0.000 A 
ATOM     22  C   UNL     1      -8.710  50.167  44.951  0.00  0.00    +0.000 A 
ATOM     23  N   UNL     1      -6.135  49.871  45.957  0.00  0.00    +0.000 NA
ATOM     24  C   UNL     1      -7.852  49.230  44.392  0.00  0.00    +0.000 A 
ATOM     25  C   UNL     1      -6.584  49.120  44.927  0.00  0.00    +0.000 A 
BRANCH  17  26
ATOM     26  O   UNL     1     -10.437  52.010  46.118  0.00  0.00    +0.000 OA
ATOM     27  H   UNL     1     -11.127  52.379  46.634  0.00  0.00    +0.000 HD
ENDBRANCH  17  26
BRANCH  19  28
ATOM     28  C   UNL     1      -5.105  51.487  47.974  0.00  0.00    +0.000 C 
BRANCH  28  29
ATOM     29  C   UNL     1      -4.879  50.465  49.101  0.00  0.00    +0.000 C 
BRANCH  29  30
ATOM     30  C   UNL     1      -4.702  51.044  50.517  0.00  0.00    +0.000 C 
ATOM     31  C   UNL     1      -4.066  52.434  50.506  0.00  0.00    +0.000 C 
ATOM     32  C   UNL     1      -6.070  51.112  51.206  0.00  0.00    +0.000 C 
ENDBRANCH  29  30
ENDBRANCH  28  29
ENDBRANCH  19  28
ENDBRANCH   6  15
BRANCH  11  33
ATOM     33  O   UNL     1     -14.125  58.287  48.890  0.00  0.00    +0.000 OA
BRANCH  33  34
ATOM     34  C   UNL     1     -13.767  59.301  49.833  0.00  0.00    +0.000 C 
BRANCH  34  35
ATOM     35  C   UNL     1     -14.735  59.263  51.017  0.00  0.00    +0.000 C 
ATOM     36  O   UNL     1     -15.701  60.016  51.093  0.00  0.00    +0.000 OA
ATOM     37  N   UNL     1     -14.436  58.301  51.957  0.00  0.00    +0.000 N 
ATOM     38  C   UNL     1     -15.216  58.076  53.144  0.00  0.00    +0.000 C 
ATOM     39  H   UNL     1     -13.644  57.735  51.807  0.00  0.00    +0.000 HD
ENDBRANCH  34  35
ENDBRANCH  33  34
ENDBRANCH  11  33
TORSDOF 8
ENDMDL
MODEL 9
REMARK VINA RESULT:      -6.8      4.042      7.923
REMARK  Name = 353260
REMARK  11 active torsions:
REMARK  status: ('A' for Active; 'I' for Inactive)
REMARK    1  A    between atoms: C_6  and  C_10
REMARK    2  A    between atoms: C_12  and  O_16
REMARK    3  A    between atoms: C_14  and  O_19
REMARK    4  A    between atoms: O_16  and  C_21
REMARK    5  A    between atoms: N_18  and  C_23
REMARK    6  A    between atoms: C_21  and  C_25
REMARK    7  A    between atoms: C_23  and  C_27
REMARK    8  A    between atoms: C_27  and  C_32
REMARK    9  A    between atoms: N_30  and  C_33
REMARK   10  A    between atoms: C_32  and  C_34
REMARK   11  A    between atoms: C_32  and  C_35
REMARK                            x       y       z     vdW  Elec       q    Type
REMARK                         _______ _______ _______ _____ _____    ______ ____
ROOT
ATOM      1  S   UNL     1      -6.921  50.430  51.018  0.00  0.00    +0.000 S 
ATOM      2  O   UNL     1      -6.213  49.226  50.647  0.00  0.00    +0.000 OA
ATOM      3  O   UNL     1      -7.783  50.489  52.178  0.00  0.00    +0.000 OA
ATOM      4  N   UNL     1      -7.815  50.928  49.725  0.00  0.00    +0.000 N 
ATOM      5  C   UNL     1      -5.751  51.715  51.147  0.00  0.00    +0.000 A 
ATOM      6  C   UNL     1      -7.260  51.644  48.670  0.00  0.00    +0.000 C 
ATOM      7  C   UNL     1      -5.537  52.503  50.021  0.00  0.00    +0.000 A 
ATOM      8  C   UNL     1      -5.091  51.938  52.358  0.00  0.00    +0.000 A 
ATOM      9  N   UNL     1      -6.162  52.326  48.781  0.00  0.00    +0.000 N 
ATOM     10  C   UNL     1      -4.638  53.564  50.129  0.00  0.00    +0.000 A 
ATOM     11  C   UNL     1      -4.175  52.981  52.431  0.00  0.00    +0.000 A 
ATOM     12  C   UNL     1      -3.970  53.810  51.327  0.00  0.00    +0.000 A 
ATOM     13  H   UNL     1      -8.775  50.711  49.700  0.00  0.00    +0.000 HD
ATOM     14  H   UNL     1      -5.760  52.726  47.976  0.00  0.00    +0.000 HD
ENDROOT
BRANCH   6  15
ATOM     15  C   UNL     1      -7.985  51.560  47.376  0.00  0.00    +0.000 A 
ATOM     16  C   UNL     1      -9.390  52.037  47.246  0.00  0.00    +0.000 A 
ATOM     17  C   UNL     1      -7.356  51.010  46.323  0.00  0.00    +0.000 A 
ATOM     18  O   UNL     1      -9.968  52.449  48.254  0.00  0.00    +0.000 OA
ATOM     19  N   UNL     1      -9.975  52.015  45.990  0.00  0.00    +0.000 N 
ATOM     20  C   UNL     1      -8.062  50.841  45.053  0.00  0.00    +0.000 A 
ATOM     21  C   UNL     1      -9.353  51.353  44.896  0.00  0.00    +0.000 A 
ATOM     22  C   UNL     1      -7.485  50.151  43.979  0.00  0.00    +0.000 A 
ATOM     23  N   UNL     1     -10.045  51.208  43.740  0.00  0.00    +0.000 NA
ATOM     24  C   UNL     1      -8.196  49.984  42.799  0.00  0.00    +0.000 A 
ATOM     25  C   UNL     1      -9.462  50.529  42.729  0.00  0.00    +0.000 A 
BRANCH  17  26
ATOM     26  O   UNL     1      -6.051  50.541  46.331  0.00  0.00    +0.000 OA
ATOM     27  H   UNL     1      -5.477  50.766  47.037  0.00  0.00    +0.000 HD
ENDBRANCH  17  26
BRANCH  19  28
ATOM     28  C   UNL     1     -11.354  52.487  45.837  0.00  0.00    +0.000 C 
BRANCH  28  29
ATOM     29  C   UNL     1     -11.501  53.907  45.265  0.00  0.00    +0.000 C 
BRANCH  29  30
ATOM     30  C   UNL     1     -11.514  55.055  46.292  0.00  0.00    +0.000 C 
ATOM     31  C   UNL     1     -12.226  54.673  47.589  0.00  0.00    +0.000 C 
ATOM     32  C   UNL     1     -10.070  55.467  46.602  0.00  0.00    +0.000 C 
ENDBRANCH  29  30
ENDBRANCH  28  29
ENDBRANCH  19  28
ENDBRANCH   6  15
BRANCH  11  33
ATOM     33  O   UNL     1      -3.460  53.305  53.543  0.00  0.00    +0.000 OA
BRANCH  33  34
ATOM     34  C   UNL     1      -3.698  54.615  54.067  0.00  0.00    +0.000 C 
BRANCH  34  35
ATOM     35  C   UNL     1      -5.193  54.792  54.339  0.00  0.00    +0.000 C 
ATOM     36  O   UNL     1      -5.791  54.107  55.164  0.00  0.00    +0.000 OA
ATOM     37  N   UNL     1      -5.785  55.793  53.600  0.00  0.00    +0.000 N 
ATOM     38  C   UNL     1      -7.175  56.144  53.703  0.00  0.00    +0.000 C 
ATOM     39  H   UNL     1      -5.224  56.298  52.968  0.00  0.00    +0.000 HD
ENDBRANCH  34  35
ENDBRANCH  33  34
ENDBRANCH  11  33
TORSDOF 8
ENDMDL
