MODEL 1
REMARK VINA RESULT:      -8.0      0.000      0.000
REMARK  Name = 352901
REMARK  8 active torsions:
REMARK  status: ('A' for Active; 'I' for Inactive)
REMARK    1  A    between atoms: C_6  and  C_10
REMARK    2  A    between atoms: C_12  and  O_16
REMARK    3  A    between atoms: C_14  and  O_19
REMARK    4  A    between atoms: N_18  and  C_22
REMARK    5  A    between atoms: C_22  and  C_25
REMARK    6  A    between atoms: C_25  and  C_28
REMARK    7  A    between atoms: C_28  and  C_29
REMARK    8  A    between atoms: C_28  and  C_30
REMARK                            x       y       z     vdW  Elec       q    Type
REMARK                         _______ _______ _______ _____ _____    ______ ____
ROOT
ATOM      1  C   UNL     1     -10.316  55.586  50.590  0.00  0.00    +0.000 A 
ATOM      2  C   UNL     1      -9.954  55.838  49.163  0.00  0.00    +0.000 A 
ATOM      3  C   UNL     1     -11.610  55.809  50.908  0.00  0.00    +0.000 A 
ATOM      4  O   UNL     1      -8.839  56.240  48.848  0.00  0.00    +0.000 OA
ATOM      5  N   UNL     1     -10.932  55.344  48.270  0.00  0.00    +0.000 N 
ATOM      6  C   UNL     1     -12.501  56.307  49.866  0.00  0.00    +0.000 A 
ATOM      7  C   UNL     1     -12.204  55.977  48.529  0.00  0.00    +0.000 A 
ATOM      8  C   UNL     1     -13.591  57.124  50.150  0.00  0.00    +0.000 A 
ATOM      9  N   UNL     1     -12.930  56.445  47.494  0.00  0.00    +0.000 NA
ATOM     10  C   UNL     1     -14.308  57.663  49.094  0.00  0.00    +0.000 A 
ATOM     11  C   UNL     1     -13.944  57.297  47.803  0.00  0.00    +0.000 A 
ENDROOT
BRANCH   1  17
ATOM     12  S   UNL     1      -7.165  55.011  52.736  0.00  0.00    +0.000 S 
ATOM     13  O   UNL     1      -5.955  54.719  51.999  0.00  0.00    +0.000 OA
ATOM     14  O   UNL     1      -7.151  55.964  53.832  0.00  0.00    +0.000 OA
ATOM     15  N   UNL     1      -8.271  55.496  51.687  0.00  0.00    +0.000 N 
ATOM     16  C   UNL     1      -7.710  53.503  53.425  0.00  0.00    +0.000 A 
ATOM     17  C   UNL     1      -9.382  54.850  51.499  0.00  0.00    +0.000 C 
ATOM     18  C   UNL     1      -8.953  53.002  53.045  0.00  0.00    +0.000 A 
ATOM     19  C   UNL     1      -6.864  52.876  54.338  0.00  0.00    +0.000 A 
ATOM     20  N   UNL     1      -9.748  53.667  52.107  0.00  0.00    +0.000 N 
ATOM     21  C   UNL     1      -9.349  51.798  53.638  0.00  0.00    +0.000 A 
ATOM     22  C   UNL     1      -7.281  51.692  54.910  0.00  0.00    +0.000 A 
ATOM     23  C   UNL     1      -8.518  51.149  54.569  0.00  0.00    +0.000 A 
ATOM     24  H   UNL     1      -8.102  56.314  51.164  0.00  0.00    +0.000 HD
ATOM     25  H   UNL     1     -10.616  53.269  51.867  0.00  0.00    +0.000 HD
BRANCH  22  26
ATOM     26  O   UNL     1      -6.501  51.044  55.815  0.00  0.00    +0.000 OA
ATOM     27  H   UNL     1      -6.889  50.644  56.568  0.00  0.00    +0.000 HD
ENDBRANCH  22  26
ENDBRANCH   1  17
BRANCH   3  28
ATOM     28  O   UNL     1     -12.225  55.488  52.096  0.00  0.00    +0.000 OA
ATOM     29  H   UNL     1     -13.075  55.832  52.292  0.00  0.00    +0.000 HD
ENDBRANCH   3  28
BRANCH   5  30
ATOM     30  C   UNL     1     -10.966  53.865  48.355  0.00  0.00    +0.000 C 
BRANCH  30  31
ATOM     31  C   UNL     1     -10.701  53.072  47.084  0.00  0.00    +0.000 C 
BRANCH  31  32
ATOM     32  C   UNL     1     -10.485  53.929  45.827  0.00  0.00    +0.000 C 
ATOM     33  C   UNL     1      -9.009  54.071  45.440  0.00  0.00    +0.000 C 
ATOM     34  C   UNL     1     -11.262  53.320  44.659  0.00  0.00    +0.000 C 
ENDBRANCH  31  32
ENDBRANCH  30  31
ENDBRANCH   5  30
TORSDOF 6
ENDMDL
MODEL 2
REMARK VINA RESULT:      -7.9      3.271      6.753
REMARK  Name = 352901
REMARK  8 active torsions:
REMARK  status: ('A' for Active; 'I' for Inactive)
REMARK    1  A    between atoms: C_6  and  C_10
REMARK    2  A    between atoms: C_12  and  O_16
REMARK    3  A    between atoms: C_14  and  O_19
REMARK    4  A    between atoms: N_18  and  C_22
REMARK    5  A    between atoms: C_22  and  C_25
REMARK    6  A    between atoms: C_25  and  C_28
REMARK    7  A    between atoms: C_28  and  C_29
REMARK    8  A    between atoms: C_28  and  C_30
REMARK                            x       y       z     vdW  Elec       q    Type
REMARK                         _______ _______ _______ _____ _____    ______ ____
ROOT
ATOM      1  C   UNL     1     -12.553  54.549  49.524  0.00  0.00    +0.000 A 
ATOM      2  C   UNL     1     -12.364  54.208  50.965  0.00  0.00    +0.000 A 
ATOM      3  C   UNL     1     -13.210  55.704  49.283  0.00  0.00    +0.000 A 
ATOM      4  O   UNL     1     -12.341  53.043  51.348  0.00  0.00    +0.000 OA
ATOM      5  N   UNL     1     -11.993  55.332  51.736  0.00  0.00    +0.000 N 
ATOM      6  C   UNL     1     -13.703  56.469  50.424  0.00  0.00    +0.000 A 
ATOM      7  C   UNL     1     -13.013  56.352  51.645  0.00  0.00    +0.000 A 
ATOM      8  C   UNL     1     -14.847  57.259  50.349  0.00  0.00    +0.000 A 
ATOM      9  N   UNL     1     -13.431  56.967  52.770  0.00  0.00    +0.000 NA
ATOM     10  C   UNL     1     -15.323  57.845  51.511  0.00  0.00    +0.000 A 
ATOM     11  C   UNL     1     -14.589  57.674  52.678  0.00  0.00    +0.000 A 
ENDROOT
BRANCH   1  17
ATOM     12  S   UNL     1     -11.710  51.666  47.107  0.00  0.00    +0.000 S 
ATOM     13  O   UNL     1     -11.077  50.513  47.711  0.00  0.00    +0.000 OA
ATOM     14  O   UNL     1     -12.797  51.501  46.160  0.00  0.00    +0.000 OA
ATOM     15  N   UNL     1     -12.234  52.609  48.287  0.00  0.00    +0.000 N 
ATOM     16  C   UNL     1     -10.460  52.532  46.250  0.00  0.00    +0.000 A 
ATOM     17  C   UNL     1     -11.796  53.820  48.458  0.00  0.00    +0.000 C 
ATOM     18  C   UNL     1     -10.159  53.835  46.639  0.00  0.00    +0.000 A 
ATOM     19  C   UNL     1      -9.826  51.867  45.202  0.00  0.00    +0.000 A 
ATOM     20  N   UNL     1     -10.815  54.442  47.714  0.00  0.00    +0.000 N 
ATOM     21  C   UNL     1      -9.160  54.491  45.910  0.00  0.00    +0.000 A 
ATOM     22  C   UNL     1      -8.848  52.538  44.498  0.00  0.00    +0.000 A 
ATOM     23  C   UNL     1      -8.512  53.845  44.841  0.00  0.00    +0.000 A 
ATOM     24  H   UNL     1     -12.914  52.257  48.908  0.00  0.00    +0.000 HD
ATOM     25  H   UNL     1     -10.562  55.363  47.954  0.00  0.00    +0.000 HD
BRANCH  22  26
ATOM     26  O   UNL     1      -8.206  51.941  43.458  0.00  0.00    +0.000 OA
ATOM     27  H   UNL     1      -7.319  52.168  43.262  0.00  0.00    +0.000 HD
ENDBRANCH  22  26
ENDBRANCH   1  17
BRANCH   3  28
ATOM     28  O   UNL     1     -13.356  56.322  48.062  0.00  0.00    +0.000 OA
ATOM     29  H   UNL     1     -14.107  56.856  47.894  0.00  0.00    +0.000 HD
ENDBRANCH   3  28
BRANCH   5  30
ATOM     30  C   UNL     1     -10.647  55.788  51.316  0.00  0.00    +0.000 C 
BRANCH  30  31
ATOM     31  C   UNL     1      -9.441  55.021  51.838  0.00  0.00    +0.000 C 
BRANCH  31  32
ATOM     32  C   UNL     1      -9.466  54.737  53.347  0.00  0.00    +0.000 C 
ATOM     33  C   UNL     1      -9.646  53.251  53.678  0.00  0.00    +0.000 C 
ATOM     34  C   UNL     1      -8.170  55.246  53.980  0.00  0.00    +0.000 C 
ENDBRANCH  31  32
ENDBRANCH  30  31
ENDBRANCH   5  30
TORSDOF 6
ENDMDL
MODEL 3
REMARK VINA RESULT:      -7.6      3.073      7.530
REMARK  Name = 352901
REMARK  8 active torsions:
REMARK  status: ('A' for Active; 'I' for Inactive)
REMARK    1  A    between atoms: C_6  and  C_10
REMARK    2  A    between atoms: C_12  and  O_16
REMARK    3  A    between atoms: C_14  and  O_19
REMARK    4  A    between atoms: N_18  and  C_22
REMARK    5  A    between atoms: C_22  and  C_25
REMARK    6  A    between atoms: C_25  and  C_28
REMARK    7  A    between atoms: C_28  and  C_29
REMARK    8  A    between atoms: C_28  and  C_30
REMARK                            x       y       z     vdW  Elec       q    Type
REMARK                         _______ _______ _______ _____ _____    ______ ____
ROOT
ATOM      1  C   UNL     1      -6.874  54.956  50.121  0.00  0.00    +0.000 A 
ATOM      2  C   UNL     1      -7.361  55.990  51.081  0.00  0.00    +0.000 A 
ATOM      3  C   UNL     1      -5.871  54.172  50.573  0.00  0.00    +0.000 A 
ATOM      4  O   UNL     1      -7.789  57.071  50.693  0.00  0.00    +0.000 OA
ATOM      5  N   UNL     1      -7.481  55.484  52.395  0.00  0.00    +0.000 N 
ATOM      6  C   UNL     1      -5.339  54.432  51.906  0.00  0.00    +0.000 A 
ATOM      7  C   UNL     1      -6.200  55.006  52.860  0.00  0.00    +0.000 A 
ATOM      8  C   UNL     1      -4.012  54.174  52.238  0.00  0.00    +0.000 A 
ATOM      9  N   UNL     1      -5.781  55.343  54.097  0.00  0.00    +0.000 NA
ATOM     10  C   UNL     1      -3.551  54.573  53.482  0.00  0.00    +0.000 A 
ATOM     11  C   UNL     1      -4.462  55.143  54.364  0.00  0.00    +0.000 A 
ENDROOT
BRANCH   1  17
ATOM     12  S   UNL     1      -7.458  53.788  46.494  0.00  0.00    +0.000 S 
ATOM     13  O   UNL     1      -7.104  54.744  45.467  0.00  0.00    +0.000 OA
ATOM     14  O   UNL     1      -7.071  52.394  46.370  0.00  0.00    +0.000 OA
ATOM     15  N   UNL     1      -6.884  54.329  47.884  0.00  0.00    +0.000 N 
ATOM     16  C   UNL     1      -9.201  53.789  46.600  0.00  0.00    +0.000 A 
ATOM     17  C   UNL     1      -7.655  54.627  48.887  0.00  0.00    +0.000 C 
ATOM     18  C   UNL     1      -9.799  54.170  47.799  0.00  0.00    +0.000 A 
ATOM     19  C   UNL     1      -9.910  53.395  45.467  0.00  0.00    +0.000 A 
ATOM     20  N   UNL     1      -9.033  54.577  48.896  0.00  0.00    +0.000 N 
ATOM     21  C   UNL     1     -11.197  54.139  47.837  0.00  0.00    +0.000 A 
ATOM     22  C   UNL     1     -11.288  53.370  45.534  0.00  0.00    +0.000 A 
ATOM     23  C   UNL     1     -11.937  53.736  46.710  0.00  0.00    +0.000 A 
ATOM     24  H   UNL     1      -5.910  54.441  47.983  0.00  0.00    +0.000 HD
ATOM     25  H   UNL     1      -9.504  54.843  49.719  0.00  0.00    +0.000 HD
BRANCH  22  26
ATOM     26  O   UNL     1     -12.028  52.982  44.461  0.00  0.00    +0.000 OA
ATOM     27  H   UNL     1     -12.512  53.618  43.971  0.00  0.00    +0.000 HD
ENDBRANCH  22  26
ENDBRANCH   1  17
BRANCH   3  28
ATOM     28  O   UNL     1      -5.372  53.047  49.955  0.00  0.00    +0.000 OA
ATOM     29  H   UNL     1      -4.948  53.119  49.123  0.00  0.00    +0.000 HD
ENDBRANCH   3  28
BRANCH   5  30
ATOM     30  C   UNL     1      -8.552  54.460  52.426  0.00  0.00    +0.000 C 
BRANCH  30  31
ATOM     31  C   UNL     1      -9.947  54.902  52.845  0.00  0.00    +0.000 C 
BRANCH  31  32
ATOM     32  C   UNL     1     -11.004  54.830  51.732  0.00  0.00    +0.000 C 
ATOM     33  C   UNL     1     -11.565  53.419  51.525  0.00  0.00    +0.000 C 
ATOM     34  C   UNL     1     -12.148  55.791  52.057  0.00  0.00    +0.000 C 
ENDBRANCH  31  32
ENDBRANCH  30  31
ENDBRANCH   5  30
TORSDOF 6
ENDMDL
MODEL 4
REMARK VINA RESULT:      -7.5      3.247      6.287
REMARK  Name = 352901
REMARK  8 active torsions:
REMARK  status: ('A' for Active; 'I' for Inactive)
REMARK    1  A    between atoms: C_6  and  C_10
REMARK    2  A    between atoms: C_12  and  O_16
REMARK    3  A    between atoms: C_14  and  O_19
REMARK    4  A    between atoms: N_18  and  C_22
REMARK    5  A    between atoms: C_22  and  C_25
REMARK    6  A    between atoms: C_25  and  C_28
REMARK    7  A    between atoms: C_28  and  C_29
REMARK    8  A    between atoms: C_28  and  C_30
REMARK                            x       y       z     vdW  Elec       q    Type
REMARK                         _______ _______ _______ _____ _____    ______ ____
ROOT
ATOM      1  C   UNL     1     -12.180  54.515  49.027  0.00  0.00    +0.000 A 
ATOM      2  C   UNL     1     -12.133  54.047  50.443  0.00  0.00    +0.000 A 
ATOM      3  C   UNL     1     -12.969  55.586  48.796  0.00  0.00    +0.000 A 
ATOM      4  O   UNL     1     -11.982  52.862  50.720  0.00  0.00    +0.000 OA
ATOM      5  N   UNL     1     -12.046  55.121  51.358  0.00  0.00    +0.000 N 
ATOM      6  C   UNL     1     -13.721  56.144  49.915  0.00  0.00    +0.000 A 
ATOM      7  C   UNL     1     -13.189  55.992  51.210  0.00  0.00    +0.000 A 
ATOM      8  C   UNL     1     -14.952  56.770  49.744  0.00  0.00    +0.000 A 
ATOM      9  N   UNL     1     -13.842  56.414  52.311  0.00  0.00    +0.000 NA
ATOM     10  C   UNL     1     -15.663  57.152  50.870  0.00  0.00    +0.000 A 
ATOM     11  C   UNL     1     -15.073  56.957  52.112  0.00  0.00    +0.000 A 
ENDROOT
BRANCH   1  17
ATOM     12  S   UNL     1      -8.857  53.033  47.752  0.00  0.00    +0.000 S 
ATOM     13  O   UNL     1      -7.731  53.942  47.747  0.00  0.00    +0.000 OA
ATOM     14  O   UNL     1      -8.710  51.679  48.256  0.00  0.00    +0.000 OA
ATOM     15  N   UNL     1     -10.043  53.729  48.568  0.00  0.00    +0.000 N 
ATOM     16  C   UNL     1      -9.377  52.869  46.094  0.00  0.00    +0.000 A 
ATOM     17  C   UNL     1     -11.185  54.021  48.023  0.00  0.00    +0.000 C 
ATOM     18  C   UNL     1     -10.664  53.275  45.751  0.00  0.00    +0.000 A 
ATOM     19  C   UNL     1      -8.466  52.324  45.190  0.00  0.00    +0.000 A 
ATOM     20  N   UNL     1     -11.526  53.835  46.700  0.00  0.00    +0.000 N 
ATOM     21  C   UNL     1     -11.037  53.108  44.413  0.00  0.00    +0.000 A 
ATOM     22  C   UNL     1      -8.861  52.167  43.878  0.00  0.00    +0.000 A 
ATOM     23  C   UNL     1     -10.140  52.552  43.482  0.00  0.00    +0.000 A 
ATOM     24  H   UNL     1      -9.901  53.944  49.519  0.00  0.00    +0.000 HD
ATOM     25  H   UNL     1     -12.424  54.112  46.406  0.00  0.00    +0.000 HD
BRANCH  22  26
ATOM     26  O   UNL     1      -8.017  51.630  42.957  0.00  0.00    +0.000 OA
ATOM     27  H   UNL     1      -7.518  50.865  43.168  0.00  0.00    +0.000 HD
ENDBRANCH  22  26
ENDBRANCH   1  17
BRANCH   3  28
ATOM     28  O   UNL     1     -13.046  56.308  47.626  0.00  0.00    +0.000 OA
ATOM     29  H   UNL     1     -13.841  56.316  47.132  0.00  0.00    +0.000 HD
ENDBRANCH   3  28
BRANCH   5  30
ATOM     30  C   UNL     1     -10.742  55.804  51.183  0.00  0.00    +0.000 C 
BRANCH  30  31
ATOM     31  C   UNL     1      -9.509  55.152  51.793  0.00  0.00    +0.000 C 
BRANCH  31  32
ATOM     32  C   UNL     1      -8.176  55.798  51.388  0.00  0.00    +0.000 C 
ATOM     33  C   UNL     1      -7.052  54.777  51.176  0.00  0.00    +0.000 C 
ATOM     34  C   UNL     1      -8.374  56.611  50.109  0.00  0.00    +0.000 C 
ENDBRANCH  31  32
ENDBRANCH  30  31
ENDBRANCH   5  30
TORSDOF 6
ENDMDL
MODEL 5
REMARK VINA RESULT:      -7.5      3.074      7.284
REMARK  Name = 352901
REMARK  8 active torsions:
REMARK  status: ('A' for Active; 'I' for Inactive)
REMARK    1  A    between atoms: C_6  and  C_10
REMARK    2  A    between atoms: C_12  and  O_16
REMARK    3  A    between atoms: C_14  and  O_19
REMARK    4  A    between atoms: N_18  and  C_22
REMARK    5  A    between atoms: C_22  and  C_25
REMARK    6  A    between atoms: C_25  and  C_28
REMARK    7  A    between atoms: C_28  and  C_29
REMARK    8  A    between atoms: C_28  and  C_30
REMARK                            x       y       z     vdW  Elec       q    Type
REMARK                         _______ _______ _______ _____ _____    ______ ____
ROOT
ATOM      1  C   UNL     1      -8.538  55.158  50.313  0.00  0.00    +0.000 A 
ATOM      2  C   UNL     1      -7.683  56.092  51.103  0.00  0.00    +0.000 A 
ATOM      3  C   UNL     1      -7.975  53.966  50.018  0.00  0.00    +0.000 A 
ATOM      4  O   UNL     1      -7.765  57.308  50.961  0.00  0.00    +0.000 OA
ATOM      5  N   UNL     1      -6.989  55.432  52.143  0.00  0.00    +0.000 N 
ATOM      6  C   UNL     1      -6.602  53.726  50.447  0.00  0.00    +0.000 A 
ATOM      7  C   UNL     1      -6.141  54.400  51.594  0.00  0.00    +0.000 A 
ATOM      8  C   UNL     1      -5.737  52.898  49.737  0.00  0.00    +0.000 A 
ATOM      9  N   UNL     1      -4.869  54.293  52.029  0.00  0.00    +0.000 NA
ATOM     10  C   UNL     1      -4.411  52.829  50.135  0.00  0.00    +0.000 A 
ATOM     11  C   UNL     1      -4.033  53.533  51.272  0.00  0.00    +0.000 A 
ENDROOT
BRANCH   1  17
ATOM     12  S   UNL     1     -11.971  55.128  48.560  0.00  0.00    +0.000 S 
ATOM     13  O   UNL     1     -12.139  56.102  47.503  0.00  0.00    +0.000 OA
ATOM     14  O   UNL     1     -12.403  53.754  48.373  0.00  0.00    +0.000 OA
ATOM     15  N   UNL     1     -10.423  55.100  48.957  0.00  0.00    +0.000 N 
ATOM     16  C   UNL     1     -12.863  55.724  49.936  0.00  0.00    +0.000 A 
ATOM     17  C   UNL     1     -10.003  55.417  50.145  0.00  0.00    +0.000 C 
ATOM     18  C   UNL     1     -12.172  56.011  51.111  0.00  0.00    +0.000 A 
ATOM     19  C   UNL     1     -14.241  55.875  49.788  0.00  0.00    +0.000 A 
ATOM     20  N   UNL     1     -10.784  55.859  51.192  0.00  0.00    +0.000 N 
ATOM     21  C   UNL     1     -12.935  56.471  52.189  0.00  0.00    +0.000 A 
ATOM     22  C   UNL     1     -14.969  56.327  50.869  0.00  0.00    +0.000 A 
ATOM     23  C   UNL     1     -14.329  56.623  52.069  0.00  0.00    +0.000 A 
ATOM     24  H   UNL     1      -9.763  54.833  48.275  0.00  0.00    +0.000 HD
ATOM     25  H   UNL     1     -10.340  56.081  52.043  0.00  0.00    +0.000 HD
BRANCH  22  26
ATOM     26  O   UNL     1     -16.318  56.481  50.782  0.00  0.00    +0.000 OA
ATOM     27  H   UNL     1     -16.744  57.158  51.270  0.00  0.00    +0.000 HD
ENDBRANCH  22  26
ENDBRANCH   1  17
BRANCH   3  28
ATOM     28  O   UNL     1      -8.610  52.879  49.461  0.00  0.00    +0.000 OA
ATOM     29  H   UNL     1      -9.506  52.944  49.196  0.00  0.00    +0.000 HD
ENDBRANCH   3  28
BRANCH   5  30
ATOM     30  C   UNL     1      -7.966  54.939  53.142  0.00  0.00    +0.000 C 
BRANCH  30  31
ATOM     31  C   UNL     1      -7.620  53.672  53.911  0.00  0.00    +0.000 C 
BRANCH  31  32
ATOM     32  C   UNL     1      -8.620  52.520  53.732  0.00  0.00    +0.000 C 
ATOM     33  C   UNL     1      -9.926  52.954  53.059  0.00  0.00    +0.000 C 
ATOM     34  C   UNL     1      -7.969  51.406  52.911  0.00  0.00    +0.000 C 
ENDBRANCH  31  32
ENDBRANCH  30  31
ENDBRANCH   5  30
TORSDOF 6
ENDMDL
MODEL 6
REMARK VINA RESULT:      -7.4      2.178      4.727
REMARK  Name = 352901
REMARK  8 active torsions:
REMARK  status: ('A' for Active; 'I' for Inactive)
REMARK    1  A    between atoms: C_6  and  C_10
REMARK    2  A    between atoms: C_12  and  O_16
REMARK    3  A    between atoms: C_14  and  O_19
REMARK    4  A    between atoms: N_18  and  C_22
REMARK    5  A    between atoms: C_22  and  C_25
REMARK    6  A    between atoms: C_25  and  C_28
REMARK    7  A    between atoms: C_28  and  C_29
REMARK    8  A    between atoms: C_28  and  C_30
REMARK                            x       y       z     vdW  Elec       q    Type
REMARK                         _______ _______ _______ _____ _____    ______ ____
ROOT
ATOM      1  C   UNL     1      -9.495  53.207  48.369  0.00  0.00    +0.000 A 
ATOM      2  C   UNL     1     -10.919  52.978  47.985  0.00  0.00    +0.000 A 
ATOM      3  C   UNL     1      -8.626  53.307  47.340  0.00  0.00    +0.000 A 
ATOM      4  O   UNL     1     -11.675  52.324  48.695  0.00  0.00    +0.000 OA
ATOM      5  N   UNL     1     -11.311  53.776  46.886  0.00  0.00    +0.000 N 
ATOM      6  C   UNL     1      -9.139  53.139  45.984  0.00  0.00    +0.000 A 
ATOM      7  C   UNL     1     -10.483  53.480  45.740  0.00  0.00    +0.000 A 
ATOM      8  C   UNL     1      -8.361  52.616  44.956  0.00  0.00    +0.000 A 
ATOM      9  N   UNL     1     -11.064  53.298  44.537  0.00  0.00    +0.000 NA
ATOM     10  C   UNL     1      -8.962  52.364  43.733  0.00  0.00    +0.000 A 
ATOM     11  C   UNL     1     -10.296  52.720  43.576  0.00  0.00    +0.000 A 
ENDROOT
BRANCH   1  17
ATOM     12  S   UNL     1     -10.074  54.046  52.087  0.00  0.00    +0.000 S 
ATOM     13  O   UNL     1     -10.644  55.350  52.349  0.00  0.00    +0.000 OA
ATOM     14  O   UNL     1     -10.577  52.869  52.772  0.00  0.00    +0.000 OA
ATOM     15  N   UNL     1     -10.180  53.775  50.515  0.00  0.00    +0.000 N 
ATOM     16  C   UNL     1      -8.381  54.147  52.497  0.00  0.00    +0.000 A 
ATOM     17  C   UNL     1      -9.132  53.603  49.766  0.00  0.00    +0.000 C 
ATOM     18  C   UNL     1      -7.435  53.936  51.498  0.00  0.00    +0.000 A 
ATOM     19  C   UNL     1      -8.061  54.431  53.825  0.00  0.00    +0.000 A 
ATOM     20  N   UNL     1      -7.818  53.676  50.178  0.00  0.00    +0.000 N 
ATOM     21  C   UNL     1      -6.091  54.013  51.882  0.00  0.00    +0.000 A 
ATOM     22  C   UNL     1      -6.729  54.497  54.176  0.00  0.00    +0.000 A 
ATOM     23  C   UNL     1      -5.742  54.288  53.217  0.00  0.00    +0.000 A 
ATOM     24  H   UNL     1     -11.072  53.737  50.099  0.00  0.00    +0.000 HD
ATOM     25  H   UNL     1      -7.111  53.540  49.507  0.00  0.00    +0.000 HD
BRANCH  22  26
ATOM     26  O   UNL     1      -6.361  54.758  55.459  0.00  0.00    +0.000 OA
ATOM     27  H   UNL     1      -6.306  55.644  55.760  0.00  0.00    +0.000 HD
ENDBRANCH  22  26
ENDBRANCH   1  17
BRANCH   3  28
ATOM     28  O   UNL     1      -7.306  53.687  47.420  0.00  0.00    +0.000 OA
ATOM     29  H   UNL     1      -6.647  53.193  46.972  0.00  0.00    +0.000 HD
ENDBRANCH   3  28
BRANCH   5  30
ATOM     30  C   UNL     1     -11.293  55.202  47.290  0.00  0.00    +0.000 C 
BRANCH  30  31
ATOM     31  C   UNL     1     -12.529  56.040  46.996  0.00  0.00    +0.000 C 
BRANCH  31  32
ATOM     32  C   UNL     1     -13.308  56.492  48.241  0.00  0.00    +0.000 C 
ATOM     33  C   UNL     1     -12.457  56.500  49.515  0.00  0.00    +0.000 C 
ATOM     34  C   UNL     1     -13.881  57.889  48.001  0.00  0.00    +0.000 C 
ENDBRANCH  31  32
ENDBRANCH  30  31
ENDBRANCH   5  30
TORSDOF 6
ENDMDL
MODEL 7
REMARK VINA RESULT:      -7.4      3.676      6.079
REMARK  Name = 352901
REMARK  8 active torsions:
REMARK  status: ('A' for Active; 'I' for Inactive)
REMARK    1  A    between atoms: C_6  and  C_10
REMARK    2  A    between atoms: C_12  and  O_16
REMARK    3  A    between atoms: C_14  and  O_19
REMARK    4  A    between atoms: N_18  and  C_22
REMARK    5  A    between atoms: C_22  and  C_25
REMARK    6  A    between atoms: C_25  and  C_28
REMARK    7  A    between atoms: C_28  and  C_29
REMARK    8  A    between atoms: C_28  and  C_30
REMARK                            x       y       z     vdW  Elec       q    Type
REMARK                         _______ _______ _______ _____ _____    ______ ____
ROOT
ATOM      1  C   UNL     1     -11.859  54.017  47.479  0.00  0.00    +0.000 A 
ATOM      2  C   UNL     1     -11.480  54.882  46.323  0.00  0.00    +0.000 A 
ATOM      3  C   UNL     1     -11.583  52.703  47.336  0.00  0.00    +0.000 A 
ATOM      4  O   UNL     1     -12.127  55.882  46.034  0.00  0.00    +0.000 OA
ATOM      5  N   UNL     1     -10.212  54.544  45.797  0.00  0.00    +0.000 N 
ATOM      6  C   UNL     1     -10.996  52.254  46.078  0.00  0.00    +0.000 A 
ATOM      7  C   UNL     1     -10.212  53.170  45.351  0.00  0.00    +0.000 A 
ATOM      8  C   UNL     1     -11.227  50.981  45.563  0.00  0.00    +0.000 A 
ATOM      9  N   UNL     1      -9.684  52.869  44.147  0.00  0.00    +0.000 NA
ATOM     10  C   UNL     1     -10.744  50.680  44.300  0.00  0.00    +0.000 A 
ATOM     11  C   UNL     1      -9.987  51.643  43.643  0.00  0.00    +0.000 A 
ENDROOT
BRANCH   1  17
ATOM     12  S   UNL     1     -11.451  54.927  51.203  0.00  0.00    +0.000 S 
ATOM     13  O   UNL     1     -11.698  53.851  52.138  0.00  0.00    +0.000 OA
ATOM     14  O   UNL     1     -10.296  55.792  51.362  0.00  0.00    +0.000 OA
ATOM     15  N   UNL     1     -11.385  54.295  49.736  0.00  0.00    +0.000 N 
ATOM     16  C   UNL     1     -12.843  55.978  51.268  0.00  0.00    +0.000 A 
ATOM     17  C   UNL     1     -12.225  54.619  48.800  0.00  0.00    +0.000 C 
ATOM     18  C   UNL     1     -13.606  56.153  50.116  0.00  0.00    +0.000 A 
ATOM     19  C   UNL     1     -13.118  56.600  52.485  0.00  0.00    +0.000 A 
ATOM     20  N   UNL     1     -13.293  55.483  48.929  0.00  0.00    +0.000 N 
ATOM     21  C   UNL     1     -14.702  57.017  50.217  0.00  0.00    +0.000 A 
ATOM     22  C   UNL     1     -14.202  57.449  52.555  0.00  0.00    +0.000 A 
ATOM     23  C   UNL     1     -14.995  57.665  51.431  0.00  0.00    +0.000 A 
ATOM     24  H   UNL     1     -10.682  53.634  49.536  0.00  0.00    +0.000 HD
ATOM     25  H   UNL     1     -13.866  55.636  48.143  0.00  0.00    +0.000 HD
BRANCH  22  26
ATOM     26  O   UNL     1     -14.508  58.091  53.714  0.00  0.00    +0.000 OA
ATOM     27  H   UNL     1     -14.782  57.601  54.464  0.00  0.00    +0.000 HD
ENDBRANCH  22  26
ENDBRANCH   1  17
BRANCH   3  28
ATOM     28  O   UNL     1     -11.672  51.737  48.313  0.00  0.00    +0.000 OA
ATOM     29  H   UNL     1     -12.470  51.260  48.428  0.00  0.00    +0.000 HD
ENDBRANCH   3  28
BRANCH   5  30
ATOM     30  C   UNL     1      -9.170  54.849  46.806  0.00  0.00    +0.000 C 
BRANCH  30  31
ATOM     31  C   UNL     1      -7.724  54.534  46.453  0.00  0.00    +0.000 C 
BRANCH  31  32
ATOM     32  C   UNL     1      -6.958  53.746  47.527  0.00  0.00    +0.000 C 
ATOM     33  C   UNL     1      -6.267  54.647  48.556  0.00  0.00    +0.000 C 
ATOM     34  C   UNL     1      -7.921  52.798  48.243  0.00  0.00    +0.000 C 
ENDBRANCH  31  32
ENDBRANCH  30  31
ENDBRANCH   5  30
TORSDOF 6
ENDMDL
MODEL 8
REMARK VINA RESULT:      -7.4      3.796      6.536
REMARK  Name = 352901
REMARK  8 active torsions:
REMARK  status: ('A' for Active; 'I' for Inactive)
REMARK    1  A    between atoms: C_6  and  C_10
REMARK    2  A    between atoms: C_12  and  O_16
REMARK    3  A    between atoms: C_14  and  O_19
REMARK    4  A    between atoms: N_18  and  C_22
REMARK    5  A    between atoms: C_22  and  C_25
REMARK    6  A    between atoms: C_25  and  C_28
REMARK    7  A    between atoms: C_28  and  C_29
REMARK    8  A    between atoms: C_28  and  C_30
REMARK                            x       y       z     vdW  Elec       q    Type
REMARK                         _______ _______ _______ _____ _____    ______ ____
ROOT
ATOM      1  C   UNL     1     -10.221  54.177  47.069  0.00  0.00    +0.000 A 
ATOM      2  C   UNL     1      -8.837  53.696  47.355  0.00  0.00    +0.000 A 
ATOM      3  C   UNL     1     -10.742  53.775  45.889  0.00  0.00    +0.000 A 
ATOM      4  O   UNL     1      -8.048  54.371  48.008  0.00  0.00    +0.000 OA
ATOM      5  N   UNL     1      -8.660  52.339  47.002  0.00  0.00    +0.000 N 
ATOM      6  C   UNL     1      -9.908  52.966  45.006  0.00  0.00    +0.000 A 
ATOM      7  C   UNL     1      -8.917  52.157  45.592  0.00  0.00    +0.000 A 
ATOM      8  C   UNL     1     -10.035  53.009  43.621  0.00  0.00    +0.000 A 
ATOM      9  N   UNL     1      -8.056  51.426  44.856  0.00  0.00    +0.000 NA
ATOM     10  C   UNL     1      -9.118  52.314  42.850  0.00  0.00    +0.000 A 
ATOM     11  C   UNL     1      -8.163  51.546  43.505  0.00  0.00    +0.000 A 
ENDROOT
BRANCH   1  17
ATOM     12  S   UNL     1     -11.434  54.869  50.662  0.00  0.00    +0.000 S 
ATOM     13  O   UNL     1     -12.237  53.825  51.259  0.00  0.00    +0.000 OA
ATOM     14  O   UNL     1     -10.367  55.503  51.415  0.00  0.00    +0.000 OA
ATOM     15  N   UNL     1     -10.798  54.287  49.316  0.00  0.00    +0.000 N 
ATOM     16  C   UNL     1     -12.530  56.154  50.220  0.00  0.00    +0.000 A 
ATOM     17  C   UNL     1     -11.057  54.791  48.147  0.00  0.00    +0.000 C 
ATOM     18  C   UNL     1     -12.645  56.505  48.877  0.00  0.00    +0.000 A 
ATOM     19  C   UNL     1     -13.236  56.774  51.250  0.00  0.00    +0.000 A 
ATOM     20  N   UNL     1     -11.925  55.831  47.885  0.00  0.00    +0.000 N 
ATOM     21  C   UNL     1     -13.525  57.551  48.577  0.00  0.00    +0.000 A 
ATOM     22  C   UNL     1     -14.094  57.804  50.926  0.00  0.00    +0.000 A 
ATOM     23  C   UNL     1     -14.243  58.199  49.599  0.00  0.00    +0.000 A 
ATOM     24  H   UNL     1     -10.187  53.516  49.376  0.00  0.00    +0.000 HD
ATOM     25  H   UNL     1     -12.045  56.113  46.950  0.00  0.00    +0.000 HD
BRANCH  22  26
ATOM     26  O   UNL     1     -14.799  58.451  51.892  0.00  0.00    +0.000 OA
ATOM     27  H   UNL     1     -14.759  59.385  51.955  0.00  0.00    +0.000 HD
ENDBRANCH  22  26
ENDBRANCH   1  17
BRANCH   3  28
ATOM     28  O   UNL     1     -12.045  53.935  45.475  0.00  0.00    +0.000 OA
ATOM     29  H   UNL     1     -12.673  54.330  46.047  0.00  0.00    +0.000 HD
ENDBRANCH   3  28
BRANCH   5  30
ATOM     30  C   UNL     1      -9.502  51.494  47.881  0.00  0.00    +0.000 C 
BRANCH  30  31
ATOM     31  C   UNL     1     -10.069  50.207  47.300  0.00  0.00    +0.000 C 
BRANCH  31  32
ATOM     32  C   UNL     1     -11.603  50.125  47.298  0.00  0.00    +0.000 C 
ATOM     33  C   UNL     1     -12.266  51.209  48.155  0.00  0.00    +0.000 C 
ATOM     34  C   UNL     1     -12.114  50.228  45.860  0.00  0.00    +0.000 C 
ENDBRANCH  31  32
ENDBRANCH  30  31
ENDBRANCH   5  30
TORSDOF 6
ENDMDL
MODEL 9
REMARK VINA RESULT:      -7.4      3.153      7.550
REMARK  Name = 352901
REMARK  8 active torsions:
REMARK  status: ('A' for Active; 'I' for Inactive)
REMARK    1  A    between atoms: C_6  and  C_10
REMARK    2  A    between atoms: C_12  and  O_16
REMARK    3  A    between atoms: C_14  and  O_19
REMARK    4  A    between atoms: N_18  and  C_22
REMARK    5  A    between atoms: C_22  and  C_25
REMARK    6  A    between atoms: C_25  and  C_28
REMARK    7  A    between atoms: C_28  and  C_29
REMARK    8  A    between atoms: C_28  and  C_30
REMARK                            x       y       z     vdW  Elec       q    Type
REMARK                         _______ _______ _______ _____ _____    ______ ____
ROOT
ATOM      1  C   UNL     1      -8.001  54.455  50.231  0.00  0.00    +0.000 A 
ATOM      2  C   UNL     1      -8.302  55.716  50.969  0.00  0.00    +0.000 A 
ATOM      3  C   UNL     1      -7.285  53.538  50.917  0.00  0.00    +0.000 A 
ATOM      4  O   UNL     1      -8.396  56.791  50.386  0.00  0.00    +0.000 OA
ATOM      5  N   UNL     1      -8.682  55.473  52.309  0.00  0.00    +0.000 N 
ATOM      6  C   UNL     1      -6.843  53.875  52.266  0.00  0.00    +0.000 A 
ATOM      7  C   UNL     1      -7.621  54.785  53.007  0.00  0.00    +0.000 A 
ATOM      8  C   UNL     1      -5.668  53.366  52.811  0.00  0.00    +0.000 A 
ATOM      9  N   UNL     1      -7.259  55.208  54.235  0.00  0.00    +0.000 NA
ATOM     10  C   UNL     1      -5.251  53.839  54.045  0.00  0.00    +0.000 A 
ATOM     11  C   UNL     1      -6.071  54.745  54.708  0.00  0.00    +0.000 A 
ENDROOT
BRANCH   1  17
ATOM     12  S   UNL     1     -10.872  54.463  47.658  0.00  0.00    +0.000 S 
ATOM     13  O   UNL     1     -11.990  53.600  47.971  0.00  0.00    +0.000 OA
ATOM     14  O   UNL     1     -11.094  55.820  47.191  0.00  0.00    +0.000 OA
ATOM     15  N   UNL     1      -9.940  54.543  48.954  0.00  0.00    +0.000 N 
ATOM     16  C   UNL     1      -9.964  53.670  46.397  0.00  0.00    +0.000 A 
ATOM     17  C   UNL     1      -8.709  54.126  48.953  0.00  0.00    +0.000 C 
ATOM     18  C   UNL     1      -8.645  53.301  46.650  0.00  0.00    +0.000 A 
ATOM     19  C   UNL     1     -10.613  53.452  45.183  0.00  0.00    +0.000 A 
ATOM     20  N   UNL     1      -8.054  53.528  47.897  0.00  0.00    +0.000 N 
ATOM     21  C   UNL     1      -7.956  52.682  45.601  0.00  0.00    +0.000 A 
ATOM     22  C   UNL     1      -9.909  52.843  44.165  0.00  0.00    +0.000 A 
ATOM     23  C   UNL     1      -8.585  52.459  44.363  0.00  0.00    +0.000 A 
ATOM     24  H   UNL     1     -10.313  54.921  49.784  0.00  0.00    +0.000 HD
ATOM     25  H   UNL     1      -7.121  53.244  48.029  0.00  0.00    +0.000 HD
BRANCH  22  26
ATOM     26  O   UNL     1     -10.490  52.617  42.956  0.00  0.00    +0.000 OA
ATOM     27  H   UNL     1     -11.158  51.965  42.872  0.00  0.00    +0.000 HD
ENDBRANCH  22  26
ENDBRANCH   1  17
BRANCH   3  28
ATOM     28  O   UNL     1      -7.031  52.242  50.528  0.00  0.00    +0.000 OA
ATOM     29  H   UNL     1      -6.747  52.062  49.654  0.00  0.00    +0.000 HD
ENDBRANCH   3  28
BRANCH   5  30
ATOM     30  C   UNL     1      -9.977  54.753  52.324  0.00  0.00    +0.000 C 
BRANCH  30  31
ATOM     31  C   UNL     1     -10.307  53.906  53.545  0.00  0.00    +0.000 C 
BRANCH  31  32
ATOM     32  C   UNL     1     -10.478  52.407  53.258  0.00  0.00    +0.000 C 
ATOM     33  C   UNL     1     -10.557  52.084  51.762  0.00  0.00    +0.000 C 
ATOM     34  C   UNL     1      -9.315  51.636  53.886  0.00  0.00    +0.000 C 
ENDBRANCH  31  32
ENDBRANCH  30  31
ENDBRANCH   5  30
TORSDOF 6
ENDMDL
