MODEL 1
REMARK VINA RESULT:      -8.0      0.000      0.000
REMARK  Name = 350570
REMARK  10 active torsions:
REMARK  status: ('A' for Active; 'I' for Inactive)
REMARK    1  A    between atoms: C_6  and  C_10
REMARK    2  A    between atoms: C_12  and  N_16
REMARK    3  A    between atoms: C_14  and  O_19
REMARK    4  A    between atoms: N_16  and  S_21
REMARK    5  A    between atoms: N_18  and  C_23
REMARK    6  A    between atoms: S_21  and  C_27
REMARK    7  A    between atoms: C_23  and  C_29
REMARK    8  A    between atoms: C_29  and  C_32
REMARK    9  A    between atoms: C_32  and  C_33
REMARK   10  A    between atoms: C_32  and  C_34
REMARK                            x       y       z     vdW  Elec       q    Type
REMARK                         _______ _______ _______ _____ _____    ______ ____
ROOT
ATOM      1  S   UNL     1     -10.072  55.239  49.420  0.00  0.00    +0.000 S 
ATOM      2  O   UNL     1     -10.573  54.323  48.417  0.00  0.00    +0.000 OA
ATOM      3  O   UNL     1      -9.143  56.291  49.050  0.00  0.00    +0.000 OA
ATOM      4  N   UNL     1      -9.401  54.369  50.606  0.00  0.00    +0.000 N 
ATOM      5  C   UNL     1     -11.478  56.059  50.069  0.00  0.00    +0.000 A 
ATOM      6  C   UNL     1      -9.967  54.268  51.774  0.00  0.00    +0.000 C 
ATOM      7  C   UNL     1     -11.868  55.751  51.364  0.00  0.00    +0.000 A 
ATOM      8  C   UNL     1     -12.167  56.981  49.275  0.00  0.00    +0.000 A 
ATOM      9  N   UNL     1     -11.176  54.819  52.130  0.00  0.00    +0.000 N 
ATOM     10  C   UNL     1     -13.035  56.339  51.858  0.00  0.00    +0.000 A 
ATOM     11  C   UNL     1     -13.316  57.562  49.790  0.00  0.00    +0.000 A 
ATOM     12  C   UNL     1     -13.756  57.240  51.073  0.00  0.00    +0.000 A 
ATOM     13  H   UNL     1      -8.549  53.905  50.442  0.00  0.00    +0.000 HD
ATOM     14  H   UNL     1     -11.578  54.534  52.983  0.00  0.00    +0.000 HD
ENDROOT
BRANCH   6  15
ATOM     15  C   UNL     1      -9.190  53.500  52.825  0.00  0.00    +0.000 A 
ATOM     16  C   UNL     1      -7.719  53.744  52.979  0.00  0.00    +0.000 A 
ATOM     17  C   UNL     1      -9.806  52.611  53.623  0.00  0.00    +0.000 A 
ATOM     18  O   UNL     1      -7.199  54.643  52.310  0.00  0.00    +0.000 OA
ATOM     19  N   UNL     1      -7.012  52.955  53.862  0.00  0.00    +0.000 N 
ATOM     20  C   UNL     1      -9.030  51.814  54.577  0.00  0.00    +0.000 A 
ATOM     21  C   UNL     1      -7.644  51.969  54.661  0.00  0.00    +0.000 A 
ATOM     22  C   UNL     1      -9.633  50.847  55.389  0.00  0.00    +0.000 A 
ATOM     23  N   UNL     1      -6.876  51.214  55.483  0.00  0.00    +0.000 NA
ATOM     24  C   UNL     1      -8.855  50.066  56.235  0.00  0.00    +0.000 A 
ATOM     25  C   UNL     1      -7.492  50.284  56.242  0.00  0.00    +0.000 A 
BRANCH  17  26
ATOM     26  O   UNL     1     -11.163  52.341  53.606  0.00  0.00    +0.000 OA
ATOM     27  H   UNL     1     -11.761  52.967  53.250  0.00  0.00    +0.000 HD
ENDBRANCH  17  26
BRANCH  19  28
ATOM     28  C   UNL     1      -5.556  53.106  53.962  0.00  0.00    +0.000 C 
BRANCH  28  29
ATOM     29  C   UNL     1      -4.826  52.317  52.864  0.00  0.00    +0.000 C 
BRANCH  29  30
ATOM     30  C   UNL     1      -3.789  53.142  52.075  0.00  0.00    +0.000 C 
ATOM     31  C   UNL     1      -4.311  53.599  50.712  0.00  0.00    +0.000 C 
ATOM     32  C   UNL     1      -3.372  54.366  52.896  0.00  0.00    +0.000 C 
ENDBRANCH  29  30
ENDBRANCH  28  29
ENDBRANCH  19  28
ENDBRANCH   6  15
BRANCH  11  33
ATOM     33  N   UNL     1     -14.095  58.448  49.011  0.00  0.00    +0.000 N 
ATOM     34  H   UNL     1     -14.551  58.130  48.200  0.00  0.00    +0.000 HD
BRANCH  33  35
ATOM     35  S   UNL     1     -14.231  60.051  49.491  0.00  0.00    +0.000 S 
ATOM     36  O   UNL     1     -12.963  60.510  50.017  0.00  0.00    +0.000 OA
ATOM     37  O   UNL     1     -14.890  60.739  48.406  0.00  0.00    +0.000 OA
ATOM     38  C   UNL     1     -15.402  59.948  50.830  0.00  0.00    +0.000 C 
ENDBRANCH  33  35
ENDBRANCH  11  33
TORSDOF 7
ENDMDL
MODEL 2
REMARK VINA RESULT:      -7.1      2.828      3.928
REMARK  Name = 350570
REMARK  10 active torsions:
REMARK  status: ('A' for Active; 'I' for Inactive)
REMARK    1  A    between atoms: C_6  and  C_10
REMARK    2  A    between atoms: C_12  and  N_16
REMARK    3  A    between atoms: C_14  and  O_19
REMARK    4  A    between atoms: N_16  and  S_21
REMARK    5  A    between atoms: N_18  and  C_23
REMARK    6  A    between atoms: S_21  and  C_27
REMARK    7  A    between atoms: C_23  and  C_29
REMARK    8  A    between atoms: C_29  and  C_32
REMARK    9  A    between atoms: C_32  and  C_33
REMARK   10  A    between atoms: C_32  and  C_34
REMARK                            x       y       z     vdW  Elec       q    Type
REMARK                         _______ _______ _______ _____ _____    ______ ____
ROOT
ATOM      1  S   UNL     1     -11.354  54.727  48.026  0.00  0.00    +0.000 S 
ATOM      2  O   UNL     1     -12.310  53.703  47.658  0.00  0.00    +0.000 OA
ATOM      3  O   UNL     1     -11.113  55.854  47.144  0.00  0.00    +0.000 OA
ATOM      4  N   UNL     1      -9.936  54.008  48.323  0.00  0.00    +0.000 N 
ATOM      5  C   UNL     1     -11.942  55.419  49.525  0.00  0.00    +0.000 A 
ATOM      6  C   UNL     1      -9.467  53.911  49.533  0.00  0.00    +0.000 C 
ATOM      7  C   UNL     1     -11.236  55.144  50.687  0.00  0.00    +0.000 A 
ATOM      8  C   UNL     1     -13.095  56.210  49.514  0.00  0.00    +0.000 A 
ATOM      9  N   UNL     1     -10.100  54.341  50.676  0.00  0.00    +0.000 N 
ATOM     10  C   UNL     1     -11.745  55.624  51.896  0.00  0.00    +0.000 A 
ATOM     11  C   UNL     1     -13.576  56.686  50.725  0.00  0.00    +0.000 A 
ATOM     12  C   UNL     1     -12.912  56.391  51.914  0.00  0.00    +0.000 A 
ATOM     13  H   UNL     1      -9.418  53.635  47.574  0.00  0.00    +0.000 HD
ATOM     14  H   UNL     1      -9.725  54.063  51.542  0.00  0.00    +0.000 HD
ENDROOT
BRANCH   6  15
ATOM     15  C   UNL     1      -8.087  53.298  49.663  0.00  0.00    +0.000 A 
ATOM     16  C   UNL     1      -7.055  53.979  50.511  0.00  0.00    +0.000 A 
ATOM     17  C   UNL     1      -7.782  52.149  49.035  0.00  0.00    +0.000 A 
ATOM     18  O   UNL     1      -7.391  54.971  51.164  0.00  0.00    +0.000 OA
ATOM     19  N   UNL     1      -5.775  53.465  50.525  0.00  0.00    +0.000 N 
ATOM     20  C   UNL     1      -6.421  51.610  49.100  0.00  0.00    +0.000 A 
ATOM     21  C   UNL     1      -5.429  52.289  49.812  0.00  0.00    +0.000 A 
ATOM     22  C   UNL     1      -6.059  50.442  48.420  0.00  0.00    +0.000 A 
ATOM     23  N   UNL     1      -4.143  51.865  49.852  0.00  0.00    +0.000 NA
ATOM     24  C   UNL     1      -4.744  49.998  48.453  0.00  0.00    +0.000 A 
ATOM     25  C   UNL     1      -3.830  50.740  49.174  0.00  0.00    +0.000 A 
BRANCH  17  26
ATOM     26  O   UNL     1      -8.666  51.408  48.270  0.00  0.00    +0.000 OA
ATOM     27  H   UNL     1      -8.432  51.152  47.400  0.00  0.00    +0.000 HD
ENDBRANCH  17  26
BRANCH  19  28
ATOM     28  C   UNL     1      -4.721  54.166  51.268  0.00  0.00    +0.000 C 
BRANCH  28  29
ATOM     29  C   UNL     1      -4.686  53.739  52.743  0.00  0.00    +0.000 C 
BRANCH  29  30
ATOM     30  C   UNL     1      -5.041  54.864  53.736  0.00  0.00    +0.000 C 
ATOM     31  C   UNL     1      -6.033  54.414  54.809  0.00  0.00    +0.000 C 
ATOM     32  C   UNL     1      -3.764  55.379  54.409  0.00  0.00    +0.000 C 
ENDBRANCH  29  30
ENDBRANCH  28  29
ENDBRANCH  19  28
ENDBRANCH   6  15
BRANCH  11  33
ATOM     33  N   UNL     1     -14.775  57.432  50.788  0.00  0.00    +0.000 N 
ATOM     34  H   UNL     1     -15.645  56.989  50.670  0.00  0.00    +0.000 HD
BRANCH  33  35
ATOM     35  S   UNL     1     -14.693  59.085  51.066  0.00  0.00    +0.000 S 
ATOM     36  O   UNL     1     -15.941  59.706  50.678  0.00  0.00    +0.000 OA
ATOM     37  O   UNL     1     -14.155  59.241  52.397  0.00  0.00    +0.000 OA
ATOM     38  C   UNL     1     -13.421  59.599  49.928  0.00  0.00    +0.000 C 
ENDBRANCH  33  35
ENDBRANCH  11  33
TORSDOF 7
ENDMDL
MODEL 3
REMARK VINA RESULT:      -6.8      4.143      5.896
REMARK  Name = 350570
REMARK  10 active torsions:
REMARK  status: ('A' for Active; 'I' for Inactive)
REMARK    1  A    between atoms: C_6  and  C_10
REMARK    2  A    between atoms: C_12  and  N_16
REMARK    3  A    between atoms: C_14  and  O_19
REMARK    4  A    between atoms: N_16  and  S_21
REMARK    5  A    between atoms: N_18  and  C_23
REMARK    6  A    between atoms: S_21  and  C_27
REMARK    7  A    between atoms: C_23  and  C_29
REMARK    8  A    between atoms: C_29  and  C_32
REMARK    9  A    between atoms: C_32  and  C_33
REMARK   10  A    between atoms: C_32  and  C_34
REMARK                            x       y       z     vdW  Elec       q    Type
REMARK                         _______ _______ _______ _____ _____    ______ ____
ROOT
ATOM      1  S   UNL     1     -11.454  54.463  50.656  0.00  0.00    +0.000 S 
ATOM      2  O   UNL     1     -10.584  55.341  51.411  0.00  0.00    +0.000 OA
ATOM      3  O   UNL     1     -12.342  53.544  51.345  0.00  0.00    +0.000 OA
ATOM      4  N   UNL     1     -10.540  53.608  49.632  0.00  0.00    +0.000 N 
ATOM      5  C   UNL     1     -12.497  55.511  49.716  0.00  0.00    +0.000 A 
ATOM      6  C   UNL     1     -10.569  53.832  48.351  0.00  0.00    +0.000 C 
ATOM      7  C   UNL     1     -12.300  55.560  48.344  0.00  0.00    +0.000 A 
ATOM      8  C   UNL     1     -13.480  56.266  50.362  0.00  0.00    +0.000 A 
ATOM      9  N   UNL     1     -11.306  54.810  47.724  0.00  0.00    +0.000 N 
ATOM     10  C   UNL     1     -13.073  56.454  47.599  0.00  0.00    +0.000 A 
ATOM     11  C   UNL     1     -14.244  57.139  49.602  0.00  0.00    +0.000 A 
ATOM     12  C   UNL     1     -14.040  57.241  48.227  0.00  0.00    +0.000 A 
ATOM     13  H   UNL     1      -9.949  52.904  49.985  0.00  0.00    +0.000 HD
ATOM     14  H   UNL     1     -11.116  54.992  46.775  0.00  0.00    +0.000 HD
ENDROOT
BRANCH   6  15
ATOM     15  C   UNL     1      -9.735  52.901  47.494  0.00  0.00    +0.000 A 
ATOM     16  C   UNL     1      -8.334  52.572  47.911  0.00  0.00    +0.000 A 
ATOM     17  C   UNL     1     -10.241  52.361  46.371  0.00  0.00    +0.000 A 
ATOM     18  O   UNL     1      -7.931  52.991  49.001  0.00  0.00    +0.000 OA
ATOM     19  N   UNL     1      -7.557  51.814  47.061  0.00  0.00    +0.000 N 
ATOM     20  C   UNL     1      -9.399  51.531  45.507  0.00  0.00    +0.000 A 
ATOM     21  C   UNL     1      -8.062  51.296  45.841  0.00  0.00    +0.000 A 
ATOM     22  C   UNL     1      -9.880  50.993  44.308  0.00  0.00    +0.000 A 
ATOM     23  N   UNL     1      -7.227  50.585  45.046  0.00  0.00    +0.000 NA
ATOM     24  C   UNL     1      -9.032  50.264  43.483  0.00  0.00    +0.000 A 
ATOM     25  C   UNL     1      -7.725  50.093  43.891  0.00  0.00    +0.000 A 
BRANCH  17  26
ATOM     26  O   UNL     1     -11.533  52.553  45.915  0.00  0.00    +0.000 OA
ATOM     27  H   UNL     1     -12.259  52.408  46.489  0.00  0.00    +0.000 HD
ENDBRANCH  17  26
BRANCH  19  28
ATOM     28  C   UNL     1      -6.151  51.558  47.397  0.00  0.00    +0.000 C 
BRANCH  28  29
ATOM     29  C   UNL     1      -5.289  52.817  47.229  0.00  0.00    +0.000 C 
BRANCH  29  30
ATOM     30  C   UNL     1      -4.416  53.156  48.455  0.00  0.00    +0.000 C 
ATOM     31  C   UNL     1      -4.800  54.486  49.104  0.00  0.00    +0.000 C 
ATOM     32  C   UNL     1      -4.528  52.034  49.492  0.00  0.00    +0.000 C 
ENDBRANCH  29  30
ENDBRANCH  28  29
ENDBRANCH  19  28
ENDBRANCH   6  15
BRANCH  11  33
ATOM     33  N   UNL     1     -15.205  57.981  50.207  0.00  0.00    +0.000 N 
ATOM     34  H   UNL     1     -16.140  57.688  50.295  0.00  0.00    +0.000 HD
BRANCH  33  35
ATOM     35  S   UNL     1     -14.729  59.487  50.772  0.00  0.00    +0.000 S 
ATOM     36  O   UNL     1     -13.433  59.826  50.223  0.00  0.00    +0.000 OA
ATOM     37  O   UNL     1     -15.869  60.357  50.604  0.00  0.00    +0.000 OA
ATOM     38  C   UNL     1     -14.550  59.197  52.522  0.00  0.00    +0.000 C 
ENDBRANCH  33  35
ENDBRANCH  11  33
TORSDOF 7
ENDMDL
MODEL 4
REMARK VINA RESULT:      -6.7      4.090      6.074
REMARK  Name = 350570
REMARK  10 active torsions:
REMARK  status: ('A' for Active; 'I' for Inactive)
REMARK    1  A    between atoms: C_6  and  C_10
REMARK    2  A    between atoms: C_12  and  N_16
REMARK    3  A    between atoms: C_14  and  O_19
REMARK    4  A    between atoms: N_16  and  S_21
REMARK    5  A    between atoms: N_18  and  C_23
REMARK    6  A    between atoms: S_21  and  C_27
REMARK    7  A    between atoms: C_23  and  C_29
REMARK    8  A    between atoms: C_29  and  C_32
REMARK    9  A    between atoms: C_32  and  C_33
REMARK   10  A    between atoms: C_32  and  C_34
REMARK                            x       y       z     vdW  Elec       q    Type
REMARK                         _______ _______ _______ _____ _____    ______ ____
ROOT
ATOM      1  S   UNL     1     -10.773  54.542  51.347  0.00  0.00    +0.000 S 
ATOM      2  O   UNL     1     -10.121  55.531  52.181  0.00  0.00    +0.000 OA
ATOM      3  O   UNL     1     -11.659  53.557  51.939  0.00  0.00    +0.000 OA
ATOM      4  N   UNL     1      -9.632  53.756  50.513  0.00  0.00    +0.000 N 
ATOM      5  C   UNL     1     -11.759  55.443  50.213  0.00  0.00    +0.000 A 
ATOM      6  C   UNL     1      -9.486  53.936  49.232  0.00  0.00    +0.000 C 
ATOM      7  C   UNL     1     -11.359  55.469  48.885  0.00  0.00    +0.000 A 
ATOM      8  C   UNL     1     -12.900  56.110  50.669  0.00  0.00    +0.000 A 
ATOM      9  N   UNL     1     -10.212  54.809  48.457  0.00  0.00    +0.000 N 
ATOM     10  C   UNL     1     -12.095  56.252  47.992  0.00  0.00    +0.000 A 
ATOM     11  C   UNL     1     -13.621  56.872  49.763  0.00  0.00    +0.000 A 
ATOM     12  C   UNL     1     -13.220  56.951  48.430  0.00  0.00    +0.000 A 
ATOM     13  H   UNL     1      -9.035  53.131  50.983  0.00  0.00    +0.000 HD
ATOM     14  H   UNL     1      -9.899  54.980  47.539  0.00  0.00    +0.000 HD
ENDROOT
BRANCH   6  15
ATOM     15  C   UNL     1      -8.442  53.071  48.555  0.00  0.00    +0.000 A 
ATOM     16  C   UNL     1      -8.838  52.212  47.391  0.00  0.00    +0.000 A 
ATOM     17  C   UNL     1      -7.166  53.072  48.979  0.00  0.00    +0.000 A 
ATOM     18  O   UNL     1      -9.988  52.311  46.952  0.00  0.00    +0.000 OA
ATOM     19  N   UNL     1      -7.900  51.351  46.863  0.00  0.00    +0.000 N 
ATOM     20  C   UNL     1      -6.185  52.169  48.372  0.00  0.00    +0.000 A 
ATOM     21  C   UNL     1      -6.569  51.298  47.349  0.00  0.00    +0.000 A 
ATOM     22  C   UNL     1      -4.862  52.112  48.821  0.00  0.00    +0.000 A 
ATOM     23  N   UNL     1      -5.715  50.403  46.797  0.00  0.00    +0.000 NA
ATOM     24  C   UNL     1      -3.977  51.197  48.263  0.00  0.00    +0.000 A 
ATOM     25  C   UNL     1      -4.449  50.369  47.265  0.00  0.00    +0.000 A 
BRANCH  17  26
ATOM     26  O   UNL     1      -6.676  53.858  50.007  0.00  0.00    +0.000 OA
ATOM     27  H   UNL     1      -6.877  54.772  50.034  0.00  0.00    +0.000 HD
ENDBRANCH  17  26
BRANCH  19  28
ATOM     28  C   UNL     1      -8.287  50.429  45.788  0.00  0.00    +0.000 C 
BRANCH  28  29
ATOM     29  C   UNL     1      -8.166  51.085  44.406  0.00  0.00    +0.000 C 
BRANCH  29  30
ATOM     30  C   UNL     1      -9.482  51.116  43.602  0.00  0.00    +0.000 C 
ATOM     31  C   UNL     1     -10.617  50.364  44.296  0.00  0.00    +0.000 C 
ATOM     32  C   UNL     1      -9.906  52.570  43.365  0.00  0.00    +0.000 C 
ENDBRANCH  29  30
ENDBRANCH  28  29
ENDBRANCH  19  28
ENDBRANCH   6  15
BRANCH  11  33
ATOM     33  N   UNL     1     -14.743  57.626  50.176  0.00  0.00    +0.000 N 
ATOM     34  H   UNL     1     -15.646  57.237  50.142  0.00  0.00    +0.000 HD
BRANCH  33  35
ATOM     35  S   UNL     1     -14.513  59.194  50.729  0.00  0.00    +0.000 S 
ATOM     36  O   UNL     1     -13.290  59.732  50.170  0.00  0.00    +0.000 OA
ATOM     37  O   UNL     1     -15.779  59.868  50.559  0.00  0.00    +0.000 OA
ATOM     38  C   UNL     1     -14.283  58.951  52.479  0.00  0.00    +0.000 C 
ENDBRANCH  33  35
ENDBRANCH  11  33
TORSDOF 7
ENDMDL
MODEL 5
REMARK VINA RESULT:      -6.5      2.575      3.470
REMARK  Name = 350570
REMARK  10 active torsions:
REMARK  status: ('A' for Active; 'I' for Inactive)
REMARK    1  A    between atoms: C_6  and  C_10
REMARK    2  A    between atoms: C_12  and  N_16
REMARK    3  A    between atoms: C_14  and  O_19
REMARK    4  A    between atoms: N_16  and  S_21
REMARK    5  A    between atoms: N_18  and  C_23
REMARK    6  A    between atoms: S_21  and  C_27
REMARK    7  A    between atoms: C_23  and  C_29
REMARK    8  A    between atoms: C_29  and  C_32
REMARK    9  A    between atoms: C_32  and  C_33
REMARK   10  A    between atoms: C_32  and  C_34
REMARK                            x       y       z     vdW  Elec       q    Type
REMARK                         _______ _______ _______ _____ _____    ______ ____
ROOT
ATOM      1  S   UNL     1     -10.706  54.740  48.639  0.00  0.00    +0.000 S 
ATOM      2  O   UNL     1     -11.584  53.739  48.069  0.00  0.00    +0.000 OA
ATOM      3  O   UNL     1     -10.227  55.842  47.825  0.00  0.00    +0.000 OA
ATOM      4  N   UNL     1      -9.423  53.984  49.268  0.00  0.00    +0.000 N 
ATOM      5  C   UNL     1     -11.604  55.479  49.950  0.00  0.00    +0.000 A 
ATOM      6  C   UNL     1      -9.253  53.897  50.556  0.00  0.00    +0.000 C 
ATOM      7  C   UNL     1     -11.200  55.205  51.248  0.00  0.00    +0.000 A 
ATOM      8  C   UNL     1     -12.695  56.304  49.660  0.00  0.00    +0.000 A 
ATOM      9  N   UNL     1     -10.121  54.369  51.513  0.00  0.00    +0.000 N 
ATOM     10  C   UNL     1     -11.961  55.724  52.298  0.00  0.00    +0.000 A 
ATOM     11  C   UNL     1     -13.430  56.818  50.718  0.00  0.00    +0.000 A 
ATOM     12  C   UNL     1     -13.072  56.527  52.033  0.00  0.00    +0.000 A 
ATOM     13  H   UNL     1      -8.757  53.581  48.666  0.00  0.00    +0.000 HD
ATOM     14  H   UNL     1      -9.968  54.096  52.447  0.00  0.00    +0.000 HD
ENDROOT
BRANCH   6  15
ATOM     15  C   UNL     1      -7.964  53.245  51.013  0.00  0.00    +0.000 A 
ATOM     16  C   UNL     1      -7.721  51.798  50.709  0.00  0.00    +0.000 A 
ATOM     17  C   UNL     1      -7.034  53.951  51.681  0.00  0.00    +0.000 A 
ATOM     18  O   UNL     1      -8.538  51.201  50.002  0.00  0.00    +0.000 OA
ATOM     19  N   UNL     1      -6.595  51.197  51.231  0.00  0.00    +0.000 N 
ATOM     20  C   UNL     1      -5.830  53.290  52.192  0.00  0.00    +0.000 A 
ATOM     21  C   UNL     1      -5.642  51.920  51.993  0.00  0.00    +0.000 A 
ATOM     22  C   UNL     1      -4.866  53.986  52.930  0.00  0.00    +0.000 A 
ATOM     23  N   UNL     1      -4.576  51.252  52.496  0.00  0.00    +0.000 NA
ATOM     24  C   UNL     1      -3.771  53.311  53.452  0.00  0.00    +0.000 A 
ATOM     25  C   UNL     1      -3.674  51.955  53.214  0.00  0.00    +0.000 A 
BRANCH  17  26
ATOM     26  O   UNL     1      -7.126  55.301  51.973  0.00  0.00    +0.000 OA
ATOM     27  H   UNL     1      -6.744  55.637  52.758  0.00  0.00    +0.000 HD
ENDBRANCH  17  26
BRANCH  19  28
ATOM     28  C   UNL     1      -6.382  49.759  51.032  0.00  0.00    +0.000 C 
BRANCH  28  29
ATOM     29  C   UNL     1      -5.504  49.480  49.803  0.00  0.00    +0.000 C 
BRANCH  29  30
ATOM     30  C   UNL     1      -5.231  50.718  48.925  0.00  0.00    +0.000 C 
ATOM     31  C   UNL     1      -3.751  51.096  48.880  0.00  0.00    +0.000 C 
ATOM     32  C   UNL     1      -5.732  50.459  47.500  0.00  0.00    +0.000 C 
ENDBRANCH  29  30
ENDBRANCH  28  29
ENDBRANCH  19  28
ENDBRANCH   6  15
BRANCH  11  33
ATOM     33  N   UNL     1     -14.584  57.602  50.489  0.00  0.00    +0.000 N 
ATOM     34  H   UNL     1     -15.385  57.203  50.080  0.00  0.00    +0.000 HD
BRANCH  33  35
ATOM     35  S   UNL     1     -14.569  59.222  50.926  0.00  0.00    +0.000 S 
ATOM     36  O   UNL     1     -15.827  59.836  50.558  0.00  0.00    +0.000 OA
ATOM     37  O   UNL     1     -14.077  59.267  52.283  0.00  0.00    +0.000 OA
ATOM     38  C   UNL     1     -13.284  59.885  49.884  0.00  0.00    +0.000 C 
ENDBRANCH  33  35
ENDBRANCH  11  33
TORSDOF 7
ENDMDL
MODEL 6
REMARK VINA RESULT:      -6.4      3.186      9.018
REMARK  Name = 350570
REMARK  10 active torsions:
REMARK  status: ('A' for Active; 'I' for Inactive)
REMARK    1  A    between atoms: C_6  and  C_10
REMARK    2  A    between atoms: C_12  and  N_16
REMARK    3  A    between atoms: C_14  and  O_19
REMARK    4  A    between atoms: N_16  and  S_21
REMARK    5  A    between atoms: N_18  and  C_23
REMARK    6  A    between atoms: S_21  and  C_27
REMARK    7  A    between atoms: C_23  and  C_29
REMARK    8  A    between atoms: C_29  and  C_32
REMARK    9  A    between atoms: C_32  and  C_33
REMARK   10  A    between atoms: C_32  and  C_34
REMARK                            x       y       z     vdW  Elec       q    Type
REMARK                         _______ _______ _______ _____ _____    ______ ____
ROOT
ATOM      1  S   UNL     1      -7.222  55.358  52.471  0.00  0.00    +0.000 S 
ATOM      2  O   UNL     1      -7.243  56.118  53.704  0.00  0.00    +0.000 OA
ATOM      3  O   UNL     1      -6.069  55.421  51.592  0.00  0.00    +0.000 OA
ATOM      4  N   UNL     1      -8.533  55.756  51.613  0.00  0.00    +0.000 N 
ATOM      5  C   UNL     1      -7.365  53.675  52.941  0.00  0.00    +0.000 A 
ATOM      6  C   UNL     1      -9.523  54.924  51.464  0.00  0.00    +0.000 C 
ATOM      7  C   UNL     1      -8.555  53.022  52.658  0.00  0.00    +0.000 A 
ATOM      8  C   UNL     1      -6.296  53.046  53.587  0.00  0.00    +0.000 A 
ATOM      9  N   UNL     1      -9.610  53.673  52.027  0.00  0.00    +0.000 N 
ATOM     10  C   UNL     1      -8.706  51.706  53.102  0.00  0.00    +0.000 A 
ATOM     11  C   UNL     1      -6.463  51.736  54.009  0.00  0.00    +0.000 A 
ATOM     12  C   UNL     1      -7.664  51.067  53.776  0.00  0.00    +0.000 A 
ATOM     13  H   UNL     1      -8.584  56.646  51.195  0.00  0.00    +0.000 HD
ATOM     14  H   UNL     1     -10.477  53.207  51.981  0.00  0.00    +0.000 HD
ENDROOT
BRANCH   6  15
ATOM     15  C   UNL     1     -10.648  55.386  50.560  0.00  0.00    +0.000 A 
ATOM     16  C   UNL     1     -10.467  55.338  49.073  0.00  0.00    +0.000 A 
ATOM     17  C   UNL     1     -11.808  55.830  51.077  0.00  0.00    +0.000 A 
ATOM     18  O   UNL     1      -9.438  54.825  48.623  0.00  0.00    +0.000 OA
ATOM     19  N   UNL     1     -11.459  55.867  48.274  0.00  0.00    +0.000 N 
ATOM     20  C   UNL     1     -12.856  56.352  50.197  0.00  0.00    +0.000 A 
ATOM     21  C   UNL     1     -12.657  56.397  48.815  0.00  0.00    +0.000 A 
ATOM     22  C   UNL     1     -14.055  56.864  50.705  0.00  0.00    +0.000 A 
ATOM     23  N   UNL     1     -13.571  56.926  47.965  0.00  0.00    +0.000 NA
ATOM     24  C   UNL     1     -14.999  57.410  49.844  0.00  0.00    +0.000 A 
ATOM     25  C   UNL     1     -14.710  57.421  48.494  0.00  0.00    +0.000 A 
BRANCH  17  26
ATOM     26  O   UNL     1     -12.106  55.872  52.428  0.00  0.00    +0.000 OA
ATOM     27  H   UNL     1     -12.648  55.210  52.809  0.00  0.00    +0.000 HD
ENDBRANCH  17  26
BRANCH  19  28
ATOM     28  C   UNL     1     -11.266  55.922  46.820  0.00  0.00    +0.000 C 
BRANCH  28  29
ATOM     29  C   UNL     1     -11.970  54.758  46.109  0.00  0.00    +0.000 C 
BRANCH  29  30
ATOM     30  C   UNL     1     -11.181  53.433  46.129  0.00  0.00    +0.000 C 
ATOM     31  C   UNL     1     -11.876  52.342  46.945  0.00  0.00    +0.000 C 
ATOM     32  C   UNL     1     -10.972  52.937  44.694  0.00  0.00    +0.000 C 
ENDBRANCH  29  30
ENDBRANCH  28  29
ENDBRANCH  19  28
ENDBRANCH   6  15
BRANCH  11  33
ATOM     33  N   UNL     1      -5.447  51.068  54.729  0.00  0.00    +0.000 N 
ATOM     34  H   UNL     1      -5.619  50.726  55.636  0.00  0.00    +0.000 HD
BRANCH  33  35
ATOM     35  S   UNL     1      -3.941  50.867  54.017  0.00  0.00    +0.000 S 
ATOM     36  O   UNL     1      -3.300  52.156  53.862  0.00  0.00    +0.000 OA
ATOM     37  O   UNL     1      -3.300  49.788  54.732  0.00  0.00    +0.000 OA
ATOM     38  C   UNL     1      -4.365  50.242  52.402  0.00  0.00    +0.000 C 
ENDBRANCH  33  35
ENDBRANCH  11  33
TORSDOF 7
ENDMDL
MODEL 7
REMARK VINA RESULT:      -6.3      2.004      2.395
REMARK  Name = 350570
REMARK  10 active torsions:
REMARK  status: ('A' for Active; 'I' for Inactive)
REMARK    1  A    between atoms: C_6  and  C_10
REMARK    2  A    between atoms: C_12  and  N_16
REMARK    3  A    between atoms: C_14  and  O_19
REMARK    4  A    between atoms: N_16  and  S_21
REMARK    5  A    between atoms: N_18  and  C_23
REMARK    6  A    between atoms: S_21  and  C_27
REMARK    7  A    between atoms: C_23  and  C_29
REMARK    8  A    between atoms: C_29  and  C_32
REMARK    9  A    between atoms: C_32  and  C_33
REMARK   10  A    between atoms: C_32  and  C_34
REMARK                            x       y       z     vdW  Elec       q    Type
REMARK                         _______ _______ _______ _____ _____    ______ ____
ROOT
ATOM      1  S   UNL     1      -9.854  55.938  49.319  0.00  0.00    +0.000 S 
ATOM      2  O   UNL     1      -9.687  55.616  47.917  0.00  0.00    +0.000 OA
ATOM      3  O   UNL     1      -9.158  57.073  49.896  0.00  0.00    +0.000 OA
ATOM      4  N   UNL     1      -9.480  54.625  50.185  0.00  0.00    +0.000 N 
ATOM      5  C   UNL     1     -11.561  56.270  49.537  0.00  0.00    +0.000 A 
ATOM      6  C   UNL     1     -10.396  53.937  50.802  0.00  0.00    +0.000 C 
ATOM      7  C   UNL     1     -12.316  55.347  50.245  0.00  0.00    +0.000 A 
ATOM      8  C   UNL     1     -12.112  57.434  48.993  0.00  0.00    +0.000 A 
ATOM      9  N   UNL     1     -11.748  54.188  50.765  0.00  0.00    +0.000 N 
ATOM     10  C   UNL     1     -13.691  55.565  50.352  0.00  0.00    +0.000 A 
ATOM     11  C   UNL     1     -13.478  57.636  49.121  0.00  0.00    +0.000 A 
ATOM     12  C   UNL     1     -14.270  56.704  49.791  0.00  0.00    +0.000 A 
ATOM     13  H   UNL     1      -8.540  54.339  50.247  0.00  0.00    +0.000 HD
ATOM     14  H   UNL     1     -12.353  53.503  51.130  0.00  0.00    +0.000 HD
ENDROOT
BRANCH   6  15
ATOM     15  C   UNL     1      -9.903  52.784  51.653  0.00  0.00    +0.000 A 
ATOM     16  C   UNL     1      -9.315  51.576  50.988  0.00  0.00    +0.000 A 
ATOM     17  C   UNL     1      -9.979  52.837  52.994  0.00  0.00    +0.000 A 
ATOM     18  O   UNL     1      -9.155  51.597  49.764  0.00  0.00    +0.000 OA
ATOM     19  N   UNL     1      -8.976  50.495  51.774  0.00  0.00    +0.000 N 
ATOM     20  C   UNL     1      -9.577  51.683  53.802  0.00  0.00    +0.000 A 
ATOM     21  C   UNL     1      -9.115  50.518  53.185  0.00  0.00    +0.000 A 
ATOM     22  C   UNL     1      -9.687  51.688  55.197  0.00  0.00    +0.000 A 
ATOM     23  N   UNL     1      -8.789  49.404  53.884  0.00  0.00    +0.000 NA
ATOM     24  C   UNL     1      -9.356  50.552  55.925  0.00  0.00    +0.000 A 
ATOM     25  C   UNL     1      -8.920  49.444  55.227  0.00  0.00    +0.000 A 
BRANCH  17  26
ATOM     26  O   UNL     1     -10.454  53.917  53.716  0.00  0.00    +0.000 OA
ATOM     27  H   UNL     1      -9.879  54.393  54.282  0.00  0.00    +0.000 HD
ENDBRANCH  17  26
BRANCH  19  28
ATOM     28  C   UNL     1      -8.490  49.263  51.142  0.00  0.00    +0.000 C 
BRANCH  28  29
ATOM     29  C   UNL     1      -7.165  49.490  50.400  0.00  0.00    +0.000 C 
BRANCH  29  30
ATOM     30  C   UNL     1      -6.012  49.983  51.298  0.00  0.00    +0.000 C 
ATOM     31  C   UNL     1      -4.758  49.116  51.181  0.00  0.00    +0.000 C 
ATOM     32  C   UNL     1      -5.663  51.432  50.938  0.00  0.00    +0.000 C 
ENDBRANCH  29  30
ENDBRANCH  28  29
ENDBRANCH  19  28
ENDBRANCH   6  15
BRANCH  11  33
ATOM     33  N   UNL     1     -14.106  58.757  48.532  0.00  0.00    +0.000 N 
ATOM     34  H   UNL     1     -14.496  58.695  47.631  0.00  0.00    +0.000 HD
BRANCH  33  35
ATOM     35  S   UNL     1     -14.177  60.197  49.392  0.00  0.00    +0.000 S 
ATOM     36  O   UNL     1     -12.855  60.544  49.869  0.00  0.00    +0.000 OA
ATOM     37  O   UNL     1     -14.950  61.109  48.583  0.00  0.00    +0.000 OA
ATOM     38  C   UNL     1     -15.191  59.755  50.790  0.00  0.00    +0.000 C 
ENDBRANCH  33  35
ENDBRANCH  11  33
TORSDOF 7
ENDMDL
MODEL 8
REMARK VINA RESULT:      -6.2      3.518      9.520
REMARK  Name = 350570
REMARK  10 active torsions:
REMARK  status: ('A' for Active; 'I' for Inactive)
REMARK    1  A    between atoms: C_6  and  C_10
REMARK    2  A    between atoms: C_12  and  N_16
REMARK    3  A    between atoms: C_14  and  O_19
REMARK    4  A    between atoms: N_16  and  S_21
REMARK    5  A    between atoms: N_18  and  C_23
REMARK    6  A    between atoms: S_21  and  C_27
REMARK    7  A    between atoms: C_23  and  C_29
REMARK    8  A    between atoms: C_29  and  C_32
REMARK    9  A    between atoms: C_32  and  C_33
REMARK   10  A    between atoms: C_32  and  C_34
REMARK                            x       y       z     vdW  Elec       q    Type
REMARK                         _______ _______ _______ _____ _____    ______ ____
ROOT
ATOM      1  S   UNL     1      -9.738  51.088  51.594  0.00  0.00    +0.000 S 
ATOM      2  O   UNL     1      -9.820  49.912  50.752  0.00  0.00    +0.000 OA
ATOM      3  O   UNL     1     -10.009  50.990  53.016  0.00  0.00    +0.000 OA
ATOM      4  N   UNL     1     -10.710  52.220  50.972  0.00  0.00    +0.000 N 
ATOM      5  C   UNL     1      -8.084  51.655  51.467  0.00  0.00    +0.000 A 
ATOM      6  C   UNL     1     -10.229  53.280  50.390  0.00  0.00    +0.000 C 
ATOM      7  C   UNL     1      -7.855  52.834  50.772  0.00  0.00    +0.000 A 
ATOM      8  C   UNL     1      -7.053  50.913  52.051  0.00  0.00    +0.000 A 
ATOM      9  N   UNL     1      -8.896  53.548  50.187  0.00  0.00    +0.000 N 
ATOM     10  C   UNL     1      -6.533  53.248  50.598  0.00  0.00    +0.000 A 
ATOM     11  C   UNL     1      -5.749  51.349  51.874  0.00  0.00    +0.000 A 
ATOM     12  C   UNL     1      -5.484  52.508  51.146  0.00  0.00    +0.000 A 
ATOM     13  H   UNL     1     -11.686  52.106  51.035  0.00  0.00    +0.000 HD
ATOM     14  H   UNL     1      -8.662  54.294  49.588  0.00  0.00    +0.000 HD
ENDROOT
BRANCH   6  15
ATOM     15  C   UNL     1     -11.246  54.307  49.933  0.00  0.00    +0.000 A 
ATOM     16  C   UNL     1     -12.320  54.751  50.879  0.00  0.00    +0.000 A 
ATOM     17  C   UNL     1     -11.190  54.828  48.695  0.00  0.00    +0.000 A 
ATOM     18  O   UNL     1     -12.285  54.341  52.043  0.00  0.00    +0.000 OA
ATOM     19  N   UNL     1     -13.300  55.600  50.407  0.00  0.00    +0.000 N 
ATOM     20  C   UNL     1     -12.227  55.755  48.237  0.00  0.00    +0.000 A 
ATOM     21  C   UNL     1     -13.285  56.102  49.082  0.00  0.00    +0.000 A 
ATOM     22  C   UNL     1     -12.224  56.279  46.939  0.00  0.00    +0.000 A 
ATOM     23  N   UNL     1     -14.299  56.908  48.685  0.00  0.00    +0.000 NA
ATOM     24  C   UNL     1     -13.260  57.105  46.521  0.00  0.00    +0.000 A 
ATOM     25  C   UNL     1     -14.267  57.384  47.422  0.00  0.00    +0.000 A 
BRANCH  17  26
ATOM     26  O   UNL     1     -10.217  54.531  47.756  0.00  0.00    +0.000 OA
ATOM     27  H   UNL     1      -9.884  53.659  47.687  0.00  0.00    +0.000 HD
ENDBRANCH  17  26
BRANCH  19  28
ATOM     28  C   UNL     1     -14.417  55.974  51.282  0.00  0.00    +0.000 C 
BRANCH  28  29
ATOM     29  C   UNL     1     -14.070  57.185  52.160  0.00  0.00    +0.000 C 
BRANCH  29  30
ATOM     30  C   UNL     1     -14.973  58.415  51.929  0.00  0.00    +0.000 C 
ATOM     31  C   UNL     1     -15.319  59.146  53.227  0.00  0.00    +0.000 C 
ATOM     32  C   UNL     1     -14.282  59.387  50.967  0.00  0.00    +0.000 C 
ENDBRANCH  29  30
ENDBRANCH  28  29
ENDBRANCH  19  28
ENDBRANCH   6  15
BRANCH  11  33
ATOM     33  N   UNL     1      -4.659  50.605  52.380  0.00  0.00    +0.000 N 
ATOM     34  H   UNL     1      -4.300  49.839  51.877  0.00  0.00    +0.000 HD
BRANCH  33  35
ATOM     35  S   UNL     1      -3.983  51.047  53.851  0.00  0.00    +0.000 S 
ATOM     36  O   UNL     1      -3.300  49.910  54.433  0.00  0.00    +0.000 OA
ATOM     37  O   UNL     1      -3.300  52.298  53.619  0.00  0.00    +0.000 OA
ATOM     38  C   UNL     1      -5.422  51.414  54.835  0.00  0.00    +0.000 C 
ENDBRANCH  33  35
ENDBRANCH  11  33
TORSDOF 7
ENDMDL
MODEL 9
REMARK VINA RESULT:      -6.2      2.102      4.036
REMARK  Name = 350570
REMARK  10 active torsions:
REMARK  status: ('A' for Active; 'I' for Inactive)
REMARK    1  A    between atoms: C_6  and  C_10
REMARK    2  A    between atoms: C_12  and  N_16
REMARK    3  A    between atoms: C_14  and  O_19
REMARK    4  A    between atoms: N_16  and  S_21
REMARK    5  A    between atoms: N_18  and  C_23
REMARK    6  A    between atoms: S_21  and  C_27
REMARK    7  A    between atoms: C_23  and  C_29
REMARK    8  A    between atoms: C_29  and  C_32
REMARK    9  A    between atoms: C_32  and  C_33
REMARK   10  A    between atoms: C_32  and  C_34
REMARK                            x       y       z     vdW  Elec       q    Type
REMARK                         _______ _______ _______ _____ _____    ______ ____
ROOT
ATOM      1  S   UNL     1     -10.924  54.640  47.350  0.00  0.00    +0.000 S 
ATOM      2  O   UNL     1     -11.954  53.813  46.756  0.00  0.00    +0.000 OA
ATOM      3  O   UNL     1     -10.177  55.578  46.534  0.00  0.00    +0.000 OA
ATOM      4  N   UNL     1      -9.868  53.669  48.096  0.00  0.00    +0.000 N 
ATOM      5  C   UNL     1     -11.729  55.611  48.567  0.00  0.00    +0.000 A 
ATOM      6  C   UNL     1      -9.800  53.613  49.394  0.00  0.00    +0.000 C 
ATOM      7  C   UNL     1     -11.472  55.325  49.900  0.00  0.00    +0.000 A 
ATOM      8  C   UNL     1     -12.605  56.627  48.171  0.00  0.00    +0.000 A 
ATOM      9  N   UNL     1     -10.609  54.299  50.270  0.00  0.00    +0.000 N 
ATOM     10  C   UNL     1     -12.173  56.040  50.874  0.00  0.00    +0.000 A 
ATOM     11  C   UNL     1     -13.281  57.332  49.155  0.00  0.00    +0.000 A 
ATOM     12  C   UNL     1     -13.075  57.039  50.502  0.00  0.00    +0.000 A 
ATOM     13  H   UNL     1      -9.264  53.109  47.557  0.00  0.00    +0.000 HD
ATOM     14  H   UNL     1     -10.575  54.047  51.221  0.00  0.00    +0.000 HD
ENDROOT
BRANCH   6  15
ATOM     15  C   UNL     1      -8.706  52.734  49.965  0.00  0.00    +0.000 A 
ATOM     16  C   UNL     1      -8.994  51.885  51.167  0.00  0.00    +0.000 A 
ATOM     17  C   UNL     1      -7.485  52.701  49.403  0.00  0.00    +0.000 A 
ATOM     18  O   UNL     1     -10.150  51.848  51.597  0.00  0.00    +0.000 OA
ATOM     19  N   UNL     1      -7.954  51.180  51.736  0.00  0.00    +0.000 N 
ATOM     20  C   UNL     1      -6.411  51.913  50.013  0.00  0.00    +0.000 A 
ATOM     21  C   UNL     1      -6.647  51.193  51.187  0.00  0.00    +0.000 A 
ATOM     22  C   UNL     1      -5.118  51.895  49.480  0.00  0.00    +0.000 A 
ATOM     23  N   UNL     1      -5.673  50.498  51.822  0.00  0.00    +0.000 NA
ATOM     24  C   UNL     1      -4.110  51.187  50.123  0.00  0.00    +0.000 A 
ATOM     25  C   UNL     1      -4.435  50.514  51.283  0.00  0.00    +0.000 A 
BRANCH  17  26
ATOM     26  O   UNL     1      -7.120  53.401  48.266  0.00  0.00    +0.000 OA
ATOM     27  H   UNL     1      -7.080  54.337  48.284  0.00  0.00    +0.000 HD
ENDBRANCH  17  26
BRANCH  19  28
ATOM     28  C   UNL     1      -8.184  50.418  52.969  0.00  0.00    +0.000 C 
BRANCH  28  29
ATOM     29  C   UNL     1      -7.848  51.244  54.219  0.00  0.00    +0.000 C 
BRANCH  29  30
ATOM     30  C   UNL     1      -8.888  51.131  55.352  0.00  0.00    +0.000 C 
ATOM     31  C   UNL     1     -10.244  51.727  54.973  0.00  0.00    +0.000 C 
ATOM     32  C   UNL     1      -9.070  49.660  55.738  0.00  0.00    +0.000 C 
ENDBRANCH  29  30
ENDBRANCH  28  29
ENDBRANCH  19  28
ENDBRANCH   6  15
BRANCH  11  33
ATOM     33  N   UNL     1     -14.231  58.323  48.817  0.00  0.00    +0.000 N 
ATOM     34  H   UNL     1     -14.945  58.130  48.169  0.00  0.00    +0.000 HD
BRANCH  33  35
ATOM     35  S   UNL     1     -14.123  59.835  49.538  0.00  0.00    +0.000 S 
ATOM     36  O   UNL     1     -12.742  60.121  49.863  0.00  0.00    +0.000 OA
ATOM     37  O   UNL     1     -14.905  60.727  48.715  0.00  0.00    +0.000 OA
ATOM     38  C   UNL     1     -15.029  59.598  51.055  0.00  0.00    +0.000 C 
ENDBRANCH  33  35
ENDBRANCH  11  33
TORSDOF 7
ENDMDL
