MODEL 1
REMARK VINA RESULT:      -7.1      0.000      0.000
REMARK  Name = 353262
REMARK  12 active torsions:
REMARK  status: ('A' for Active; 'I' for Inactive)
REMARK    1  A    between atoms: C_6  and  C_10
REMARK    2  A    between atoms: C_12  and  N_16
REMARK    3  A    between atoms: C_14  and  O_19
REMARK    4  A    between atoms: N_16  and  S_21
REMARK    5  A    between atoms: N_18  and  C_23
REMARK    6  A    between atoms: S_21  and  C_27
REMARK    7  A    between atoms: C_23  and  C_29
REMARK    8  A    between atoms: C_27  and  C_31
REMARK    9  A    between atoms: C_27  and  C_32
REMARK   10  A    between atoms: C_29  and  C_34
REMARK   11  A    between atoms: C_34  and  C_35
REMARK   12  A    between atoms: C_34  and  C_36
REMARK                            x       y       z     vdW  Elec       q    Type
REMARK                         _______ _______ _______ _____ _____    ______ ____
ROOT
ATOM      1  S   UNL     1     -11.513  52.475  49.907  0.00  0.00    +0.000 S 
ATOM      2  O   UNL     1     -11.904  52.152  51.260  0.00  0.00    +0.000 OA
ATOM      3  O   UNL     1     -12.214  51.902  48.774  0.00  0.00    +0.000 OA
ATOM      4  N   UNL     1      -9.941  52.111  49.747  0.00  0.00    +0.000 N 
ATOM      5  C   UNL     1     -11.687  54.214  49.738  0.00  0.00    +0.000 A 
ATOM      6  C   UNL     1      -9.035  53.039  49.645  0.00  0.00    +0.000 C 
ATOM      7  C   UNL     1     -10.530  54.974  49.640  0.00  0.00    +0.000 A 
ATOM      8  C   UNL     1     -12.961  54.787  49.678  0.00  0.00    +0.000 A 
ATOM      9  N   UNL     1      -9.267  54.394  49.699  0.00  0.00    +0.000 N 
ATOM     10  C   UNL     1     -10.653  56.362  49.555  0.00  0.00    +0.000 A 
ATOM     11  C   UNL     1     -13.059  56.169  49.559  0.00  0.00    +0.000 A 
ATOM     12  C   UNL     1     -11.913  56.958  49.510  0.00  0.00    +0.000 A 
ATOM     13  H   UNL     1      -9.666  51.166  49.726  0.00  0.00    +0.000 HD
ATOM     14  H   UNL     1      -8.489  54.991  49.783  0.00  0.00    +0.000 HD
ENDROOT
BRANCH   6  15
ATOM     15  C   UNL     1      -7.615  52.567  49.421  0.00  0.00    +0.000 A 
ATOM     16  C   UNL     1      -6.517  53.071  50.310  0.00  0.00    +0.000 A 
ATOM     17  C   UNL     1      -7.328  51.689  48.440  0.00  0.00    +0.000 A 
ATOM     18  O   UNL     1      -6.817  53.789  51.270  0.00  0.00    +0.000 OA
ATOM     19  N   UNL     1      -5.220  52.708  50.022  0.00  0.00    +0.000 N 
ATOM     20  C   UNL     1      -5.940  51.300  48.182  0.00  0.00    +0.000 A 
ATOM     21  C   UNL     1      -4.903  51.837  48.947  0.00  0.00    +0.000 A 
ATOM     22  C   UNL     1      -5.602  50.428  47.140  0.00  0.00    +0.000 A 
ATOM     23  N   UNL     1      -3.599  51.553  48.710  0.00  0.00    +0.000 NA
ATOM     24  C   UNL     1      -4.269  50.135  46.884  0.00  0.00    +0.000 A 
ATOM     25  C   UNL     1      -3.311  50.720  47.687  0.00  0.00    +0.000 A 
BRANCH  17  26
ATOM     26  O   UNL     1      -8.263  51.113  47.600  0.00  0.00    +0.000 OA
ATOM     27  H   UNL     1      -8.532  51.558  46.821  0.00  0.00    +0.000 HD
ENDBRANCH  17  26
BRANCH  19  28
ATOM     28  C   UNL     1      -4.118  53.264  50.812  0.00  0.00    +0.000 C 
BRANCH  28  29
ATOM     29  C   UNL     1      -3.725  52.336  51.970  0.00  0.00    +0.000 C 
BRANCH  29  30
ATOM     30  C   UNL     1      -3.938  52.943  53.372  0.00  0.00    +0.000 C 
ATOM     31  C   UNL     1      -3.978  54.471  53.356  0.00  0.00    +0.000 C 
ATOM     32  C   UNL     1      -5.244  52.408  53.968  0.00  0.00    +0.000 C 
ENDBRANCH  29  30
ENDBRANCH  28  29
ENDBRANCH  19  28
ENDBRANCH   6  15
BRANCH  11  33
ATOM     33  N   UNL     1     -14.311  56.823  49.505  0.00  0.00    +0.000 N 
ATOM     34  H   UNL     1     -14.648  57.201  48.660  0.00  0.00    +0.000 HD
BRANCH  33  35
ATOM     35  S   UNL     1     -15.216  56.940  50.922  0.00  0.00    +0.000 S 
ATOM     36  O   UNL     1     -16.540  56.465  50.579  0.00  0.00    +0.000 OA
ATOM     37  O   UNL     1     -14.472  56.370  52.023  0.00  0.00    +0.000 OA
BRANCH  35  38
ATOM     38  C   UNL     1     -15.290  58.732  51.126  0.00  0.00    +0.000 C 
ATOM     39  C   UNL     1     -14.797  59.154  52.506  0.00  0.00    +0.000 C 
ATOM     40  C   UNL     1     -14.485  59.419  50.029  0.00  0.00    +0.000 C 
ENDBRANCH  35  38
ENDBRANCH  33  35
ENDBRANCH  11  33
TORSDOF 8
ENDMDL
MODEL 2
REMARK VINA RESULT:      -7.1      1.722      2.108
REMARK  Name = 353262
REMARK  12 active torsions:
REMARK  status: ('A' for Active; 'I' for Inactive)
REMARK    1  A    between atoms: C_6  and  C_10
REMARK    2  A    between atoms: C_12  and  N_16
REMARK    3  A    between atoms: C_14  and  O_19
REMARK    4  A    between atoms: N_16  and  S_21
REMARK    5  A    between atoms: N_18  and  C_23
REMARK    6  A    between atoms: S_21  and  C_27
REMARK    7  A    between atoms: C_23  and  C_29
REMARK    8  A    between atoms: C_27  and  C_31
REMARK    9  A    between atoms: C_27  and  C_32
REMARK   10  A    between atoms: C_29  and  C_34
REMARK   11  A    between atoms: C_34  and  C_35
REMARK   12  A    between atoms: C_34  and  C_36
REMARK                            x       y       z     vdW  Elec       q    Type
REMARK                         _______ _______ _______ _____ _____    ______ ____
ROOT
ATOM      1  S   UNL     1     -11.352  54.428  48.162  0.00  0.00    +0.000 S 
ATOM      2  O   UNL     1     -12.250  53.341  47.841  0.00  0.00    +0.000 OA
ATOM      3  O   UNL     1     -11.185  55.545  47.252  0.00  0.00    +0.000 OA
ATOM      4  N   UNL     1      -9.885  53.794  48.434  0.00  0.00    +0.000 N 
ATOM      5  C   UNL     1     -11.930  55.126  49.666  0.00  0.00    +0.000 A 
ATOM      6  C   UNL     1      -9.376  53.749  49.631  0.00  0.00    +0.000 C 
ATOM      7  C   UNL     1     -11.168  54.925  50.807  0.00  0.00    +0.000 A 
ATOM      8  C   UNL     1     -13.107  55.880  49.679  0.00  0.00    +0.000 A 
ATOM      9  N   UNL     1      -9.997  54.175  50.782  0.00  0.00    +0.000 N 
ATOM     10  C   UNL     1     -11.642  55.433  52.019  0.00  0.00    +0.000 A 
ATOM     11  C   UNL     1     -13.541  56.405  50.892  0.00  0.00    +0.000 A 
ATOM     12  C   UNL     1     -12.821  56.175  52.061  0.00  0.00    +0.000 A 
ATOM     13  H   UNL     1      -9.368  53.434  47.678  0.00  0.00    +0.000 HD
ATOM     14  H   UNL     1      -9.585  53.934  51.643  0.00  0.00    +0.000 HD
ENDROOT
BRANCH   6  15
ATOM     15  C   UNL     1      -7.968  53.206  49.739  0.00  0.00    +0.000 A 
ATOM     16  C   UNL     1      -6.958  53.926  50.583  0.00  0.00    +0.000 A 
ATOM     17  C   UNL     1      -7.615  52.076  49.096  0.00  0.00    +0.000 A 
ATOM     18  O   UNL     1      -7.331  54.897  51.250  0.00  0.00    +0.000 OA
ATOM     19  N   UNL     1      -5.658  53.471  50.584  0.00  0.00    +0.000 N 
ATOM     20  C   UNL     1      -6.230  51.603  49.145  0.00  0.00    +0.000 A 
ATOM     21  C   UNL     1      -5.264  52.319  49.854  0.00  0.00    +0.000 A 
ATOM     22  C   UNL     1      -5.818  50.459  48.449  0.00  0.00    +0.000 A 
ATOM     23  N   UNL     1      -3.959  51.954  49.881  0.00  0.00    +0.000 NA
ATOM     24  C   UNL     1      -4.483  50.079  48.465  0.00  0.00    +0.000 A 
ATOM     25  C   UNL     1      -3.597  50.855  49.186  0.00  0.00    +0.000 A 
BRANCH  17  26
ATOM     26  O   UNL     1      -8.473  51.297  48.342  0.00  0.00    +0.000 OA
ATOM     27  H   UNL     1      -8.216  50.435  48.080  0.00  0.00    +0.000 HD
ENDBRANCH  17  26
BRANCH  19  28
ATOM     28  C   UNL     1      -4.629  54.212  51.319  0.00  0.00    +0.000 C 
BRANCH  28  29
ATOM     29  C   UNL     1      -4.565  53.784  52.792  0.00  0.00    +0.000 C 
BRANCH  29  30
ATOM     30  C   UNL     1      -4.951  54.891  53.793  0.00  0.00    +0.000 C 
ATOM     31  C   UNL     1      -5.895  54.396  54.889  0.00  0.00    +0.000 C 
ATOM     32  C   UNL     1      -3.683  55.464  54.436  0.00  0.00    +0.000 C 
ENDBRANCH  29  30
ENDBRANCH  28  29
ENDBRANCH  19  28
ENDBRANCH   6  15
BRANCH  11  33
ATOM     33  N   UNL     1     -14.729  57.167  50.990  0.00  0.00    +0.000 N 
ATOM     34  H   UNL     1     -15.611  56.731  50.998  0.00  0.00    +0.000 HD
BRANCH  33  35
ATOM     35  S   UNL     1     -14.596  58.845  51.094  0.00  0.00    +0.000 S 
ATOM     36  O   UNL     1     -15.913  59.359  50.781  0.00  0.00    +0.000 OA
ATOM     37  O   UNL     1     -13.915  59.205  52.317  0.00  0.00    +0.000 OA
BRANCH  35  38
ATOM     38  C   UNL     1     -13.507  59.181  49.693  0.00  0.00    +0.000 C 
ATOM     39  C   UNL     1     -14.201  58.881  48.368  0.00  0.00    +0.000 C 
ATOM     40  C   UNL     1     -13.024  60.626  49.738  0.00  0.00    +0.000 C 
ENDBRANCH  35  38
ENDBRANCH  33  35
ENDBRANCH  11  33
TORSDOF 8
ENDMDL
MODEL 3
REMARK VINA RESULT:      -6.7      2.447      4.559
REMARK  Name = 353262
REMARK  12 active torsions:
REMARK  status: ('A' for Active; 'I' for Inactive)
REMARK    1  A    between atoms: C_6  and  C_10
REMARK    2  A    between atoms: C_12  and  N_16
REMARK    3  A    between atoms: C_14  and  O_19
REMARK    4  A    between atoms: N_16  and  S_21
REMARK    5  A    between atoms: N_18  and  C_23
REMARK    6  A    between atoms: S_21  and  C_27
REMARK    7  A    between atoms: C_23  and  C_29
REMARK    8  A    between atoms: C_27  and  C_31
REMARK    9  A    between atoms: C_27  and  C_32
REMARK   10  A    between atoms: C_29  and  C_34
REMARK   11  A    between atoms: C_34  and  C_35
REMARK   12  A    between atoms: C_34  and  C_36
REMARK                            x       y       z     vdW  Elec       q    Type
REMARK                         _______ _______ _______ _____ _____    ______ ____
ROOT
ATOM      1  S   UNL     1     -10.552  54.471  51.165  0.00  0.00    +0.000 S 
ATOM      2  O   UNL     1      -9.909  55.504  51.947  0.00  0.00    +0.000 OA
ATOM      3  O   UNL     1     -11.408  53.487  51.799  0.00  0.00    +0.000 OA
ATOM      4  N   UNL     1      -9.397  53.670  50.358  0.00  0.00    +0.000 N 
ATOM      5  C   UNL     1     -11.566  55.292  49.990  0.00  0.00    +0.000 A 
ATOM      6  C   UNL     1      -9.260  53.792  49.070  0.00  0.00    +0.000 C 
ATOM      7  C   UNL     1     -11.178  55.251  48.659  0.00  0.00    +0.000 A 
ATOM      8  C   UNL     1     -12.738  55.934  50.405  0.00  0.00    +0.000 A 
ATOM      9  N   UNL     1     -10.012  54.609  48.257  0.00  0.00    +0.000 N 
ATOM     10  C   UNL     1     -11.949  55.942  47.721  0.00  0.00    +0.000 A 
ATOM     11  C   UNL     1     -13.507  56.586  49.448  0.00  0.00    +0.000 A 
ATOM     12  C   UNL     1     -13.112  56.602  48.113  0.00  0.00    +0.000 A 
ATOM     13  H   UNL     1      -8.785  53.079  50.853  0.00  0.00    +0.000 HD
ATOM     14  H   UNL     1      -9.705  54.746  47.332  0.00  0.00    +0.000 HD
ENDROOT
BRANCH   6  15
ATOM     15  C   UNL     1      -8.195  52.930  48.426  0.00  0.00    +0.000 A 
ATOM     16  C   UNL     1      -8.569  51.999  47.311  0.00  0.00    +0.000 A 
ATOM     17  C   UNL     1      -6.913  52.999  48.834  0.00  0.00    +0.000 A 
ATOM     18  O   UNL     1      -9.726  52.030  46.879  0.00  0.00    +0.000 OA
ATOM     19  N   UNL     1      -7.606  51.151  46.811  0.00  0.00    +0.000 N 
ATOM     20  C   UNL     1      -5.907  52.105  48.258  0.00  0.00    +0.000 A 
ATOM     21  C   UNL     1      -6.267  51.171  47.284  0.00  0.00    +0.000 A 
ATOM     22  C   UNL     1      -4.576  52.117  48.693  0.00  0.00    +0.000 A 
ATOM     23  N   UNL     1      -5.386  50.284  46.763  0.00  0.00    +0.000 NA
ATOM     24  C   UNL     1      -3.665  51.209  48.171  0.00  0.00    +0.000 A 
ATOM     25  C   UNL     1      -4.115  50.316  47.219  0.00  0.00    +0.000 A 
BRANCH  17  26
ATOM     26  O   UNL     1      -6.441  53.860  49.807  0.00  0.00    +0.000 OA
ATOM     27  H   UNL     1      -6.180  54.730  49.578  0.00  0.00    +0.000 HD
ENDBRANCH  17  26
BRANCH  19  28
ATOM     28  C   UNL     1      -7.966  50.162  45.791  0.00  0.00    +0.000 C 
BRANCH  28  29
ATOM     29  C   UNL     1      -7.936  50.766  44.380  0.00  0.00    +0.000 C 
BRANCH  29  30
ATOM     30  C   UNL     1      -9.271  50.665  43.617  0.00  0.00    +0.000 C 
ATOM     31  C   UNL     1     -10.327  49.858  44.373  0.00  0.00    +0.000 C 
ATOM     32  C   UNL     1      -9.811  52.073  43.342  0.00  0.00    +0.000 C 
ENDBRANCH  29  30
ENDBRANCH  28  29
ENDBRANCH  19  28
ENDBRANCH   6  15
BRANCH  11  33
ATOM     33  N   UNL     1     -14.698  57.268  49.790  0.00  0.00    +0.000 N 
ATOM     34  H   UNL     1     -15.579  56.889  49.568  0.00  0.00    +0.000 HD
BRANCH  33  35
ATOM     35  S   UNL     1     -14.572  58.746  50.589  0.00  0.00    +0.000 S 
ATOM     36  O   UNL     1     -13.215  59.198  50.359  0.00  0.00    +0.000 OA
ATOM     37  O   UNL     1     -15.709  59.576  50.262  0.00  0.00    +0.000 OA
BRANCH  35  38
ATOM     38  C   UNL     1     -14.708  58.210  52.308  0.00  0.00    +0.000 C 
ATOM     39  C   UNL     1     -15.281  59.316  53.189  0.00  0.00    +0.000 C 
ATOM     40  C   UNL     1     -15.558  56.948  52.399  0.00  0.00    +0.000 C 
ENDBRANCH  35  38
ENDBRANCH  33  35
ENDBRANCH  11  33
TORSDOF 8
ENDMDL
MODEL 4
REMARK VINA RESULT:      -6.7      2.153      2.791
REMARK  Name = 353262
REMARK  12 active torsions:
REMARK  status: ('A' for Active; 'I' for Inactive)
REMARK    1  A    between atoms: C_6  and  C_10
REMARK    2  A    between atoms: C_12  and  N_16
REMARK    3  A    between atoms: C_14  and  O_19
REMARK    4  A    between atoms: N_16  and  S_21
REMARK    5  A    between atoms: N_18  and  C_23
REMARK    6  A    between atoms: S_21  and  C_27
REMARK    7  A    between atoms: C_23  and  C_29
REMARK    8  A    between atoms: C_27  and  C_31
REMARK    9  A    between atoms: C_27  and  C_32
REMARK   10  A    between atoms: C_29  and  C_34
REMARK   11  A    between atoms: C_34  and  C_35
REMARK   12  A    between atoms: C_34  and  C_36
REMARK                            x       y       z     vdW  Elec       q    Type
REMARK                         _______ _______ _______ _____ _____    ______ ____
ROOT
ATOM      1  S   UNL     1      -9.310  54.341  47.629  0.00  0.00    +0.000 S 
ATOM      2  O   UNL     1      -9.756  53.604  46.468  0.00  0.00    +0.000 OA
ATOM      3  O   UNL     1      -8.749  55.671  47.493  0.00  0.00    +0.000 OA
ATOM      4  N   UNL     1      -8.220  53.426  48.406  0.00  0.00    +0.000 N 
ATOM      5  C   UNL     1     -10.710  54.523  48.674  0.00  0.00    +0.000 A 
ATOM      6  C   UNL     1      -8.494  52.866  49.549  0.00  0.00    +0.000 C 
ATOM      7  C   UNL     1     -10.732  53.800  49.858  0.00  0.00    +0.000 A 
ATOM      8  C   UNL     1     -11.740  55.397  48.315  0.00  0.00    +0.000 A 
ATOM      9  N   UNL     1      -9.700  52.935  50.206  0.00  0.00    +0.000 N 
ATOM     10  C   UNL     1     -11.861  53.898  50.673  0.00  0.00    +0.000 A 
ATOM     11  C   UNL     1     -12.839  55.504  49.160  0.00  0.00    +0.000 A 
ATOM     12  C   UNL     1     -12.909  54.751  50.329  0.00  0.00    +0.000 A 
ATOM     13  H   UNL     1      -7.332  53.290  48.005  0.00  0.00    +0.000 HD
ATOM     14  H   UNL     1      -9.842  52.334  50.972  0.00  0.00    +0.000 HD
ENDROOT
BRANCH   6  15
ATOM     15  C   UNL     1      -7.365  52.104  50.208  0.00  0.00    +0.000 A 
ATOM     16  C   UNL     1      -7.078  52.316  51.665  0.00  0.00    +0.000 A 
ATOM     17  C   UNL     1      -6.622  51.228  49.504  0.00  0.00    +0.000 A 
ATOM     18  O   UNL     1      -7.839  53.040  52.316  0.00  0.00    +0.000 OA
ATOM     19  N   UNL     1      -5.983  51.691  52.217  0.00  0.00    +0.000 N 
ATOM     20  C   UNL     1      -5.484  50.555  50.131  0.00  0.00    +0.000 A 
ATOM     21  C   UNL     1      -5.155  50.817  51.463  0.00  0.00    +0.000 A 
ATOM     22  C   UNL     1      -4.662  49.675  49.416  0.00  0.00    +0.000 A 
ATOM     23  N   UNL     1      -4.078  50.265  52.072  0.00  0.00    +0.000 NA
ATOM     24  C   UNL     1      -3.552  49.108  50.027  0.00  0.00    +0.000 A 
ATOM     25  C   UNL     1      -3.301  49.434  51.345  0.00  0.00    +0.000 A 
BRANCH  17  26
ATOM     26  O   UNL     1      -6.831  50.906  48.175  0.00  0.00    +0.000 OA
ATOM     27  H   UNL     1      -6.127  50.971  47.560  0.00  0.00    +0.000 HD
ENDBRANCH  17  26
BRANCH  19  28
ATOM     28  C   UNL     1      -5.621  51.957  53.612  0.00  0.00    +0.000 C 
BRANCH  28  29
ATOM     29  C   UNL     1      -4.535  53.037  53.720  0.00  0.00    +0.000 C 
BRANCH  29  30
ATOM     30  C   UNL     1      -5.079  54.470  53.887  0.00  0.00    +0.000 C 
ATOM     31  C   UNL     1      -6.164  54.571  54.959  0.00  0.00    +0.000 C 
ATOM     32  C   UNL     1      -3.927  55.417  54.240  0.00  0.00    +0.000 C 
ENDBRANCH  29  30
ENDBRANCH  28  29
ENDBRANCH  19  28
ENDBRANCH   6  15
BRANCH  11  33
ATOM     33  N   UNL     1     -13.927  56.357  48.861  0.00  0.00    +0.000 N 
ATOM     34  H   UNL     1     -14.710  56.023  48.366  0.00  0.00    +0.000 HD
BRANCH  33  35
ATOM     35  S   UNL     1     -13.852  57.960  49.375  0.00  0.00    +0.000 S 
ATOM     36  O   UNL     1     -12.516  58.135  49.907  0.00  0.00    +0.000 OA
ATOM     37  O   UNL     1     -14.373  58.828  48.343  0.00  0.00    +0.000 OA
BRANCH  35  38
ATOM     38  C   UNL     1     -15.013  57.924  50.757  0.00  0.00    +0.000 C 
ATOM     39  C   UNL     1     -15.946  56.720  50.665  0.00  0.00    +0.000 C 
ATOM     40  C   UNL     1     -14.257  57.925  52.080  0.00  0.00    +0.000 C 
ENDBRANCH  35  38
ENDBRANCH  33  35
ENDBRANCH  11  33
TORSDOF 8
ENDMDL
MODEL 5
REMARK VINA RESULT:      -6.6      2.371      3.206
REMARK  Name = 353262
REMARK  12 active torsions:
REMARK  status: ('A' for Active; 'I' for Inactive)
REMARK    1  A    between atoms: C_6  and  C_10
REMARK    2  A    between atoms: C_12  and  N_16
REMARK    3  A    between atoms: C_14  and  O_19
REMARK    4  A    between atoms: N_16  and  S_21
REMARK    5  A    between atoms: N_18  and  C_23
REMARK    6  A    between atoms: S_21  and  C_27
REMARK    7  A    between atoms: C_23  and  C_29
REMARK    8  A    between atoms: C_27  and  C_31
REMARK    9  A    between atoms: C_27  and  C_32
REMARK   10  A    between atoms: C_29  and  C_34
REMARK   11  A    between atoms: C_34  and  C_35
REMARK   12  A    between atoms: C_34  and  C_36
REMARK                            x       y       z     vdW  Elec       q    Type
REMARK                         _______ _______ _______ _____ _____    ______ ____
ROOT
ATOM      1  S   UNL     1     -11.343  53.824  50.760  0.00  0.00    +0.000 S 
ATOM      2  O   UNL     1     -10.524  54.654  51.615  0.00  0.00    +0.000 OA
ATOM      3  O   UNL     1     -12.327  52.921  51.324  0.00  0.00    +0.000 OA
ATOM      4  N   UNL     1     -10.351  52.947  49.824  0.00  0.00    +0.000 N 
ATOM      5  C   UNL     1     -12.246  54.915  49.721  0.00  0.00    +0.000 A 
ATOM      6  C   UNL     1     -10.230  53.186  48.551  0.00  0.00    +0.000 C 
ATOM      7  C   UNL     1     -11.904  54.959  48.377  0.00  0.00    +0.000 A 
ATOM      8  C   UNL     1     -13.289  55.680  50.250  0.00  0.00    +0.000 A 
ATOM      9  N   UNL     1     -10.865  54.192  47.861  0.00  0.00    +0.000 N 
ATOM     10  C   UNL     1     -12.581  55.858  47.550  0.00  0.00    +0.000 A 
ATOM     11  C   UNL     1     -13.971  56.544  49.399  0.00  0.00    +0.000 A 
ATOM     12  C   UNL     1     -13.614  56.644  48.057  0.00  0.00    +0.000 A 
ATOM     13  H   UNL     1      -9.827  52.218  50.229  0.00  0.00    +0.000 HD
ATOM     14  H   UNL     1     -10.565  54.380  46.942  0.00  0.00    +0.000 HD
ENDROOT
BRANCH   6  15
ATOM     15  C   UNL     1      -9.332  52.245  47.776  0.00  0.00    +0.000 A 
ATOM     16  C   UNL     1      -7.975  51.903  48.316  0.00  0.00    +0.000 A 
ATOM     17  C   UNL     1      -9.743  51.702  46.614  0.00  0.00    +0.000 A 
ATOM     18  O   UNL     1      -7.662  52.324  49.435  0.00  0.00    +0.000 OA
ATOM     19  N   UNL     1      -7.138  51.129  47.545  0.00  0.00    +0.000 N 
ATOM     20  C   UNL     1      -8.837  50.857  45.834  0.00  0.00    +0.000 A 
ATOM     21  C   UNL     1      -7.540  50.608  46.286  0.00  0.00    +0.000 A 
ATOM     22  C   UNL     1      -9.215  50.316  44.599  0.00  0.00    +0.000 A 
ATOM     23  N   UNL     1      -6.645  49.881  45.574  0.00  0.00    +0.000 NA
ATOM     24  C   UNL     1      -8.305  49.575  43.857  0.00  0.00    +0.000 A 
ATOM     25  C   UNL     1      -7.041  49.389  44.381  0.00  0.00    +0.000 A 
BRANCH  17  26
ATOM     26  O   UNL     1     -10.991  51.897  46.051  0.00  0.00    +0.000 OA
ATOM     27  H   UNL     1     -11.458  52.694  46.208  0.00  0.00    +0.000 HD
ENDBRANCH  17  26
BRANCH  19  28
ATOM     28  C   UNL     1      -5.771  50.860  48.002  0.00  0.00    +0.000 C 
BRANCH  28  29
ATOM     29  C   UNL     1      -4.808  51.988  47.604  0.00  0.00    +0.000 C 
BRANCH  29  30
ATOM     30  C   UNL     1      -4.144  52.707  48.795  0.00  0.00    +0.000 C 
ATOM     31  C   UNL     1      -4.747  54.085  49.065  0.00  0.00    +0.000 C 
ATOM     32  C   UNL     1      -4.274  51.841  50.053  0.00  0.00    +0.000 C 
ENDBRANCH  29  30
ENDBRANCH  28  29
ENDBRANCH  19  28
ENDBRANCH   6  15
BRANCH  11  33
ATOM     33  N   UNL     1     -15.030  57.360  49.861  0.00  0.00    +0.000 N 
ATOM     34  H   UNL     1     -15.968  57.107  49.705  0.00  0.00    +0.000 HD
BRANCH  33  35
ATOM     35  S   UNL     1     -14.645  58.777  50.689  0.00  0.00    +0.000 S 
ATOM     36  O   UNL     1     -13.248  59.028  50.400  0.00  0.00    +0.000 OA
ATOM     37  O   UNL     1     -15.659  59.777  50.440  0.00  0.00    +0.000 OA
BRANCH  35  38
ATOM     38  C   UNL     1     -14.780  58.213  52.398  0.00  0.00    +0.000 C 
ATOM     39  C   UNL     1     -15.300  59.322  53.308  0.00  0.00    +0.000 C 
ATOM     40  C   UNL     1     -15.674  56.982  52.477  0.00  0.00    +0.000 C 
ENDBRANCH  35  38
ENDBRANCH  33  35
ENDBRANCH  11  33
TORSDOF 8
ENDMDL
MODEL 6
REMARK VINA RESULT:      -6.6      3.367      9.577
REMARK  Name = 353262
REMARK  12 active torsions:
REMARK  status: ('A' for Active; 'I' for Inactive)
REMARK    1  A    between atoms: C_6  and  C_10
REMARK    2  A    between atoms: C_12  and  N_16
REMARK    3  A    between atoms: C_14  and  O_19
REMARK    4  A    between atoms: N_16  and  S_21
REMARK    5  A    between atoms: N_18  and  C_23
REMARK    6  A    between atoms: S_21  and  C_27
REMARK    7  A    between atoms: C_23  and  C_29
REMARK    8  A    between atoms: C_27  and  C_31
REMARK    9  A    between atoms: C_27  and  C_32
REMARK   10  A    between atoms: C_29  and  C_34
REMARK   11  A    between atoms: C_34  and  C_35
REMARK   12  A    between atoms: C_34  and  C_36
REMARK                            x       y       z     vdW  Elec       q    Type
REMARK                         _______ _______ _______ _____ _____    ______ ____
ROOT
ATOM      1  S   UNL     1      -7.172  55.405  52.316  0.00  0.00    +0.000 S 
ATOM      2  O   UNL     1      -7.004  56.190  53.518  0.00  0.00    +0.000 OA
ATOM      3  O   UNL     1      -6.143  55.383  51.294  0.00  0.00    +0.000 OA
ATOM      4  N   UNL     1      -8.555  55.872  51.610  0.00  0.00    +0.000 N 
ATOM      5  C   UNL     1      -7.362  53.737  52.831  0.00  0.00    +0.000 A 
ATOM      6  C   UNL     1      -9.605  55.104  51.599  0.00  0.00    +0.000 C 
ATOM      7  C   UNL     1      -8.614  53.155  52.693  0.00  0.00    +0.000 A 
ATOM      8  C   UNL     1      -6.264  53.031  53.331  0.00  0.00    +0.000 A 
ATOM      9  N   UNL     1      -9.699  53.866  52.192  0.00  0.00    +0.000 N 
ATOM     10  C   UNL     1      -8.790  51.845  53.145  0.00  0.00    +0.000 A 
ATOM     11  C   UNL     1      -6.456  51.717  53.743  0.00  0.00    +0.000 A 
ATOM     12  C   UNL     1      -7.714  51.126  53.663  0.00  0.00    +0.000 A 
ATOM     13  H   UNL     1      -8.601  56.756  51.180  0.00  0.00    +0.000 HD
ATOM     14  H   UNL     1     -10.592  53.457  52.264  0.00  0.00    +0.000 HD
ENDROOT
BRANCH   6  15
ATOM     15  C   UNL     1     -10.807  55.624  50.839  0.00  0.00    +0.000 A 
ATOM     16  C   UNL     1     -12.069  55.951  51.581  0.00  0.00    +0.000 A 
ATOM     17  C   UNL     1     -10.751  55.808  49.506  0.00  0.00    +0.000 A 
ATOM     18  O   UNL     1     -12.063  55.879  52.815  0.00  0.00    +0.000 OA
ATOM     19  N   UNL     1     -13.179  56.324  50.857  0.00  0.00    +0.000 N 
ATOM     20  C   UNL     1     -11.943  56.236  48.771  0.00  0.00    +0.000 A 
ATOM     21  C   UNL     1     -13.147  56.454  49.444  0.00  0.00    +0.000 A 
ATOM     22  C   UNL     1     -11.933  56.390  47.379  0.00  0.00    +0.000 A 
ATOM     23  N   UNL     1     -14.290  56.795  48.802  0.00  0.00    +0.000 NA
ATOM     24  C   UNL     1     -13.100  56.733  46.709  0.00  0.00    +0.000 A 
ATOM     25  C   UNL     1     -14.246  56.919  47.458  0.00  0.00    +0.000 A 
BRANCH  17  26
ATOM     26  O   UNL     1      -9.628  55.598  48.727  0.00  0.00    +0.000 OA
ATOM     27  H   UNL     1      -9.514  56.076  47.930  0.00  0.00    +0.000 HD
ENDBRANCH  17  26
BRANCH  19  28
ATOM     28  C   UNL     1     -14.452  56.554  51.546  0.00  0.00    +0.000 C 
BRANCH  28  29
ATOM     29  C   UNL     1     -14.292  57.521  52.727  0.00  0.00    +0.000 C 
BRANCH  29  30
ATOM     30  C   UNL     1     -14.639  58.987  52.400  0.00  0.00    +0.000 C 
ATOM     31  C   UNL     1     -15.272  59.152  51.018  0.00  0.00    +0.000 C 
ATOM     32  C   UNL     1     -15.595  59.537  53.464  0.00  0.00    +0.000 C 
ENDBRANCH  29  30
ENDBRANCH  28  29
ENDBRANCH  19  28
ENDBRANCH   6  15
BRANCH  11  33
ATOM     33  N   UNL     1      -5.398  50.941  54.272  0.00  0.00    +0.000 N 
ATOM     34  H   UNL     1      -5.495  50.474  55.133  0.00  0.00    +0.000 HD
BRANCH  33  35
ATOM     35  S   UNL     1      -3.965  50.835  53.390  0.00  0.00    +0.000 S 
ATOM     36  O   UNL     1      -3.301  52.109  53.574  0.00  0.00    +0.000 OA
ATOM     37  O   UNL     1      -3.300  49.586  53.689  0.00  0.00    +0.000 OA
BRANCH  35  38
ATOM     38  C   UNL     1      -4.613  50.769  51.706  0.00  0.00    +0.000 C 
ATOM     39  C   UNL     1      -3.574  51.240  50.694  0.00  0.00    +0.000 C 
ATOM     40  C   UNL     1      -5.088  49.358  51.380  0.00  0.00    +0.000 C 
ENDBRANCH  35  38
ENDBRANCH  33  35
ENDBRANCH  11  33
TORSDOF 8
ENDMDL
MODEL 7
REMARK VINA RESULT:      -6.5      3.467      9.386
REMARK  Name = 353262
REMARK  12 active torsions:
REMARK  status: ('A' for Active; 'I' for Inactive)
REMARK    1  A    between atoms: C_6  and  C_10
REMARK    2  A    between atoms: C_12  and  N_16
REMARK    3  A    between atoms: C_14  and  O_19
REMARK    4  A    between atoms: N_16  and  S_21
REMARK    5  A    between atoms: N_18  and  C_23
REMARK    6  A    between atoms: S_21  and  C_27
REMARK    7  A    between atoms: C_23  and  C_29
REMARK    8  A    between atoms: C_27  and  C_31
REMARK    9  A    between atoms: C_27  and  C_32
REMARK   10  A    between atoms: C_29  and  C_34
REMARK   11  A    between atoms: C_34  and  C_35
REMARK   12  A    between atoms: C_34  and  C_36
REMARK                            x       y       z     vdW  Elec       q    Type
REMARK                         _______ _______ _______ _____ _____    ______ ____
ROOT
ATOM      1  S   UNL     1      -8.184  55.289  53.116  0.00  0.00    +0.000 S 
ATOM      2  O   UNL     1      -8.834  55.460  54.395  0.00  0.00    +0.000 OA
ATOM      3  O   UNL     1      -6.954  55.993  52.808  0.00  0.00    +0.000 OA
ATOM      4  N   UNL     1      -9.261  55.655  51.960  0.00  0.00    +0.000 N 
ATOM      5  C   UNL     1      -7.798  53.581  52.976  0.00  0.00    +0.000 A 
ATOM      6  C   UNL     1      -9.781  54.736  51.200  0.00  0.00    +0.000 C 
ATOM      7  C   UNL     1      -8.518  52.828  52.061  0.00  0.00    +0.000 A 
ATOM      8  C   UNL     1      -6.773  53.031  53.752  0.00  0.00    +0.000 A 
ATOM      9  N   UNL     1      -9.534  53.386  51.292  0.00  0.00    +0.000 N 
ATOM     10  C   UNL     1      -8.255  51.459  51.975  0.00  0.00    +0.000 A 
ATOM     11  C   UNL     1      -6.507  51.672  53.625  0.00  0.00    +0.000 A 
ATOM     12  C   UNL     1      -7.249  50.883  52.750  0.00  0.00    +0.000 A 
ATOM     13  H   UNL     1      -9.527  56.594  51.831  0.00  0.00    +0.000 HD
ATOM     14  H   UNL     1     -10.112  52.777  50.779  0.00  0.00    +0.000 HD
ENDROOT
BRANCH   6  15
ATOM     15  C   UNL     1     -10.712  55.219  50.109  0.00  0.00    +0.000 A 
ATOM     16  C   UNL     1     -10.411  54.887  48.677  0.00  0.00    +0.000 A 
ATOM     17  C   UNL     1     -11.815  55.931  50.410  0.00  0.00    +0.000 A 
ATOM     18  O   UNL     1      -9.456  54.142  48.432  0.00  0.00    +0.000 OA
ATOM     19  N   UNL     1     -11.214  55.423  47.696  0.00  0.00    +0.000 N 
ATOM     20  C   UNL     1     -12.665  56.460  49.342  0.00  0.00    +0.000 A 
ATOM     21  C   UNL     1     -12.340  56.232  48.003  0.00  0.00    +0.000 A 
ATOM     22  C   UNL     1     -13.792  57.244  49.618  0.00  0.00    +0.000 A 
ATOM     23  N   UNL     1     -13.062  56.748  46.979  0.00  0.00    +0.000 NA
ATOM     24  C   UNL     1     -14.536  57.783  48.577  0.00  0.00    +0.000 A 
ATOM     25  C   UNL     1     -14.132  57.512  47.285  0.00  0.00    +0.000 A 
BRANCH  17  26
ATOM     26  O   UNL     1     -12.225  56.245  51.693  0.00  0.00    +0.000 OA
ATOM     27  H   UNL     1     -13.098  56.548  51.846  0.00  0.00    +0.000 HD
ENDBRANCH  17  26
BRANCH  19  28
ATOM     28  C   UNL     1     -10.887  55.199  46.285  0.00  0.00    +0.000 C 
BRANCH  28  29
ATOM     29  C   UNL     1     -11.789  54.128  45.656  0.00  0.00    +0.000 C 
BRANCH  29  30
ATOM     30  C   UNL     1     -11.068  52.809  45.314  0.00  0.00    +0.000 C 
ATOM     31  C   UNL     1     -12.026  51.624  45.191  0.00  0.00    +0.000 C 
ATOM     32  C   UNL     1     -10.294  52.974  44.001  0.00  0.00    +0.000 C 
ENDBRANCH  29  30
ENDBRANCH  28  29
ENDBRANCH  19  28
ENDBRANCH   6  15
BRANCH  11  33
ATOM     33  N   UNL     1      -5.495  51.038  54.384  0.00  0.00    +0.000 N 
ATOM     34  H   UNL     1      -5.686  50.680  55.281  0.00  0.00    +0.000 HD
BRANCH  33  35
ATOM     35  S   UNL     1      -3.953  50.912  53.715  0.00  0.00    +0.000 S 
ATOM     36  O   UNL     1      -3.356  52.224  53.866  0.00  0.00    +0.000 OA
ATOM     37  O   UNL     1      -3.300  49.724  54.215  0.00  0.00    +0.000 OA
BRANCH  35  38
ATOM     38  C   UNL     1      -4.363  50.672  51.973  0.00  0.00    +0.000 C 
ATOM     39  C   UNL     1      -3.812  51.804  51.113  0.00  0.00    +0.000 C 
ATOM     40  C   UNL     1      -3.843  49.322  51.493  0.00  0.00    +0.000 C 
ENDBRANCH  35  38
ENDBRANCH  33  35
ENDBRANCH  11  33
TORSDOF 8
ENDMDL
MODEL 8
REMARK VINA RESULT:      -6.1      1.987      4.031
REMARK  Name = 353262
REMARK  12 active torsions:
REMARK  status: ('A' for Active; 'I' for Inactive)
REMARK    1  A    between atoms: C_6  and  C_10
REMARK    2  A    between atoms: C_12  and  N_16
REMARK    3  A    between atoms: C_14  and  O_19
REMARK    4  A    between atoms: N_16  and  S_21
REMARK    5  A    between atoms: N_18  and  C_23
REMARK    6  A    between atoms: S_21  and  C_27
REMARK    7  A    between atoms: C_23  and  C_29
REMARK    8  A    between atoms: C_27  and  C_31
REMARK    9  A    between atoms: C_27  and  C_32
REMARK   10  A    between atoms: C_29  and  C_34
REMARK   11  A    between atoms: C_34  and  C_35
REMARK   12  A    between atoms: C_34  and  C_36
REMARK                            x       y       z     vdW  Elec       q    Type
REMARK                         _______ _______ _______ _____ _____    ______ ____
ROOT
ATOM      1  S   UNL     1      -8.788  55.811  49.242  0.00  0.00    +0.000 S 
ATOM      2  O   UNL     1      -8.907  55.772  47.802  0.00  0.00    +0.000 OA
ATOM      3  O   UNL     1      -8.473  57.050  49.927  0.00  0.00    +0.000 OA
ATOM      4  N   UNL     1      -7.676  54.714  49.676  0.00  0.00    +0.000 N 
ATOM      5  C   UNL     1     -10.339  55.297  49.886  0.00  0.00    +0.000 A 
ATOM      6  C   UNL     1      -8.009  53.612  50.284  0.00  0.00    +0.000 C 
ATOM      7  C   UNL     1     -10.404  54.055  50.503  0.00  0.00    +0.000 A 
ATOM      8  C   UNL     1     -11.449  56.141  49.793  0.00  0.00    +0.000 A 
ATOM      9  N   UNL     1      -9.292  53.224  50.591  0.00  0.00    +0.000 N 
ATOM     10  C   UNL     1     -11.641  53.614  50.975  0.00  0.00    +0.000 A 
ATOM     11  C   UNL     1     -12.663  55.693  50.301  0.00  0.00    +0.000 A 
ATOM     12  C   UNL     1     -12.766  54.431  50.880  0.00  0.00    +0.000 A 
ATOM     13  H   UNL     1      -6.728  54.884  49.475  0.00  0.00    +0.000 HD
ATOM     14  H   UNL     1      -9.432  52.298  50.895  0.00  0.00    +0.000 HD
ENDROOT
BRANCH   6  15
ATOM     15  C   UNL     1      -6.870  52.710  50.705  0.00  0.00    +0.000 A 
ATOM     16  C   UNL     1      -6.398  51.630  49.777  0.00  0.00    +0.000 A 
ATOM     17  C   UNL     1      -6.267  52.873  51.899  0.00  0.00    +0.000 A 
ATOM     18  O   UNL     1      -6.890  51.567  48.646  0.00  0.00    +0.000 OA
ATOM     19  N   UNL     1      -5.431  50.757  50.223  0.00  0.00    +0.000 N 
ATOM     20  C   UNL     1      -5.220  51.945  52.329  0.00  0.00    +0.000 A 
ATOM     21  C   UNL     1      -4.838  50.882  51.508  0.00  0.00    +0.000 A 
ATOM     22  C   UNL     1      -4.606  52.057  53.583  0.00  0.00    +0.000 A 
ATOM     23  N   UNL     1      -3.916  49.963  51.884  0.00  0.00    +0.000 NA
ATOM     24  C   UNL     1      -3.664  51.118  53.982  0.00  0.00    +0.000 A 
ATOM     25  C   UNL     1      -3.358  50.095  53.106  0.00  0.00    +0.000 A 
BRANCH  17  26
ATOM     26  O   UNL     1      -6.576  53.868  52.808  0.00  0.00    +0.000 OA
ATOM     27  H   UNL     1      -5.907  54.225  53.359  0.00  0.00    +0.000 HD
ENDBRANCH  17  26
BRANCH  19  28
ATOM     28  C   UNL     1      -5.020  49.632  49.377  0.00  0.00    +0.000 C 
BRANCH  28  29
ATOM     29  C   UNL     1      -3.618  49.846  48.790  0.00  0.00    +0.000 C 
BRANCH  29  30
ATOM     30  C   UNL     1      -3.608  50.411  47.356  0.00  0.00    +0.000 C 
ATOM     31  C   UNL     1      -4.863  50.042  46.565  0.00  0.00    +0.000 C 
ATOM     32  C   UNL     1      -3.471  51.937  47.408  0.00  0.00    +0.000 C 
ENDBRANCH  29  30
ENDBRANCH  28  29
ENDBRANCH  19  28
ENDBRANCH   6  15
BRANCH  11  33
ATOM     33  N   UNL     1     -13.834  56.484  50.235  0.00  0.00    +0.000 N 
ATOM     34  H   UNL     1     -14.346  56.559  49.397  0.00  0.00    +0.000 HD
BRANCH  33  35
ATOM     35  S   UNL     1     -14.332  57.296  51.626  0.00  0.00    +0.000 S 
ATOM     36  O   UNL     1     -15.734  56.969  51.786  0.00  0.00    +0.000 OA
ATOM     37  O   UNL     1     -13.378  57.071  52.689  0.00  0.00    +0.000 OA
BRANCH  35  38
ATOM     38  C   UNL     1     -14.207  59.011  51.075  0.00  0.00    +0.000 C 
ATOM     39  C   UNL     1     -13.570  59.103  49.692  0.00  0.00    +0.000 C 
ATOM     40  C   UNL     1     -15.583  59.667  51.084  0.00  0.00    +0.000 C 
ENDBRANCH  35  38
ENDBRANCH  33  35
ENDBRANCH  11  33
TORSDOF 8
ENDMDL
MODEL 9
REMARK VINA RESULT:      -5.9      2.692      9.299
REMARK  Name = 353262
REMARK  12 active torsions:
REMARK  status: ('A' for Active; 'I' for Inactive)
REMARK    1  A    between atoms: C_6  and  C_10
REMARK    2  A    between atoms: C_12  and  N_16
REMARK    3  A    between atoms: C_14  and  O_19
REMARK    4  A    between atoms: N_16  and  S_21
REMARK    5  A    between atoms: N_18  and  C_23
REMARK    6  A    between atoms: S_21  and  C_27
REMARK    7  A    between atoms: C_23  and  C_29
REMARK    8  A    between atoms: C_27  and  C_31
REMARK    9  A    between atoms: C_27  and  C_32
REMARK   10  A    between atoms: C_29  and  C_34
REMARK   11  A    between atoms: C_34  and  C_35
REMARK   12  A    between atoms: C_34  and  C_36
REMARK                            x       y       z     vdW  Elec       q    Type
REMARK                         _______ _______ _______ _____ _____    ______ ____
ROOT
ATOM      1  S   UNL     1     -10.195  51.614  52.023  0.00  0.00    +0.000 S 
ATOM      2  O   UNL     1     -10.932  50.426  51.656  0.00  0.00    +0.000 OA
ATOM      3  O   UNL     1      -9.866  51.885  53.409  0.00  0.00    +0.000 OA
ATOM      4  N   UNL     1     -11.007  52.896  51.452  0.00  0.00    +0.000 N 
ATOM      5  C   UNL     1      -8.656  51.528  51.181  0.00  0.00    +0.000 A 
ATOM      6  C   UNL     1     -10.558  53.593  50.450  0.00  0.00    +0.000 C 
ATOM      7  C   UNL     1      -8.439  52.416  50.137  0.00  0.00    +0.000 A 
ATOM      8  C   UNL     1      -7.687  50.606  51.588  0.00  0.00    +0.000 A 
ATOM      9  N   UNL     1      -9.409  53.331  49.741  0.00  0.00    +0.000 N 
ATOM     10  C   UNL     1      -7.240  52.324  49.427  0.00  0.00    +0.000 A 
ATOM     11  C   UNL     1      -6.487  50.557  50.888  0.00  0.00    +0.000 A 
ATOM     12  C   UNL     1      -6.265  51.402  49.804  0.00  0.00    +0.000 A 
ATOM     13  H   UNL     1     -11.859  53.152  51.873  0.00  0.00    +0.000 HD
ATOM     14  H   UNL     1      -9.263  53.823  48.901  0.00  0.00    +0.000 HD
ENDROOT
BRANCH   6  15
ATOM     15  C   UNL     1     -11.371  54.812  50.065  0.00  0.00    +0.000 A 
ATOM     16  C   UNL     1     -11.754  55.809  51.118  0.00  0.00    +0.000 A 
ATOM     17  C   UNL     1     -11.742  55.016  48.786  0.00  0.00    +0.000 A 
ATOM     18  O   UNL     1     -11.311  55.660  52.261  0.00  0.00    +0.000 OA
ATOM     19  N   UNL     1     -12.579  56.853  50.764  0.00  0.00    +0.000 N 
ATOM     20  C   UNL     1     -12.594  56.155  48.440  0.00  0.00    +0.000 A 
ATOM     21  C   UNL     1     -13.030  57.037  49.430  0.00  0.00    +0.000 A 
ATOM     22  C   UNL     1     -13.038  56.370  47.129  0.00  0.00    +0.000 A 
ATOM     23  N   UNL     1     -13.866  58.072  49.169  0.00  0.00    +0.000 NA
ATOM     24  C   UNL     1     -13.899  57.423  46.851  0.00  0.00    +0.000 A 
ATOM     25  C   UNL     1     -14.285  58.238  47.896  0.00  0.00    +0.000 A 
BRANCH  17  26
ATOM     26  O   UNL     1     -11.398  54.199  47.726  0.00  0.00    +0.000 OA
ATOM     27  H   UNL     1     -10.876  53.435  47.872  0.00  0.00    +0.000 HD
ENDBRANCH  17  26
BRANCH  19  28
ATOM     28  C   UNL     1     -13.050  57.787  51.790  0.00  0.00    +0.000 C 
BRANCH  28  29
ATOM     29  C   UNL     1     -13.935  57.087  52.831  0.00  0.00    +0.000 C 
BRANCH  29  30
ATOM     30  C   UNL     1     -15.395  57.580  52.860  0.00  0.00    +0.000 C 
ATOM     31  C   UNL     1     -15.507  59.104  52.817  0.00  0.00    +0.000 C 
ATOM     32  C   UNL     1     -16.161  56.981  51.675  0.00  0.00    +0.000 C 
ENDBRANCH  29  30
ENDBRANCH  28  29
ENDBRANCH  19  28
ENDBRANCH   6  15
BRANCH  11  33
ATOM     33  N   UNL     1      -5.463  49.643  51.231  0.00  0.00    +0.000 N 
ATOM     34  H   UNL     1      -5.629  48.673  51.226  0.00  0.00    +0.000 HD
BRANCH  33  35
ATOM     35  S   UNL     1      -3.950  50.258  51.647  0.00  0.00    +0.000 S 
ATOM     36  O   UNL     1      -3.301  49.210  52.408  0.00  0.00    +0.000 OA
ATOM     37  O   UNL     1      -3.324  50.843  50.483  0.00  0.00    +0.000 OA
BRANCH  35  38
ATOM     38  C   UNL     1      -4.426  51.575  52.786  0.00  0.00    +0.000 C 
ATOM     39  C   UNL     1      -4.634  51.038  54.198  0.00  0.00    +0.000 C 
ATOM     40  C   UNL     1      -3.379  52.683  52.775  0.00  0.00    +0.000 C 
ENDBRANCH  35  38
ENDBRANCH  33  35
ENDBRANCH  11  33
TORSDOF 8
ENDMDL
