MODEL 1
REMARK VINA RESULT:      -6.8      0.000      0.000
REMARK  Name = 353194
REMARK  9 active torsions:
REMARK  status: ('A' for Active; 'I' for Inactive)
REMARK    1  A    between atoms: C_6  and  C_10
REMARK    2  A    between atoms: C_12  and  N_16
REMARK    3  A    between atoms: C_14  and  O_19
REMARK    4  A    between atoms: N_18  and  C_23
REMARK    5  A    between atoms: C_21  and  C_26
REMARK    6  A    between atoms: C_23  and  C_28
REMARK    7  A    between atoms: C_28  and  C_34
REMARK    8  A    between atoms: C_34  and  C_35
REMARK    9  A    between atoms: C_34  and  C_36
REMARK                            x       y       z     vdW  Elec       q    Type
REMARK                         _______ _______ _______ _____ _____    ______ ____
ROOT
ATOM      1  S   UNL     1     -10.243  55.450  47.756  0.00  0.00    +0.000 S 
ATOM      2  O   UNL     1     -11.215  55.915  46.786  0.00  0.00    +0.000 OA
ATOM      3  O   UNL     1      -9.260  56.357  48.319  0.00  0.00    +0.000 OA
ATOM      4  N   UNL     1      -9.448  54.216  47.093  0.00  0.00    +0.000 N 
ATOM      5  C   UNL     1     -11.160  54.822  49.108  0.00  0.00    +0.000 A 
ATOM      6  C   UNL     1      -9.630  52.994  47.495  0.00  0.00    +0.000 C 
ATOM      7  C   UNL     1     -11.183  53.456  49.320  0.00  0.00    +0.000 A 
ATOM      8  C   UNL     1     -11.830  55.723  49.931  0.00  0.00    +0.000 A 
ATOM      9  N   UNL     1     -10.515  52.582  48.468  0.00  0.00    +0.000 N 
ATOM     10  C   UNL     1     -11.969  52.979  50.372  0.00  0.00    +0.000 A 
ATOM     11  C   UNL     1     -12.592  55.254  50.991  0.00  0.00    +0.000 A 
ATOM     12  C   UNL     1     -12.664  53.870  51.206  0.00  0.00    +0.000 A 
ATOM     13  H   UNL     1      -8.807  54.392  46.365  0.00  0.00    +0.000 HD
ATOM     14  H   UNL     1     -10.684  51.617  48.565  0.00  0.00    +0.000 HD
ENDROOT
BRANCH   6  15
ATOM     15  C   UNL     1      -8.740  51.969  46.835  0.00  0.00    +0.000 A 
ATOM     16  C   UNL     1      -7.654  51.320  47.628  0.00  0.00    +0.000 A 
ATOM     17  C   UNL     1      -8.916  51.647  45.541  0.00  0.00    +0.000 A 
ATOM     18  O   UNL     1      -7.581  51.560  48.837  0.00  0.00    +0.000 OA
ATOM     19  N   UNL     1      -6.782  50.478  46.971  0.00  0.00    +0.000 N 
ATOM     20  C   UNL     1      -7.987  50.731  44.881  0.00  0.00    +0.000 A 
ATOM     21  C   UNL     1      -6.917  50.184  45.592  0.00  0.00    +0.000 A 
ATOM     22  C   UNL     1      -8.108  50.421  43.521  0.00  0.00    +0.000 A 
ATOM     23  N   UNL     1      -6.001  49.374  45.011  0.00  0.00    +0.000 NA
ATOM     24  C   UNL     1      -7.168  49.600  42.913  0.00  0.00    +0.000 A 
ATOM     25  C   UNL     1      -6.140  49.110  43.694  0.00  0.00    +0.000 A 
BRANCH  17  26
ATOM     26  O   UNL     1      -9.915  52.151  44.726  0.00  0.00    +0.000 OA
ATOM     27  H   UNL     1     -10.393  51.577  44.160  0.00  0.00    +0.000 HD
ENDBRANCH  17  26
BRANCH  19  28
ATOM     28  C   UNL     1      -5.647  49.907  47.700  0.00  0.00    +0.000 C 
BRANCH  28  29
ATOM     29  C   UNL     1      -4.350  50.679  47.428  0.00  0.00    +0.000 C 
BRANCH  29  30
ATOM     30  C   UNL     1      -3.872  51.545  48.610  0.00  0.00    +0.000 C 
ATOM     31  C   UNL     1      -4.399  52.980  48.539  0.00  0.00    +0.000 C 
ATOM     32  C   UNL     1      -4.316  50.904  49.929  0.00  0.00    +0.000 C 
ENDBRANCH  29  30
ENDBRANCH  28  29
ENDBRANCH  19  28
ENDBRANCH   6  15
BRANCH  11  33
ATOM     33  N   UNL     1     -13.309  56.105  51.854  0.00  0.00    +0.000 N 
ATOM     34  C   UNL     1     -14.603  56.601  51.650  0.00  0.00    +0.000 C 
ATOM     35  O   UNL     1     -15.306  56.370  50.666  0.00  0.00    +0.000 OA
ATOM     36  H   UNL     1     -12.855  56.380  52.683  0.00  0.00    +0.000 HD
BRANCH  34  37
ATOM     37  C   UNL     1     -15.100  57.491  52.798  0.00  0.00    +0.000 C 
ATOM     38  F   UNL     1     -15.508  58.716  52.347  0.00  0.00    +0.000 F 
ATOM     39  F   UNL     1     -16.163  56.953  53.452  0.00  0.00    +0.000 F 
ATOM     40  F   UNL     1     -14.138  57.728  53.729  0.00  0.00    +0.000 F 
ENDBRANCH  34  37
ENDBRANCH  11  33
TORSDOF 7
ENDMDL
MODEL 2
REMARK VINA RESULT:      -6.7      2.362      3.257
REMARK  Name = 353194
REMARK  9 active torsions:
REMARK  status: ('A' for Active; 'I' for Inactive)
REMARK    1  A    between atoms: C_6  and  C_10
REMARK    2  A    between atoms: C_12  and  N_16
REMARK    3  A    between atoms: C_14  and  O_19
REMARK    4  A    between atoms: N_18  and  C_23
REMARK    5  A    between atoms: C_21  and  C_26
REMARK    6  A    between atoms: C_23  and  C_28
REMARK    7  A    between atoms: C_28  and  C_34
REMARK    8  A    between atoms: C_34  and  C_35
REMARK    9  A    between atoms: C_34  and  C_36
REMARK                            x       y       z     vdW  Elec       q    Type
REMARK                         _______ _______ _______ _____ _____    ______ ____
ROOT
ATOM      1  S   UNL     1     -10.655  54.619  47.865  0.00  0.00    +0.000 S 
ATOM      2  O   UNL     1     -11.674  53.699  47.399  0.00  0.00    +0.000 OA
ATOM      3  O   UNL     1     -10.381  55.852  47.150  0.00  0.00    +0.000 OA
ATOM      4  N   UNL     1      -9.273  53.798  47.971  0.00  0.00    +0.000 N 
ATOM      5  C   UNL     1     -11.118  55.087  49.487  0.00  0.00    +0.000 A 
ATOM      6  C   UNL     1      -8.753  53.488  49.120  0.00  0.00    +0.000 C 
ATOM      7  C   UNL     1     -10.377  54.614  50.553  0.00  0.00    +0.000 A 
ATOM      8  C   UNL     1     -12.217  55.927  49.647  0.00  0.00    +0.000 A 
ATOM      9  N   UNL     1      -9.294  53.762  50.358  0.00  0.00    +0.000 N 
ATOM     10  C   UNL     1     -10.803  54.956  51.839  0.00  0.00    +0.000 A 
ATOM     11  C   UNL     1     -12.629  56.288  50.922  0.00  0.00    +0.000 A 
ATOM     12  C   UNL     1     -11.917  55.793  52.023  0.00  0.00    +0.000 A 
ATOM     13  H   UNL     1      -8.812  53.525  47.145  0.00  0.00    +0.000 HD
ATOM     14  H   UNL     1      -8.894  53.330  51.147  0.00  0.00    +0.000 HD
ENDROOT
BRANCH   6  15
ATOM     15  C   UNL     1      -7.411  52.801  49.046  0.00  0.00    +0.000 A 
ATOM     16  C   UNL     1      -6.339  53.176  50.016  0.00  0.00    +0.000 A 
ATOM     17  C   UNL     1      -7.177  51.865  48.108  0.00  0.00    +0.000 A 
ATOM     18  O   UNL     1      -6.615  53.963  50.926  0.00  0.00    +0.000 OA
ATOM     19  N   UNL     1      -5.088  52.621  49.850  0.00  0.00    +0.000 N 
ATOM     20  C   UNL     1      -5.844  51.279  47.976  0.00  0.00    +0.000 A 
ATOM     21  C   UNL     1      -4.812  51.684  48.824  0.00  0.00    +0.000 A 
ATOM     22  C   UNL     1      -5.552  50.345  46.974  0.00  0.00    +0.000 A 
ATOM     23  N   UNL     1      -3.549  51.209  48.705  0.00  0.00    +0.000 NA
ATOM     24  C   UNL     1      -4.259  49.860  46.837  0.00  0.00    +0.000 A 
ATOM     25  C   UNL     1      -3.300  50.323  47.717  0.00  0.00    +0.000 A 
BRANCH  17  26
ATOM     26  O   UNL     1      -8.107  51.411  47.190  0.00  0.00    +0.000 OA
ATOM     27  H   UNL     1      -8.314  51.928  46.436  0.00  0.00    +0.000 HD
ENDBRANCH  17  26
BRANCH  19  28
ATOM     28  C   UNL     1      -3.991  53.046  50.724  0.00  0.00    +0.000 C 
BRANCH  28  29
ATOM     29  C   UNL     1      -3.896  52.174  51.982  0.00  0.00    +0.000 C 
BRANCH  29  30
ATOM     30  C   UNL     1      -3.939  52.966  53.303  0.00  0.00    +0.000 C 
ATOM     31  C   UNL     1      -3.648  54.456  53.106  0.00  0.00    +0.000 C 
ATOM     32  C   UNL     1      -5.313  52.798  53.959  0.00  0.00    +0.000 C 
ENDBRANCH  29  30
ENDBRANCH  28  29
ENDBRANCH  19  28
ENDBRANCH   6  15
BRANCH  11  33
ATOM     33  N   UNL     1     -13.739  57.121  51.160  0.00  0.00    +0.000 N 
ATOM     34  C   UNL     1     -13.970  58.384  50.599  0.00  0.00    +0.000 C 
ATOM     35  O   UNL     1     -13.217  58.961  49.815  0.00  0.00    +0.000 OA
ATOM     36  H   UNL     1     -14.421  56.782  51.783  0.00  0.00    +0.000 HD
BRANCH  34  37
ATOM     37  C   UNL     1     -15.291  59.018  51.054  0.00  0.00    +0.000 C 
ATOM     38  F   UNL     1     -15.641  60.077  50.264  0.00  0.00    +0.000 F 
ATOM     39  F   UNL     1     -16.333  58.145  51.006  0.00  0.00    +0.000 F 
ATOM     40  F   UNL     1     -15.230  59.494  52.327  0.00  0.00    +0.000 F 
ENDBRANCH  34  37
ENDBRANCH  11  33
TORSDOF 7
ENDMDL
MODEL 3
REMARK VINA RESULT:      -6.7      2.088      3.992
REMARK  Name = 353194
REMARK  9 active torsions:
REMARK  status: ('A' for Active; 'I' for Inactive)
REMARK    1  A    between atoms: C_6  and  C_10
REMARK    2  A    between atoms: C_12  and  N_16
REMARK    3  A    between atoms: C_14  and  O_19
REMARK    4  A    between atoms: N_18  and  C_23
REMARK    5  A    between atoms: C_21  and  C_26
REMARK    6  A    between atoms: C_23  and  C_28
REMARK    7  A    between atoms: C_28  and  C_34
REMARK    8  A    between atoms: C_34  and  C_35
REMARK    9  A    between atoms: C_34  and  C_36
REMARK                            x       y       z     vdW  Elec       q    Type
REMARK                         _______ _______ _______ _____ _____    ______ ____
ROOT
ATOM      1  S   UNL     1      -9.395  54.754  50.953  0.00  0.00    +0.000 S 
ATOM      2  O   UNL     1      -8.629  55.899  51.406  0.00  0.00    +0.000 OA
ATOM      3  O   UNL     1     -10.045  53.870  51.902  0.00  0.00    +0.000 OA
ATOM      4  N   UNL     1      -8.424  53.856  50.033  0.00  0.00    +0.000 N 
ATOM      5  C   UNL     1     -10.662  55.386  49.925  0.00  0.00    +0.000 A 
ATOM      6  C   UNL     1      -8.579  53.787  48.745  0.00  0.00    +0.000 C 
ATOM      7  C   UNL     1     -10.588  55.161  48.563  0.00  0.00    +0.000 A 
ATOM      8  C   UNL     1     -11.709  56.089  50.516  0.00  0.00    +0.000 A 
ATOM      9  N   UNL     1      -9.519  54.469  48.002  0.00  0.00    +0.000 N 
ATOM     10  C   UNL     1     -11.583  55.726  47.760  0.00  0.00    +0.000 A 
ATOM     11  C   UNL     1     -12.710  56.631  49.724  0.00  0.00    +0.000 A 
ATOM     12  C   UNL     1     -12.640  56.450  48.336  0.00  0.00    +0.000 A 
ATOM     13  H   UNL     1      -7.697  53.346  50.457  0.00  0.00    +0.000 HD
ATOM     14  H   UNL     1      -9.430  54.466  47.022  0.00  0.00    +0.000 HD
ENDROOT
BRANCH   6  15
ATOM     15  C   UNL     1      -7.648  52.830  48.043  0.00  0.00    +0.000 A 
ATOM     16  C   UNL     1      -8.197  51.882  47.027  0.00  0.00    +0.000 A 
ATOM     17  C   UNL     1      -6.334  52.822  48.334  0.00  0.00    +0.000 A 
ATOM     18  O   UNL     1      -9.385  51.982  46.709  0.00  0.00    +0.000 OA
ATOM     19  N   UNL     1      -7.347  50.940  46.490  0.00  0.00    +0.000 N 
ATOM     20  C   UNL     1      -5.456  51.823  47.726  0.00  0.00    +0.000 A 
ATOM     21  C   UNL     1      -5.975  50.878  46.840  0.00  0.00    +0.000 A 
ATOM     22  C   UNL     1      -4.096  51.751  48.052  0.00  0.00    +0.000 A 
ATOM     23  N   UNL     1      -5.212  49.902  46.293  0.00  0.00    +0.000 NA
ATOM     24  C   UNL     1      -3.307  50.748  47.506  0.00  0.00    +0.000 A 
ATOM     25  C   UNL     1      -3.909  49.852  46.643  0.00  0.00    +0.000 A 
BRANCH  17  26
ATOM     26  O   UNL     1      -5.712  53.682  49.222  0.00  0.00    +0.000 OA
ATOM     27  H   UNL     1      -5.853  53.587  50.144  0.00  0.00    +0.000 HD
ENDBRANCH  17  26
BRANCH  19  28
ATOM     28  C   UNL     1      -7.879  49.933  45.568  0.00  0.00    +0.000 C 
BRANCH  28  29
ATOM     29  C   UNL     1      -7.542  50.264  44.108  0.00  0.00    +0.000 C 
BRANCH  29  30
ATOM     30  C   UNL     1      -8.724  50.834  43.301  0.00  0.00    +0.000 C 
ATOM     31  C   UNL     1     -10.081  50.394  43.854  0.00  0.00    +0.000 C 
ATOM     32  C   UNL     1      -8.650  52.364  43.293  0.00  0.00    +0.000 C 
ENDBRANCH  29  30
ENDBRANCH  28  29
ENDBRANCH  19  28
ENDBRANCH   6  15
BRANCH  11  33
ATOM     33  N   UNL     1     -13.789  57.366  50.252  0.00  0.00    +0.000 N 
ATOM     34  C   UNL     1     -13.913  58.761  50.281  0.00  0.00    +0.000 C 
ATOM     35  O   UNL     1     -13.077  59.557  49.853  0.00  0.00    +0.000 OA
ATOM     36  H   UNL     1     -14.530  56.848  50.641  0.00  0.00    +0.000 HD
BRANCH  34  37
ATOM     37  C   UNL     1     -15.227  59.242  50.912  0.00  0.00    +0.000 C 
ATOM     38  F   UNL     1     -15.056  59.606  52.218  0.00  0.00    +0.000 F 
ATOM     39  F   UNL     1     -15.743  60.327  50.277  0.00  0.00    +0.000 F 
ATOM     40  F   UNL     1     -16.190  58.282  50.906  0.00  0.00    +0.000 F 
ENDBRANCH  34  37
ENDBRANCH  11  33
TORSDOF 7
ENDMDL
MODEL 4
REMARK VINA RESULT:      -6.4      1.624      2.075
REMARK  Name = 353194
REMARK  9 active torsions:
REMARK  status: ('A' for Active; 'I' for Inactive)
REMARK    1  A    between atoms: C_6  and  C_10
REMARK    2  A    between atoms: C_12  and  N_16
REMARK    3  A    between atoms: C_14  and  O_19
REMARK    4  A    between atoms: N_18  and  C_23
REMARK    5  A    between atoms: C_21  and  C_26
REMARK    6  A    between atoms: C_23  and  C_28
REMARK    7  A    between atoms: C_28  and  C_34
REMARK    8  A    between atoms: C_34  and  C_35
REMARK    9  A    between atoms: C_34  and  C_36
REMARK                            x       y       z     vdW  Elec       q    Type
REMARK                         _______ _______ _______ _____ _____    ______ ____
ROOT
ATOM      1  S   UNL     1     -10.796  52.435  50.436  0.00  0.00    +0.000 S 
ATOM      2  O   UNL     1      -9.927  52.966  51.468  0.00  0.00    +0.000 OA
ATOM      3  O   UNL     1     -11.854  51.498  50.763  0.00  0.00    +0.000 OA
ATOM      4  N   UNL     1      -9.859  51.747  49.321  0.00  0.00    +0.000 N 
ATOM      5  C   UNL     1     -11.576  53.814  49.693  0.00  0.00    +0.000 A 
ATOM      6  C   UNL     1      -9.692  52.281  48.149  0.00  0.00    +0.000 C 
ATOM      7  C   UNL     1     -11.212  54.173  48.409  0.00  0.00    +0.000 A 
ATOM      8  C   UNL     1     -12.546  54.500  50.420  0.00  0.00    +0.000 A 
ATOM      9  N   UNL     1     -10.226  53.476  47.717  0.00  0.00    +0.000 N 
ATOM     10  C   UNL     1     -11.809  55.312  47.862  0.00  0.00    +0.000 A 
ATOM     11  C   UNL     1     -13.159  55.617  49.870  0.00  0.00    +0.000 A 
ATOM     12  C   UNL     1     -12.780  56.025  48.583  0.00  0.00    +0.000 A 
ATOM     13  H   UNL     1      -9.403  50.900  49.533  0.00  0.00    +0.000 HD
ATOM     14  H   UNL     1      -9.892  53.857  46.873  0.00  0.00    +0.000 HD
ENDROOT
BRANCH   6  15
ATOM     15  C   UNL     1      -8.861  51.463  47.191  0.00  0.00    +0.000 A 
ATOM     16  C   UNL     1      -7.535  50.936  47.634  0.00  0.00    +0.000 A 
ATOM     17  C   UNL     1      -9.303  51.217  45.945  0.00  0.00    +0.000 A 
ATOM     18  O   UNL     1      -7.202  51.091  48.813  0.00  0.00    +0.000 OA
ATOM     19  N   UNL     1      -6.745  50.295  46.704  0.00  0.00    +0.000 N 
ATOM     20  C   UNL     1      -8.448  50.513  44.990  0.00  0.00    +0.000 A 
ATOM     21  C   UNL     1      -7.173  50.090  45.369  0.00  0.00    +0.000 A 
ATOM     22  C   UNL     1      -8.855  50.292  43.669  0.00  0.00    +0.000 A 
ATOM     23  N   UNL     1      -6.325  49.482  44.505  0.00  0.00    +0.000 NA
ATOM     24  C   UNL     1      -7.990  49.680  42.772  0.00  0.00    +0.000 A 
ATOM     25  C   UNL     1      -6.745  49.301  43.235  0.00  0.00    +0.000 A 
BRANCH  17  26
ATOM     26  O   UNL     1     -10.529  51.617  45.444  0.00  0.00    +0.000 OA
ATOM     27  H   UNL     1     -10.802  52.510  45.529  0.00  0.00    +0.000 HD
ENDBRANCH  17  26
BRANCH  19  28
ATOM     28  C   UNL     1      -5.399  49.857  47.083  0.00  0.00    +0.000 C 
BRANCH  28  29
ATOM     29  C   UNL     1      -4.436  51.042  47.229  0.00  0.00    +0.000 C 
BRANCH  29  30
ATOM     30  C   UNL     1      -3.637  51.046  48.547  0.00  0.00    +0.000 C 
ATOM     31  C   UNL     1      -4.050  52.184  49.482  0.00  0.00    +0.000 C 
ATOM     32  C   UNL     1      -3.824  49.705  49.265  0.00  0.00    +0.000 C 
ENDBRANCH  29  30
ENDBRANCH  28  29
ENDBRANCH  19  28
ENDBRANCH   6  15
BRANCH  11  33
ATOM     33  N   UNL     1     -14.135  56.367  50.553  0.00  0.00    +0.000 N 
ATOM     34  C   UNL     1     -14.031  56.887  51.850  0.00  0.00    +0.000 C 
ATOM     35  O   UNL     1     -13.060  56.750  52.595  0.00  0.00    +0.000 OA
ATOM     36  H   UNL     1     -14.975  56.544  50.072  0.00  0.00    +0.000 HD
BRANCH  34  37
ATOM     37  C   UNL     1     -15.271  57.677  52.289  0.00  0.00    +0.000 C 
ATOM     38  F   UNL     1     -15.406  58.839  51.581  0.00  0.00    +0.000 F 
ATOM     39  F   UNL     1     -16.425  56.982  52.103  0.00  0.00    +0.000 F 
ATOM     40  F   UNL     1     -15.227  58.032  53.601  0.00  0.00    +0.000 F 
ENDBRANCH  34  37
ENDBRANCH  11  33
TORSDOF 7
ENDMDL
MODEL 5
REMARK VINA RESULT:      -5.8      1.604      1.922
REMARK  Name = 353194
REMARK  9 active torsions:
REMARK  status: ('A' for Active; 'I' for Inactive)
REMARK    1  A    between atoms: C_6  and  C_10
REMARK    2  A    between atoms: C_12  and  N_16
REMARK    3  A    between atoms: C_14  and  O_19
REMARK    4  A    between atoms: N_18  and  C_23
REMARK    5  A    between atoms: C_21  and  C_26
REMARK    6  A    between atoms: C_23  and  C_28
REMARK    7  A    between atoms: C_28  and  C_34
REMARK    8  A    between atoms: C_34  and  C_35
REMARK    9  A    between atoms: C_34  and  C_36
REMARK                            x       y       z     vdW  Elec       q    Type
REMARK                         _______ _______ _______ _____ _____    ______ ____
ROOT
ATOM      1  S   UNL     1      -9.120  55.215  49.684  0.00  0.00    +0.000 S 
ATOM      2  O   UNL     1      -8.278  56.370  49.444  0.00  0.00    +0.000 OA
ATOM      3  O   UNL     1      -9.240  54.644  51.013  0.00  0.00    +0.000 OA
ATOM      4  N   UNL     1      -8.632  54.044  48.691  0.00  0.00    +0.000 N 
ATOM      5  C   UNL     1     -10.738  55.677  49.203  0.00  0.00    +0.000 A 
ATOM      6  C   UNL     1      -9.347  53.677  47.670  0.00  0.00    +0.000 C 
ATOM      7  C   UNL     1     -11.275  55.122  48.056  0.00  0.00    +0.000 A 
ATOM      8  C   UNL     1     -11.434  56.584  49.997  0.00  0.00    +0.000 A 
ATOM      9  N   UNL     1     -10.546  54.230  47.276  0.00  0.00    +0.000 N 
ATOM     10  C   UNL     1     -12.546  55.552  47.664  0.00  0.00    +0.000 A 
ATOM     11  C   UNL     1     -12.705  56.995  49.623  0.00  0.00    +0.000 A 
ATOM     12  C   UNL     1     -13.259  56.477  48.445  0.00  0.00    +0.000 A 
ATOM     13  H   UNL     1      -7.772  53.596  48.862  0.00  0.00    +0.000 HD
ATOM     14  H   UNL     1     -10.906  53.981  46.394  0.00  0.00    +0.000 HD
ENDROOT
BRANCH   6  15
ATOM     15  C   UNL     1      -8.793  52.505  46.896  0.00  0.00    +0.000 A 
ATOM     16  C   UNL     1      -8.163  51.369  47.633  0.00  0.00    +0.000 A 
ATOM     17  C   UNL     1      -8.857  52.486  45.553  0.00  0.00    +0.000 A 
ATOM     18  O   UNL     1      -8.209  51.368  48.867  0.00  0.00    +0.000 OA
ATOM     19  N   UNL     1      -7.560  50.371  46.899  0.00  0.00    +0.000 N 
ATOM     20  C   UNL     1      -8.227  51.398  44.805  0.00  0.00    +0.000 A 
ATOM     21  C   UNL     1      -7.562  50.375  45.482  0.00  0.00    +0.000 A 
ATOM     22  C   UNL     1      -8.226  51.378  43.405  0.00  0.00    +0.000 A 
ATOM     23  N   UNL     1      -6.919  49.375  44.832  0.00  0.00    +0.000 NA
ATOM     24  C   UNL     1      -7.560  50.365  42.729  0.00  0.00    +0.000 A 
ATOM     25  C   UNL     1      -6.923  49.398  43.482  0.00  0.00    +0.000 A 
BRANCH  17  26
ATOM     26  O   UNL     1      -9.455  53.459  44.772  0.00  0.00    +0.000 OA
ATOM     27  H   UNL     1      -9.650  54.300  45.138  0.00  0.00    +0.000 HD
ENDBRANCH  17  26
BRANCH  19  28
ATOM     28  C   UNL     1      -6.846  49.297  47.595  0.00  0.00    +0.000 C 
BRANCH  28  29
ATOM     29  C   UNL     1      -5.801  49.849  48.572  0.00  0.00    +0.000 C 
BRANCH  29  30
ATOM     30  C   UNL     1      -4.474  50.265  47.907  0.00  0.00    +0.000 C 
ATOM     31  C   UNL     1      -4.398  51.768  47.633  0.00  0.00    +0.000 C 
ATOM     32  C   UNL     1      -3.300  49.850  48.800  0.00  0.00    +0.000 C 
ENDBRANCH  29  30
ENDBRANCH  28  29
ENDBRANCH  19  28
ENDBRANCH   6  15
BRANCH  11  33
ATOM     33  N   UNL     1     -13.459  57.922  50.369  0.00  0.00    +0.000 N 
ATOM     34  C   UNL     1     -14.271  57.639  51.475  0.00  0.00    +0.000 C 
ATOM     35  O   UNL     1     -14.453  56.519  51.954  0.00  0.00    +0.000 OA
ATOM     36  H   UNL     1     -13.412  58.863  50.084  0.00  0.00    +0.000 HD
BRANCH  34  37
ATOM     37  C   UNL     1     -14.941  58.884  52.071  0.00  0.00    +0.000 C 
ATOM     38  F   UNL     1     -14.020  59.770  52.556  0.00  0.00    +0.000 F 
ATOM     39  F   UNL     1     -15.681  59.565  51.157  0.00  0.00    +0.000 F 
ATOM     40  F   UNL     1     -15.766  58.585  53.110  0.00  0.00    +0.000 F 
ENDBRANCH  34  37
ENDBRANCH  11  33
TORSDOF 7
ENDMDL
MODEL 6
REMARK VINA RESULT:      -5.7      4.530      6.485
REMARK  Name = 353194
REMARK  9 active torsions:
REMARK  status: ('A' for Active; 'I' for Inactive)
REMARK    1  A    between atoms: C_6  and  C_10
REMARK    2  A    between atoms: C_12  and  N_16
REMARK    3  A    between atoms: C_14  and  O_19
REMARK    4  A    between atoms: N_18  and  C_23
REMARK    5  A    between atoms: C_21  and  C_26
REMARK    6  A    between atoms: C_23  and  C_28
REMARK    7  A    between atoms: C_28  and  C_34
REMARK    8  A    between atoms: C_34  and  C_35
REMARK    9  A    between atoms: C_34  and  C_36
REMARK                            x       y       z     vdW  Elec       q    Type
REMARK                         _______ _______ _______ _____ _____    ______ ____
ROOT
ATOM      1  S   UNL     1      -9.877  55.112  49.766  0.00  0.00    +0.000 S 
ATOM      2  O   UNL     1     -10.403  54.191  48.777  0.00  0.00    +0.000 OA
ATOM      3  O   UNL     1      -8.944  56.157  49.388  0.00  0.00    +0.000 OA
ATOM      4  N   UNL     1      -9.185  54.234  50.926  0.00  0.00    +0.000 N 
ATOM      5  C   UNL     1     -11.259  55.921  50.469  0.00  0.00    +0.000 A 
ATOM      6  C   UNL     1      -9.719  54.122  52.104  0.00  0.00    +0.000 C 
ATOM      7  C   UNL     1     -11.618  55.619  51.769  0.00  0.00    +0.000 A 
ATOM      8  C   UNL     1     -11.949  56.851  49.695  0.00  0.00    +0.000 A 
ATOM      9  N   UNL     1     -10.917  54.672  52.509  0.00  0.00    +0.000 N 
ATOM     10  C   UNL     1     -12.760  56.237  52.285  0.00  0.00    +0.000 A 
ATOM     11  C   UNL     1     -13.069  57.485  50.213  0.00  0.00    +0.000 A 
ATOM     12  C   UNL     1     -13.477  57.169  51.516  0.00  0.00    +0.000 A 
ATOM     13  H   UNL     1      -8.336  53.772  50.737  0.00  0.00    +0.000 HD
ATOM     14  H   UNL     1     -11.297  54.378  53.369  0.00  0.00    +0.000 HD
ENDROOT
BRANCH   6  15
ATOM     15  C   UNL     1      -8.898  53.343  53.102  0.00  0.00    +0.000 A 
ATOM     16  C   UNL     1      -7.421  53.553  53.162  0.00  0.00    +0.000 A 
ATOM     17  C   UNL     1      -9.489  52.459  53.927  0.00  0.00    +0.000 A 
ATOM     18  O   UNL     1      -6.922  54.441  52.464  0.00  0.00    +0.000 OA
ATOM     19  N   UNL     1      -6.681  52.743  53.997  0.00  0.00    +0.000 N 
ATOM     20  C   UNL     1      -8.676  51.634  54.819  0.00  0.00    +0.000 A 
ATOM     21  C   UNL     1      -7.286  51.762  54.821  0.00  0.00    +0.000 A 
ATOM     22  C   UNL     1      -9.254  50.665  55.648  0.00  0.00    +0.000 A 
ATOM     23  N   UNL     1      -6.488  50.983  55.591  0.00  0.00    +0.000 NA
ATOM     24  C   UNL     1      -8.445  49.853  56.432  0.00  0.00    +0.000 A 
ATOM     25  C   UNL     1      -7.079  50.048  56.364  0.00  0.00    +0.000 A 
BRANCH  17  26
ATOM     26  O   UNL     1     -10.850  52.218  53.989  0.00  0.00    +0.000 OA
ATOM     27  H   UNL     1     -11.165  51.375  54.253  0.00  0.00    +0.000 HD
ENDBRANCH  17  26
BRANCH  19  28
ATOM     28  C   UNL     1      -5.220  52.857  54.002  0.00  0.00    +0.000 C 
BRANCH  28  29
ATOM     29  C   UNL     1      -4.561  51.743  53.178  0.00  0.00    +0.000 C 
BRANCH  29  30
ATOM     30  C   UNL     1      -4.033  52.202  51.805  0.00  0.00    +0.000 C 
ATOM     31  C   UNL     1      -5.079  52.067  50.697  0.00  0.00    +0.000 C 
ATOM     32  C   UNL     1      -3.572  53.661  51.894  0.00  0.00    +0.000 C 
ENDBRANCH  29  30
ENDBRANCH  28  29
ENDBRANCH  19  28
ENDBRANCH   6  15
BRANCH  11  33
ATOM     33  N   UNL     1     -13.824  58.423  49.482  0.00  0.00    +0.000 N 
ATOM     34  C   UNL     1     -13.896  59.802  49.719  0.00  0.00    +0.000 C 
ATOM     35  O   UNL     1     -13.310  60.399  50.622  0.00  0.00    +0.000 OA
ATOM     36  H   UNL     1     -14.355  58.075  48.730  0.00  0.00    +0.000 HD
BRANCH  34  37
ATOM     37  C   UNL     1     -14.797  60.543  48.722  0.00  0.00    +0.000 C 
ATOM     38  F   UNL     1     -15.099  59.765  47.639  0.00  0.00    +0.000 F 
ATOM     39  F   UNL     1     -15.986  60.912  49.269  0.00  0.00    +0.000 F 
ATOM     40  F   UNL     1     -14.217  61.670  48.232  0.00  0.00    +0.000 F 
ENDBRANCH  34  37
ENDBRANCH  11  33
TORSDOF 7
ENDMDL
MODEL 7
REMARK VINA RESULT:      -5.7      3.367      4.618
REMARK  Name = 353194
REMARK  9 active torsions:
REMARK  status: ('A' for Active; 'I' for Inactive)
REMARK    1  A    between atoms: C_6  and  C_10
REMARK    2  A    between atoms: C_12  and  N_16
REMARK    3  A    between atoms: C_14  and  O_19
REMARK    4  A    between atoms: N_18  and  C_23
REMARK    5  A    between atoms: C_21  and  C_26
REMARK    6  A    between atoms: C_23  and  C_28
REMARK    7  A    between atoms: C_28  and  C_34
REMARK    8  A    between atoms: C_34  and  C_35
REMARK    9  A    between atoms: C_34  and  C_36
REMARK                            x       y       z     vdW  Elec       q    Type
REMARK                         _______ _______ _______ _____ _____    ______ ____
ROOT
ATOM      1  S   UNL     1      -9.686  54.426  47.889  0.00  0.00    +0.000 S 
ATOM      2  O   UNL     1     -10.528  53.624  47.023  0.00  0.00    +0.000 OA
ATOM      3  O   UNL     1      -8.923  55.541  47.360  0.00  0.00    +0.000 OA
ATOM      4  N   UNL     1      -8.653  53.429  48.620  0.00  0.00    +0.000 N 
ATOM      5  C   UNL     1     -10.738  55.093  49.118  0.00  0.00    +0.000 A 
ATOM      6  C   UNL     1      -8.758  53.149  49.884  0.00  0.00    +0.000 C 
ATOM      7  C   UNL     1     -10.638  54.614  50.411  0.00  0.00    +0.000 A 
ATOM      8  C   UNL     1     -11.637  56.092  48.753  0.00  0.00    +0.000 A 
ATOM      9  N   UNL     1      -9.740  53.602  50.738  0.00  0.00    +0.000 N 
ATOM     10  C   UNL     1     -11.529  55.123  51.359  0.00  0.00    +0.000 A 
ATOM     11  C   UNL     1     -12.507  56.616  49.697  0.00  0.00    +0.000 A 
ATOM     12  C   UNL     1     -12.453  56.122  51.008  0.00  0.00    +0.000 A 
ATOM     13  H   UNL     1      -7.925  53.023  48.096  0.00  0.00    +0.000 HD
ATOM     14  H   UNL     1      -9.810  53.188  51.629  0.00  0.00    +0.000 HD
ENDROOT
BRANCH   6  15
ATOM     15  C   UNL     1      -7.658  52.275  50.434  0.00  0.00    +0.000 A 
ATOM     16  C   UNL     1      -7.282  52.386  51.875  0.00  0.00    +0.000 A 
ATOM     17  C   UNL     1      -7.014  51.407  49.633  0.00  0.00    +0.000 A 
ATOM     18  O   UNL     1      -7.957  53.117  52.607  0.00  0.00    +0.000 OA
ATOM     19  N   UNL     1      -6.197  51.664  52.323  0.00  0.00    +0.000 N 
ATOM     20  C   UNL     1      -5.881  50.638  50.148  0.00  0.00    +0.000 A 
ATOM     21  C   UNL     1      -5.468  50.798  51.471  0.00  0.00    +0.000 A 
ATOM     22  C   UNL     1      -5.153  49.770  49.325  0.00  0.00    +0.000 A 
ATOM     23  N   UNL     1      -4.393  50.148  51.977  0.00  0.00    +0.000 NA
ATOM     24  C   UNL     1      -4.043  49.107  49.831  0.00  0.00    +0.000 A 
ATOM     25  C   UNL     1      -3.704  49.332  51.151  0.00  0.00    +0.000 A 
BRANCH  17  26
ATOM     26  O   UNL     1      -7.307  51.189  48.299  0.00  0.00    +0.000 OA
ATOM     27  H   UNL     1      -6.634  50.910  47.710  0.00  0.00    +0.000 HD
ENDBRANCH  17  26
BRANCH  19  28
ATOM     28  C   UNL     1      -5.742  51.831  53.706  0.00  0.00    +0.000 C 
BRANCH  28  29
ATOM     29  C   UNL     1      -4.368  52.508  53.775  0.00  0.00    +0.000 C 
BRANCH  29  30
ATOM     30  C   UNL     1      -4.425  54.047  53.833  0.00  0.00    +0.000 C 
ATOM     31  C   UNL     1      -4.476  54.688  52.445  0.00  0.00    +0.000 C 
ATOM     32  C   UNL     1      -5.653  54.485  54.640  0.00  0.00    +0.000 C 
ENDBRANCH  29  30
ENDBRANCH  28  29
ENDBRANCH  19  28
ENDBRANCH   6  15
BRANCH  11  33
ATOM     33  N   UNL     1     -13.452  57.615  49.395  0.00  0.00    +0.000 N 
ATOM     34  C   UNL     1     -13.269  59.000  49.512  0.00  0.00    +0.000 C 
ATOM     35  O   UNL     1     -12.243  59.549  49.913  0.00  0.00    +0.000 OA
ATOM     36  H   UNL     1     -14.329  57.311  49.070  0.00  0.00    +0.000 HD
BRANCH  34  37
ATOM     37  C   UNL     1     -14.496  59.813  49.080  0.00  0.00    +0.000 C 
ATOM     38  F   UNL     1     -15.521  59.694  49.977  0.00  0.00    +0.000 F 
ATOM     39  F   UNL     1     -14.231  61.143  48.978  0.00  0.00    +0.000 F 
ATOM     40  F   UNL     1     -14.991  59.412  47.879  0.00  0.00    +0.000 F 
ENDBRANCH  34  37
ENDBRANCH  11  33
TORSDOF 7
ENDMDL
MODEL 8
REMARK VINA RESULT:      -5.6      2.087      2.704
REMARK  Name = 353194
REMARK  9 active torsions:
REMARK  status: ('A' for Active; 'I' for Inactive)
REMARK    1  A    between atoms: C_6  and  C_10
REMARK    2  A    between atoms: C_12  and  N_16
REMARK    3  A    between atoms: C_14  and  O_19
REMARK    4  A    between atoms: N_18  and  C_23
REMARK    5  A    between atoms: C_21  and  C_26
REMARK    6  A    between atoms: C_23  and  C_28
REMARK    7  A    between atoms: C_28  and  C_34
REMARK    8  A    between atoms: C_34  and  C_35
REMARK    9  A    between atoms: C_34  and  C_36
REMARK                            x       y       z     vdW  Elec       q    Type
REMARK                         _______ _______ _______ _____ _____    ______ ____
ROOT
ATOM      1  S   UNL     1     -10.289  53.517  51.706  0.00  0.00    +0.000 S 
ATOM      2  O   UNL     1      -9.476  54.255  52.652  0.00  0.00    +0.000 OA
ATOM      3  O   UNL     1     -11.320  52.604  52.163  0.00  0.00    +0.000 OA
ATOM      4  N   UNL     1      -9.291  52.689  50.751  0.00  0.00    +0.000 N 
ATOM      5  C   UNL     1     -11.099  54.712  50.716  0.00  0.00    +0.000 A 
ATOM      6  C   UNL     1      -9.107  53.020  49.508  0.00  0.00    +0.000 C 
ATOM      7  C   UNL     1     -10.707  54.860  49.398  0.00  0.00    +0.000 A 
ATOM      8  C   UNL     1     -12.118  55.469  51.288  0.00  0.00    +0.000 A 
ATOM      9  N   UNL     1      -9.673  54.098  48.862  0.00  0.00    +0.000 N 
ATOM     10  C   UNL     1     -11.330  55.861  48.647  0.00  0.00    +0.000 A 
ATOM     11  C   UNL     1     -12.755  56.447  50.538  0.00  0.00    +0.000 A 
ATOM     12  C   UNL     1     -12.352  56.644  49.210  0.00  0.00    +0.000 A 
ATOM     13  H   UNL     1      -8.809  51.912  51.118  0.00  0.00    +0.000 HD
ATOM     14  H   UNL     1      -9.327  54.343  47.974  0.00  0.00    +0.000 HD
ENDROOT
BRANCH   6  15
ATOM     15  C   UNL     1      -8.213  52.088  48.728  0.00  0.00    +0.000 A 
ATOM     16  C   UNL     1      -6.824  51.827  49.210  0.00  0.00    +0.000 A 
ATOM     17  C   UNL     1      -8.659  51.501  47.602  0.00  0.00    +0.000 A 
ATOM     18  O   UNL     1      -6.478  52.298  50.297  0.00  0.00    +0.000 OA
ATOM     19  N   UNL     1      -5.991  51.068  48.416  0.00  0.00    +0.000 N 
ATOM     20  C   UNL     1      -7.755  50.681  46.796  0.00  0.00    +0.000 A 
ATOM     21  C   UNL     1      -6.430  50.501  47.194  0.00  0.00    +0.000 A 
ATOM     22  C   UNL     1      -8.171  50.104  45.590  0.00  0.00    +0.000 A 
ATOM     23  N   UNL     1      -5.542  49.794  46.453  0.00  0.00    +0.000 NA
ATOM     24  C   UNL     1      -7.267  49.388  44.818  0.00  0.00    +0.000 A 
ATOM     25  C   UNL     1      -5.973  49.267  45.288  0.00  0.00    +0.000 A 
BRANCH  17  26
ATOM     26  O   UNL     1      -9.937  51.636  47.089  0.00  0.00    +0.000 OA
ATOM     27  H   UNL     1     -10.412  50.878  46.810  0.00  0.00    +0.000 HD
ENDBRANCH  17  26
BRANCH  19  28
ATOM     28  C   UNL     1      -4.593  50.879  48.813  0.00  0.00    +0.000 C 
BRANCH  28  29
ATOM     29  C   UNL     1      -4.448  49.791  49.884  0.00  0.00    +0.000 C 
BRANCH  29  30
ATOM     30  C   UNL     1      -3.324  50.057  50.905  0.00  0.00    +0.000 C 
ATOM     31  C   UNL     1      -3.312  51.504  51.403  0.00  0.00    +0.000 C 
ATOM     32  C   UNL     1      -3.480  49.109  52.098  0.00  0.00    +0.000 C 
ENDBRANCH  29  30
ENDBRANCH  28  29
ENDBRANCH  19  28
ENDBRANCH   6  15
BRANCH  11  33
ATOM     33  N   UNL     1     -13.781  57.260  51.056  0.00  0.00    +0.000 N 
ATOM     34  C   UNL     1     -13.947  57.644  52.393  0.00  0.00    +0.000 C 
ATOM     35  O   UNL     1     -13.214  57.310  53.324  0.00  0.00    +0.000 OA
ATOM     36  H   UNL     1     -14.450  57.591  50.414  0.00  0.00    +0.000 HD
BRANCH  34  37
ATOM     37  C   UNL     1     -15.162  58.553  52.617  0.00  0.00    +0.000 C 
ATOM     38  F   UNL     1     -14.848  59.634  53.394  0.00  0.00    +0.000 F 
ATOM     39  F   UNL     1     -15.663  59.052  51.456  0.00  0.00    +0.000 F 
ATOM     40  F   UNL     1     -16.183  57.914  53.248  0.00  0.00    +0.000 F 
ENDBRANCH  34  37
ENDBRANCH  11  33
TORSDOF 7
ENDMDL
MODEL 9
REMARK VINA RESULT:      -5.6      2.093      2.907
REMARK  Name = 353194
REMARK  9 active torsions:
REMARK  status: ('A' for Active; 'I' for Inactive)
REMARK    1  A    between atoms: C_6  and  C_10
REMARK    2  A    between atoms: C_12  and  N_16
REMARK    3  A    between atoms: C_14  and  O_19
REMARK    4  A    between atoms: N_18  and  C_23
REMARK    5  A    between atoms: C_21  and  C_26
REMARK    6  A    between atoms: C_23  and  C_28
REMARK    7  A    between atoms: C_28  and  C_34
REMARK    8  A    between atoms: C_34  and  C_35
REMARK    9  A    between atoms: C_34  and  C_36
REMARK                            x       y       z     vdW  Elec       q    Type
REMARK                         _______ _______ _______ _____ _____    ______ ____
ROOT
ATOM      1  S   UNL     1     -11.304  54.412  50.738  0.00  0.00    +0.000 S 
ATOM      2  O   UNL     1     -10.260  54.934  51.598  0.00  0.00    +0.000 OA
ATOM      3  O   UNL     1     -12.301  53.491  51.252  0.00  0.00    +0.000 OA
ATOM      4  N   UNL     1     -10.588  53.705  49.480  0.00  0.00    +0.000 N 
ATOM      5  C   UNL     1     -12.185  55.799  50.135  0.00  0.00    +0.000 A 
ATOM      6  C   UNL     1     -10.623  54.232  48.293  0.00  0.00    +0.000 C 
ATOM      7  C   UNL     1     -12.048  56.147  48.805  0.00  0.00    +0.000 A 
ATOM      8  C   UNL     1     -13.002  56.501  51.017  0.00  0.00    +0.000 A 
ATOM      9  N   UNL     1     -11.209  55.433  47.954  0.00  0.00    +0.000 N 
ATOM     10  C   UNL     1     -12.717  57.293  48.364  0.00  0.00    +0.000 A 
ATOM     11  C   UNL     1     -13.687  57.625  50.577  0.00  0.00    +0.000 A 
ATOM     12  C   UNL     1     -13.536  58.023  49.241  0.00  0.00    +0.000 A 
ATOM     13  H   UNL     1     -10.113  52.853  49.614  0.00  0.00    +0.000 HD
ATOM     14  H   UNL     1     -11.024  55.806  47.062  0.00  0.00    +0.000 HD
ENDROOT
BRANCH   6  15
ATOM     15  C   UNL     1      -9.985  53.399  47.209  0.00  0.00    +0.000 A 
ATOM     16  C   UNL     1      -8.602  52.870  47.408  0.00  0.00    +0.000 A 
ATOM     17  C   UNL     1     -10.649  53.140  46.069  0.00  0.00    +0.000 A 
ATOM     18  O   UNL     1      -8.057  53.039  48.503  0.00  0.00    +0.000 OA
ATOM     19  N   UNL     1      -7.998  52.215  46.356  0.00  0.00    +0.000 N 
ATOM     20  C   UNL     1      -9.987  52.420  44.982  0.00  0.00    +0.000 A 
ATOM     21  C   UNL     1      -8.665  51.996  45.126  0.00  0.00    +0.000 A 
ATOM     22  C   UNL     1     -10.631  52.186  43.762  0.00  0.00    +0.000 A 
ATOM     23  N   UNL     1      -7.993  51.373  44.128  0.00  0.00    +0.000 NA
ATOM     24  C   UNL     1      -9.948  51.558  42.729  0.00  0.00    +0.000 A 
ATOM     25  C   UNL     1      -8.640  51.178  42.959  0.00  0.00    +0.000 A 
BRANCH  17  26
ATOM     26  O   UNL     1     -11.946  53.541  45.797  0.00  0.00    +0.000 OA
ATOM     27  H   UNL     1     -12.645  53.285  46.367  0.00  0.00    +0.000 HD
ENDBRANCH  17  26
BRANCH  19  28
ATOM     28  C   UNL     1      -6.607  51.774  46.486  0.00  0.00    +0.000 C 
BRANCH  28  29
ATOM     29  C   UNL     1      -6.505  50.412  47.184  0.00  0.00    +0.000 C 
BRANCH  29  30
ATOM     30  C   UNL     1      -5.235  50.235  48.039  0.00  0.00    +0.000 C 
ATOM     31  C   UNL     1      -3.957  50.216  47.199  0.00  0.00    +0.000 C 
ATOM     32  C   UNL     1      -5.149  51.365  49.070  0.00  0.00    +0.000 C 
ENDBRANCH  29  30
ENDBRANCH  28  29
ENDBRANCH  19  28
ENDBRANCH   6  15
BRANCH  11  33
ATOM     33  N   UNL     1     -14.517  58.392  51.416  0.00  0.00    +0.000 N 
ATOM     34  C   UNL     1     -14.554  58.353  52.816  0.00  0.00    +0.000 C 
ATOM     35  O   UNL     1     -13.862  57.620  53.524  0.00  0.00    +0.000 OA
ATOM     36  H   UNL     1     -15.135  59.019  50.975  0.00  0.00    +0.000 HD
BRANCH  34  37
ATOM     37  C   UNL     1     -15.562  59.335  53.425  0.00  0.00    +0.000 C 
ATOM     38  F   UNL     1     -14.937  60.395  54.021  0.00  0.00    +0.000 F 
ATOM     39  F   UNL     1     -16.404  59.862  52.497  0.00  0.00    +0.000 F 
ATOM     40  F   UNL     1     -16.337  58.760  54.384  0.00  0.00    +0.000 F 
ENDBRANCH  34  37
ENDBRANCH  11  33
TORSDOF 7
ENDMDL
