MODEL 1
REMARK VINA RESULT:      -7.7      0.000      0.000
REMARK  Name = 352876
REMARK  10 active torsions:
REMARK  status: ('A' for Active; 'I' for Inactive)
REMARK    1  A    between atoms: C_6  and  C_10
REMARK    2  A    between atoms: C_12  and  O_16
REMARK    3  A    between atoms: C_14  and  O_19
REMARK    4  A    between atoms: O_16  and  C_21
REMARK    5  A    between atoms: N_18  and  C_23
REMARK    6  A    between atoms: C_21  and  C_25
REMARK    7  A    between atoms: C_23  and  C_27
REMARK    8  A    between atoms: C_27  and  C_32
REMARK    9  A    between atoms: C_32  and  C_33
REMARK   10  A    between atoms: C_32  and  C_34
REMARK                            x       y       z     vdW  Elec       q    Type
REMARK                         _______ _______ _______ _____ _____    ______ ____
ROOT
ATOM      1  S   UNL     1     -11.558  55.217  49.563  0.00  0.00    +0.000 S 
ATOM      2  O   UNL     1     -12.363  54.184  48.942  0.00  0.00    +0.000 OA
ATOM      3  O   UNL     1     -10.812  56.155  48.749  0.00  0.00    +0.000 OA
ATOM      4  N   UNL     1     -10.525  54.497  50.577  0.00  0.00    +0.000 N 
ATOM      5  C   UNL     1     -12.669  56.188  50.514  0.00  0.00    +0.000 A 
ATOM      6  C   UNL     1     -10.678  54.580  51.865  0.00  0.00    +0.000 C 
ATOM      7  C   UNL     1     -12.596  56.088  51.894  0.00  0.00    +0.000 A 
ATOM      8  C   UNL     1     -13.578  57.028  49.871  0.00  0.00    +0.000 A 
ATOM      9  N   UNL     1     -11.706  55.221  52.516  0.00  0.00    +0.000 N 
ATOM     10  C   UNL     1     -13.499  56.827  52.659  0.00  0.00    +0.000 A 
ATOM     11  C   UNL     1     -14.473  57.757  50.646  0.00  0.00    +0.000 A 
ATOM     12  C   UNL     1     -14.420  57.669  52.037  0.00  0.00    +0.000 A 
ATOM     13  H   UNL     1      -9.766  53.986  50.213  0.00  0.00    +0.000 HD
ATOM     14  H   UNL     1     -11.818  55.056  53.480  0.00  0.00    +0.000 HD
ENDROOT
BRANCH   6  15
ATOM     15  C   UNL     1      -9.606  53.936  52.711  0.00  0.00    +0.000 A 
ATOM     16  C   UNL     1      -8.201  54.454  52.642  0.00  0.00    +0.000 A 
ATOM     17  C   UNL     1      -9.912  52.924  53.539  0.00  0.00    +0.000 A 
ATOM     18  O   UNL     1      -7.977  55.460  51.963  0.00  0.00    +0.000 OA
ATOM     19  N   UNL     1      -7.225  53.787  53.352  0.00  0.00    +0.000 N 
ATOM     20  C   UNL     1      -8.853  52.249  54.288  0.00  0.00    +0.000 A 
ATOM     21  C   UNL     1      -7.523  52.666  54.162  0.00  0.00    +0.000 A 
ATOM     22  C   UNL     1      -9.125  51.141  55.100  0.00  0.00    +0.000 A 
ATOM     23  N   UNL     1      -6.503  52.035  54.791  0.00  0.00    +0.000 NA
ATOM     24  C   UNL     1      -8.084  50.480  55.736  0.00  0.00    +0.000 A 
ATOM     25  C   UNL     1      -6.802  50.961  55.552  0.00  0.00    +0.000 A 
BRANCH  17  26
ATOM     26  O   UNL     1     -11.184  52.416  53.734  0.00  0.00    +0.000 OA
ATOM     27  H   UNL     1     -11.763  52.311  53.006  0.00  0.00    +0.000 HD
ENDBRANCH  17  26
BRANCH  19  28
ATOM     28  C   UNL     1      -5.824  54.216  53.234  0.00  0.00    +0.000 C 
BRANCH  28  29
ATOM     29  C   UNL     1      -5.208  53.800  51.892  0.00  0.00    +0.000 C 
BRANCH  29  30
ATOM     30  C   UNL     1      -4.077  52.757  51.993  0.00  0.00    +0.000 C 
ATOM     31  C   UNL     1      -3.304  52.847  53.310  0.00  0.00    +0.000 C 
ATOM     32  C   UNL     1      -4.669  51.351  51.846  0.00  0.00    +0.000 C 
ENDBRANCH  29  30
ENDBRANCH  28  29
ENDBRANCH  19  28
ENDBRANCH   6  15
BRANCH  11  33
ATOM     33  O   UNL     1     -15.433  58.595  50.158  0.00  0.00    +0.000 OA
BRANCH  33  34
ATOM     34  C   UNL     1     -15.256  59.982  50.476  0.00  0.00    +0.000 C 
BRANCH  34  35
ATOM     35  C   UNL     1     -14.428  60.611  49.371  0.00  0.00    +0.000 C 
ATOM     36  O   UNL     1     -14.881  60.950  48.288  0.00  0.00    +0.000 OA
ATOM     37  O   UNL     1     -13.123  60.779  49.702  0.00  0.00    +0.000 OA
ENDBRANCH  34  35
ENDBRANCH  33  34
ENDBRANCH  11  33
TORSDOF 8
ENDMDL
MODEL 2
REMARK VINA RESULT:      -7.1      1.496      3.548
REMARK  Name = 352876
REMARK  10 active torsions:
REMARK  status: ('A' for Active; 'I' for Inactive)
REMARK    1  A    between atoms: C_6  and  C_10
REMARK    2  A    between atoms: C_12  and  O_16
REMARK    3  A    between atoms: C_14  and  O_19
REMARK    4  A    between atoms: O_16  and  C_21
REMARK    5  A    between atoms: N_18  and  C_23
REMARK    6  A    between atoms: C_21  and  C_25
REMARK    7  A    between atoms: C_23  and  C_27
REMARK    8  A    between atoms: C_27  and  C_32
REMARK    9  A    between atoms: C_32  and  C_33
REMARK   10  A    between atoms: C_32  and  C_34
REMARK                            x       y       z     vdW  Elec       q    Type
REMARK                         _______ _______ _______ _____ _____    ______ ____
ROOT
ATOM      1  S   UNL     1     -11.403  54.941  48.297  0.00  0.00    +0.000 S 
ATOM      2  O   UNL     1     -12.298  53.898  47.834  0.00  0.00    +0.000 OA
ATOM      3  O   UNL     1     -10.941  55.968  47.386  0.00  0.00    +0.000 OA
ATOM      4  N   UNL     1     -10.109  54.228  48.953  0.00  0.00    +0.000 N 
ATOM      5  C   UNL     1     -12.266  55.785  49.571  0.00  0.00    +0.000 A 
ATOM      6  C   UNL     1      -9.921  54.228  50.239  0.00  0.00    +0.000 C 
ATOM      7  C   UNL     1     -11.828  55.611  50.874  0.00  0.00    +0.000 A 
ATOM      8  C   UNL     1     -13.350  56.604  49.248  0.00  0.00    +0.000 A 
ATOM      9  N   UNL     1     -10.768  54.767  51.179  0.00  0.00    +0.000 N 
ATOM     10  C   UNL     1     -12.529  56.247  51.898  0.00  0.00    +0.000 A 
ATOM     11  C   UNL     1     -14.040  57.230  50.279  0.00  0.00    +0.000 A 
ATOM     12  C   UNL     1     -13.618  57.066  51.599  0.00  0.00    +0.000 A 
ATOM     13  H   UNL     1      -9.451  53.788  48.368  0.00  0.00    +0.000 HD
ATOM     14  H   UNL     1     -10.614  54.540  52.124  0.00  0.00    +0.000 HD
ENDROOT
BRANCH   6  15
ATOM     15  C   UNL     1      -8.636  53.604  50.728  0.00  0.00    +0.000 A 
ATOM     16  C   UNL     1      -8.692  52.423  51.649  0.00  0.00    +0.000 A 
ATOM     17  C   UNL     1      -7.450  54.085  50.319  0.00  0.00    +0.000 A 
ATOM     18  O   UNL     1      -9.794  51.931  51.909  0.00  0.00    +0.000 OA
ATOM     19  N   UNL     1      -7.506  51.933  52.154  0.00  0.00    +0.000 N 
ATOM     20  C   UNL     1      -6.211  53.532  50.865  0.00  0.00    +0.000 A 
ATOM     21  C   UNL     1      -6.255  52.488  51.796  0.00  0.00    +0.000 A 
ATOM     22  C   UNL     1      -4.962  54.061  50.522  0.00  0.00    +0.000 A 
ATOM     23  N   UNL     1      -5.137  51.983  52.370  0.00  0.00    +0.000 NA
ATOM     24  C   UNL     1      -3.813  53.559  51.117  0.00  0.00    +0.000 A 
ATOM     25  C   UNL     1      -3.952  52.530  52.027  0.00  0.00    +0.000 A 
BRANCH  17  26
ATOM     26  O   UNL     1      -7.284  55.121  49.418  0.00  0.00    +0.000 OA
ATOM     27  H   UNL     1      -6.792  54.985  48.633  0.00  0.00    +0.000 HD
ENDBRANCH  17  26
BRANCH  19  28
ATOM     28  C   UNL     1      -7.533  50.833  53.129  0.00  0.00    +0.000 C 
BRANCH  28  29
ATOM     29  C   UNL     1      -7.816  51.336  54.551  0.00  0.00    +0.000 C 
BRANCH  29  30
ATOM     30  C   UNL     1      -8.817  50.479  55.353  0.00  0.00    +0.000 C 
ATOM     31  C   UNL     1      -8.201  49.872  56.614  0.00  0.00    +0.000 C 
ATOM     32  C   UNL     1     -10.024  51.341  55.741  0.00  0.00    +0.000 C 
ENDBRANCH  29  30
ENDBRANCH  28  29
ENDBRANCH  19  28
ENDBRANCH   6  15
BRANCH  11  33
ATOM     33  O   UNL     1     -15.131  58.034  50.120  0.00  0.00    +0.000 OA
BRANCH  33  34
ATOM     34  C   UNL     1     -15.026  59.335  50.714  0.00  0.00    +0.000 C 
BRANCH  34  35
ATOM     35  C   UNL     1     -14.353  60.253  49.710  0.00  0.00    +0.000 C 
ATOM     36  O   UNL     1     -14.920  60.733  48.739  0.00  0.00    +0.000 OA
ATOM     37  O   UNL     1     -13.052  60.507  49.998  0.00  0.00    +0.000 OA
ENDBRANCH  34  35
ENDBRANCH  33  34
ENDBRANCH  11  33
TORSDOF 8
ENDMDL
MODEL 3
REMARK VINA RESULT:      -7.0      2.619      3.949
REMARK  Name = 352876
REMARK  10 active torsions:
REMARK  status: ('A' for Active; 'I' for Inactive)
REMARK    1  A    between atoms: C_6  and  C_10
REMARK    2  A    between atoms: C_12  and  O_16
REMARK    3  A    between atoms: C_14  and  O_19
REMARK    4  A    between atoms: O_16  and  C_21
REMARK    5  A    between atoms: N_18  and  C_23
REMARK    6  A    between atoms: C_21  and  C_25
REMARK    7  A    between atoms: C_23  and  C_27
REMARK    8  A    between atoms: C_27  and  C_32
REMARK    9  A    between atoms: C_32  and  C_33
REMARK   10  A    between atoms: C_32  and  C_34
REMARK                            x       y       z     vdW  Elec       q    Type
REMARK                         _______ _______ _______ _____ _____    ______ ____
ROOT
ATOM      1  S   UNL     1     -11.325  54.596  47.981  0.00  0.00    +0.000 S 
ATOM      2  O   UNL     1     -12.217  53.522  47.590  0.00  0.00    +0.000 OA
ATOM      3  O   UNL     1     -11.159  55.757  47.131  0.00  0.00    +0.000 OA
ATOM      4  N   UNL     1      -9.867  53.956  48.253  0.00  0.00    +0.000 N 
ATOM      5  C   UNL     1     -11.946  55.206  49.506  0.00  0.00    +0.000 A 
ATOM      6  C   UNL     1      -9.397  53.837  49.459  0.00  0.00    +0.000 C 
ATOM      7  C   UNL     1     -11.217  54.940  50.654  0.00  0.00    +0.000 A 
ATOM      8  C   UNL     1     -13.134  55.938  49.526  0.00  0.00    +0.000 A 
ATOM      9  N   UNL     1     -10.053  54.182  50.617  0.00  0.00    +0.000 N 
ATOM     10  C   UNL     1     -11.719  55.388  51.875  0.00  0.00    +0.000 A 
ATOM     11  C   UNL     1     -13.624  56.376  50.751  0.00  0.00    +0.000 A 
ATOM     12  C   UNL     1     -12.907  56.116  51.920  0.00  0.00    +0.000 A 
ATOM     13  H   UNL     1      -9.323  53.650  47.490  0.00  0.00    +0.000 HD
ATOM     14  H   UNL     1      -9.676  53.873  51.472  0.00  0.00    +0.000 HD
ENDROOT
BRANCH   6  15
ATOM     15  C   UNL     1      -7.991  53.301  49.581  0.00  0.00    +0.000 A 
ATOM     16  C   UNL     1      -7.007  54.004  50.465  0.00  0.00    +0.000 A 
ATOM     17  C   UNL     1      -7.632  52.185  48.925  0.00  0.00    +0.000 A 
ATOM     18  O   UNL     1      -7.401  54.955  51.146  0.00  0.00    +0.000 OA
ATOM     19  N   UNL     1      -5.705  53.548  50.484  0.00  0.00    +0.000 N 
ATOM     20  C   UNL     1      -6.246  51.722  48.979  0.00  0.00    +0.000 A 
ATOM     21  C   UNL     1      -5.296  52.423  49.729  0.00  0.00    +0.000 A 
ATOM     22  C   UNL     1      -5.819  50.609  48.245  0.00  0.00    +0.000 A 
ATOM     23  N   UNL     1      -3.991  52.065  49.762  0.00  0.00    +0.000 NA
ATOM     24  C   UNL     1      -4.481  50.243  48.262  0.00  0.00    +0.000 A 
ATOM     25  C   UNL     1      -3.613  50.996  49.029  0.00  0.00    +0.000 A 
BRANCH  17  26
ATOM     26  O   UNL     1      -8.477  51.419  48.143  0.00  0.00    +0.000 OA
ATOM     27  H   UNL     1      -9.366  51.685  48.014  0.00  0.00    +0.000 HD
ENDBRANCH  17  26
BRANCH  19  28
ATOM     28  C   UNL     1      -4.696  54.271  51.271  0.00  0.00    +0.000 C 
BRANCH  28  29
ATOM     29  C   UNL     1      -4.653  53.790  52.728  0.00  0.00    +0.000 C 
BRANCH  29  30
ATOM     30  C   UNL     1      -5.022  54.862  53.774  0.00  0.00    +0.000 C 
ATOM     31  C   UNL     1      -5.949  54.329  54.867  0.00  0.00    +0.000 C 
ATOM     32  C   UNL     1      -3.741  55.406  54.415  0.00  0.00    +0.000 C 
ENDBRANCH  29  30
ENDBRANCH  28  29
ENDBRANCH  19  28
ENDBRANCH   6  15
BRANCH  11  33
ATOM     33  O   UNL     1     -14.782  57.076  50.930  0.00  0.00    +0.000 OA
BRANCH  33  34
ATOM     34  C   UNL     1     -15.083  57.427  52.287  0.00  0.00    +0.000 C 
BRANCH  34  35
ATOM     35  C   UNL     1     -15.118  58.942  52.380  0.00  0.00    +0.000 C 
ATOM     36  O   UNL     1     -15.565  59.556  53.337  0.00  0.00    +0.000 OA
ATOM     37  O   UNL     1     -14.587  59.561  51.296  0.00  0.00    +0.000 OA
ENDBRANCH  34  35
ENDBRANCH  33  34
ENDBRANCH  11  33
TORSDOF 8
ENDMDL
MODEL 4
REMARK VINA RESULT:      -7.0      4.534      6.176
REMARK  Name = 352876
REMARK  10 active torsions:
REMARK  status: ('A' for Active; 'I' for Inactive)
REMARK    1  A    between atoms: C_6  and  C_10
REMARK    2  A    between atoms: C_12  and  O_16
REMARK    3  A    between atoms: C_14  and  O_19
REMARK    4  A    between atoms: O_16  and  C_21
REMARK    5  A    between atoms: N_18  and  C_23
REMARK    6  A    between atoms: C_21  and  C_25
REMARK    7  A    between atoms: C_23  and  C_27
REMARK    8  A    between atoms: C_27  and  C_32
REMARK    9  A    between atoms: C_32  and  C_33
REMARK   10  A    between atoms: C_32  and  C_34
REMARK                            x       y       z     vdW  Elec       q    Type
REMARK                         _______ _______ _______ _____ _____    ______ ____
ROOT
ATOM      1  S   UNL     1     -11.685  54.665  50.681  0.00  0.00    +0.000 S 
ATOM      2  O   UNL     1     -10.744  55.344  51.550  0.00  0.00    +0.000 OA
ATOM      3  O   UNL     1     -12.614  53.695  51.223  0.00  0.00    +0.000 OA
ATOM      4  N   UNL     1     -10.844  53.954  49.498  0.00  0.00    +0.000 N 
ATOM      5  C   UNL     1     -12.675  55.926  49.965  0.00  0.00    +0.000 A 
ATOM      6  C   UNL     1     -10.867  54.417  48.284  0.00  0.00    +0.000 C 
ATOM      7  C   UNL     1     -12.495  56.203  48.619  0.00  0.00    +0.000 A 
ATOM      8  C   UNL     1     -13.607  56.605  50.751  0.00  0.00    +0.000 A 
ATOM      9  N   UNL     1     -11.538  55.539  47.861  0.00  0.00    +0.000 N 
ATOM     10  C   UNL     1     -13.249  57.227  48.048  0.00  0.00    +0.000 A 
ATOM     11  C   UNL     1     -14.350  57.625  50.169  0.00  0.00    +0.000 A 
ATOM     12  C   UNL     1     -14.183  57.922  48.816  0.00  0.00    +0.000 A 
ATOM     13  H   UNL     1     -10.305  53.155  49.701  0.00  0.00    +0.000 HD
ATOM     14  H   UNL     1     -11.329  55.895  46.967  0.00  0.00    +0.000 HD
ENDROOT
BRANCH   6  15
ATOM     15  C   UNL     1     -10.108  53.621  47.250  0.00  0.00    +0.000 A 
ATOM     16  C   UNL     1      -8.750  53.081  47.583  0.00  0.00    +0.000 A 
ATOM     17  C   UNL     1     -10.655  53.374  46.048  0.00  0.00    +0.000 A 
ATOM     18  O   UNL     1      -8.326  53.222  48.734  0.00  0.00    +0.000 OA
ATOM     19  N   UNL     1      -8.041  52.439  46.589  0.00  0.00    +0.000 N 
ATOM     20  C   UNL     1      -9.880  52.678  45.022  0.00  0.00    +0.000 A 
ATOM     21  C   UNL     1      -8.576  52.249  45.293  0.00  0.00    +0.000 A 
ATOM     22  C   UNL     1     -10.389  52.474  43.735  0.00  0.00    +0.000 A 
ATOM     23  N   UNL     1      -7.800  51.652  44.357  0.00  0.00    +0.000 NA
ATOM     24  C   UNL     1      -9.596  51.877  42.765  0.00  0.00    +0.000 A 
ATOM     25  C   UNL     1      -8.320  51.487  43.122  0.00  0.00    +0.000 A 
BRANCH  17  26
ATOM     26  O   UNL     1     -11.926  53.762  45.662  0.00  0.00    +0.000 OA
ATOM     27  H   UNL     1     -12.193  54.654  45.758  0.00  0.00    +0.000 HD
ENDBRANCH  17  26
BRANCH  19  28
ATOM     28  C   UNL     1      -6.672  51.978  46.859  0.00  0.00    +0.000 C 
BRANCH  28  29
ATOM     29  C   UNL     1      -5.685  53.148  46.972  0.00  0.00    +0.000 C 
BRANCH  29  30
ATOM     30  C   UNL     1      -4.746  53.087  48.194  0.00  0.00    +0.000 C 
ATOM     31  C   UNL     1      -4.870  54.313  49.099  0.00  0.00    +0.000 C 
ATOM     32  C   UNL     1      -5.052  51.823  49.005  0.00  0.00    +0.000 C 
ENDBRANCH  29  30
ENDBRANCH  28  29
ENDBRANCH  19  28
ENDBRANCH   6  15
BRANCH  11  33
ATOM     33  O   UNL     1     -15.276  58.391  50.816  0.00  0.00    +0.000 OA
BRANCH  33  34
ATOM     34  C   UNL     1     -14.750  59.272  51.818  0.00  0.00    +0.000 C 
BRANCH  34  35
ATOM     35  C   UNL     1     -15.339  58.860  53.155  0.00  0.00    +0.000 C 
ATOM     36  O   UNL     1     -15.283  57.724  53.604  0.00  0.00    +0.000 OA
ATOM     37  O   UNL     1     -15.928  59.882  53.825  0.00  0.00    +0.000 OA
ENDBRANCH  34  35
ENDBRANCH  33  34
ENDBRANCH  11  33
TORSDOF 8
ENDMDL
MODEL 5
REMARK VINA RESULT:      -6.9      3.293      9.730
REMARK  Name = 352876
REMARK  10 active torsions:
REMARK  status: ('A' for Active; 'I' for Inactive)
REMARK    1  A    between atoms: C_6  and  C_10
REMARK    2  A    between atoms: C_12  and  O_16
REMARK    3  A    between atoms: C_14  and  O_19
REMARK    4  A    between atoms: O_16  and  C_21
REMARK    5  A    between atoms: N_18  and  C_23
REMARK    6  A    between atoms: C_21  and  C_25
REMARK    7  A    between atoms: C_23  and  C_27
REMARK    8  A    between atoms: C_27  and  C_32
REMARK    9  A    between atoms: C_32  and  C_33
REMARK   10  A    between atoms: C_32  and  C_34
REMARK                            x       y       z     vdW  Elec       q    Type
REMARK                         _______ _______ _______ _____ _____    ______ ____
ROOT
ATOM      1  S   UNL     1      -7.349  54.834  52.798  0.00  0.00    +0.000 S 
ATOM      2  O   UNL     1      -7.615  53.973  53.934  0.00  0.00    +0.000 OA
ATOM      3  O   UNL     1      -6.503  56.001  52.945  0.00  0.00    +0.000 OA
ATOM      4  N   UNL     1      -8.770  55.312  52.195  0.00  0.00    +0.000 N 
ATOM      5  C   UNL     1      -6.561  53.821  51.600  0.00  0.00    +0.000 A 
ATOM      6  C   UNL     1      -9.213  54.846  51.066  0.00  0.00    +0.000 C 
ATOM      7  C   UNL     1      -7.278  53.487  50.464  0.00  0.00    +0.000 A 
ATOM      8  C   UNL     1      -5.251  53.388  51.814  0.00  0.00    +0.000 A 
ATOM      9  N   UNL     1      -8.592  53.900  50.284  0.00  0.00    +0.000 N 
ATOM     10  C   UNL     1      -6.676  52.652  49.523  0.00  0.00    +0.000 A 
ATOM     11  C   UNL     1      -4.664  52.555  50.868  0.00  0.00    +0.000 A 
ATOM     12  C   UNL     1      -5.369  52.204  49.717  0.00  0.00    +0.000 A 
ATOM     13  H   UNL     1      -9.309  55.970  52.692  0.00  0.00    +0.000 HD
ATOM     14  H   UNL     1      -9.110  53.490  49.555  0.00  0.00    +0.000 HD
ENDROOT
BRANCH   6  15
ATOM     15  C   UNL     1     -10.512  55.428  50.564  0.00  0.00    +0.000 A 
ATOM     16  C   UNL     1     -11.639  55.656  51.525  0.00  0.00    +0.000 A 
ATOM     17  C   UNL     1     -10.650  55.766  49.272  0.00  0.00    +0.000 A 
ATOM     18  O   UNL     1     -11.441  55.447  52.726  0.00  0.00    +0.000 OA
ATOM     19  N   UNL     1     -12.845  56.100  51.024  0.00  0.00    +0.000 N 
ATOM     20  C   UNL     1     -11.939  56.248  48.777  0.00  0.00    +0.000 A 
ATOM     21  C   UNL     1     -13.026  56.378  49.648  0.00  0.00    +0.000 A 
ATOM     22  C   UNL     1     -12.140  56.534  47.421  0.00  0.00    +0.000 A 
ATOM     23  N   UNL     1     -14.252  56.765  49.224  0.00  0.00    +0.000 NA
ATOM     24  C   UNL     1     -13.397  56.917  46.976  0.00  0.00    +0.000 A 
ATOM     25  C   UNL     1     -14.412  57.016  47.908  0.00  0.00    +0.000 A 
BRANCH  17  26
ATOM     26  O   UNL     1      -9.654  55.666  48.316  0.00  0.00    +0.000 OA
ATOM     27  H   UNL     1      -9.090  56.395  48.150  0.00  0.00    +0.000 HD
ENDBRANCH  17  26
BRANCH  19  28
ATOM     28  C   UNL     1     -13.995  56.247  51.927  0.00  0.00    +0.000 C 
BRANCH  28  29
ATOM     29  C   UNL     1     -13.971  57.589  52.671  0.00  0.00    +0.000 C 
BRANCH  29  30
ATOM     30  C   UNL     1     -15.206  58.483  52.435  0.00  0.00    +0.000 C 
ATOM     31  C   UNL     1     -15.575  59.320  53.660  0.00  0.00    +0.000 C 
ATOM     32  C   UNL     1     -14.938  59.412  51.246  0.00  0.00    +0.000 C 
ENDBRANCH  29  30
ENDBRANCH  28  29
ENDBRANCH  19  28
ENDBRANCH   6  15
BRANCH  11  33
ATOM     33  O   UNL     1      -3.406  52.033  50.954  0.00  0.00    +0.000 OA
BRANCH  33  34
ATOM     34  C   UNL     1      -3.300  50.635  50.654  0.00  0.00    +0.000 C 
BRANCH  34  35
ATOM     35  C   UNL     1      -3.810  49.861  51.856  0.00  0.00    +0.000 C 
ATOM     36  O   UNL     1      -3.300  49.912  52.966  0.00  0.00    +0.000 OA
ATOM     37  O   UNL     1      -4.906  49.108  51.588  0.00  0.00    +0.000 OA
ENDBRANCH  34  35
ENDBRANCH  33  34
ENDBRANCH  11  33
TORSDOF 8
ENDMDL
MODEL 6
REMARK VINA RESULT:      -6.9      3.788      9.274
REMARK  Name = 352876
REMARK  10 active torsions:
REMARK  status: ('A' for Active; 'I' for Inactive)
REMARK    1  A    between atoms: C_6  and  C_10
REMARK    2  A    between atoms: C_12  and  O_16
REMARK    3  A    between atoms: C_14  and  O_19
REMARK    4  A    between atoms: O_16  and  C_21
REMARK    5  A    between atoms: N_18  and  C_23
REMARK    6  A    between atoms: C_21  and  C_25
REMARK    7  A    between atoms: C_23  and  C_27
REMARK    8  A    between atoms: C_27  and  C_32
REMARK    9  A    between atoms: C_32  and  C_33
REMARK   10  A    between atoms: C_32  and  C_34
REMARK                            x       y       z     vdW  Elec       q    Type
REMARK                         _______ _______ _______ _____ _____    ______ ____
ROOT
ATOM      1  S   UNL     1      -9.501  52.565  52.799  0.00  0.00    +0.000 S 
ATOM      2  O   UNL     1      -9.517  51.138  52.543  0.00  0.00    +0.000 OA
ATOM      3  O   UNL     1      -9.906  53.082  54.091  0.00  0.00    +0.000 OA
ATOM      4  N   UNL     1     -10.398  53.284  51.663  0.00  0.00    +0.000 N 
ATOM      5  C   UNL     1      -7.835  53.074  52.583  0.00  0.00    +0.000 A 
ATOM      6  C   UNL     1      -9.849  53.983  50.715  0.00  0.00    +0.000 C 
ATOM      7  C   UNL     1      -7.533  53.841  51.469  0.00  0.00    +0.000 A 
ATOM      8  C   UNL     1      -6.871  52.708  53.524  0.00  0.00    +0.000 A 
ATOM      9  N   UNL     1      -8.500  54.168  50.527  0.00  0.00    +0.000 N 
ATOM     10  C   UNL     1      -6.206  54.220  51.267  0.00  0.00    +0.000 A 
ATOM     11  C   UNL     1      -5.553  53.091  53.308  0.00  0.00    +0.000 A 
ATOM     12  C   UNL     1      -5.225  53.861  52.191  0.00  0.00    +0.000 A 
ATOM     13  H   UNL     1     -11.378  53.191  51.690  0.00  0.00    +0.000 HD
ATOM     14  H   UNL     1      -8.200  54.556  49.673  0.00  0.00    +0.000 HD
ENDROOT
BRANCH   6  15
ATOM     15  C   UNL     1     -10.793  54.673  49.760  0.00  0.00    +0.000 A 
ATOM     16  C   UNL     1     -10.726  54.357  48.297  0.00  0.00    +0.000 A 
ATOM     17  C   UNL     1     -11.705  55.545  50.220  0.00  0.00    +0.000 A 
ATOM     18  O   UNL     1      -9.959  53.464  47.922  0.00  0.00    +0.000 OA
ATOM     19  N   UNL     1     -11.534  55.071  47.437  0.00  0.00    +0.000 N 
ATOM     20  C   UNL     1     -12.555  56.275  49.280  0.00  0.00    +0.000 A 
ATOM     21  C   UNL     1     -12.438  56.053  47.904  0.00  0.00    +0.000 A 
ATOM     22  C   UNL     1     -13.461  57.247  49.719  0.00  0.00    +0.000 A 
ATOM     23  N   UNL     1     -13.164  56.746  46.994  0.00  0.00    +0.000 NA
ATOM     24  C   UNL     1     -14.198  57.972  48.793  0.00  0.00    +0.000 A 
ATOM     25  C   UNL     1     -14.015  57.688  47.454  0.00  0.00    +0.000 A 
BRANCH  17  26
ATOM     26  O   UNL     1     -11.901  55.857  51.554  0.00  0.00    +0.000 OA
ATOM     27  H   UNL     1     -11.398  56.537  51.955  0.00  0.00    +0.000 HD
ENDBRANCH  17  26
BRANCH  19  28
ATOM     28  C   UNL     1     -11.426  54.846  45.988  0.00  0.00    +0.000 C 
BRANCH  28  29
ATOM     29  C   UNL     1     -11.928  53.453  45.586  0.00  0.00    +0.000 C 
BRANCH  29  30
ATOM     30  C   UNL     1     -11.163  52.803  44.415  0.00  0.00    +0.000 C 
ATOM     31  C   UNL     1      -9.660  53.077  44.462  0.00  0.00    +0.000 C 
ATOM     32  C   UNL     1     -11.405  51.289  44.431  0.00  0.00    +0.000 C 
ENDBRANCH  29  30
ENDBRANCH  28  29
ENDBRANCH  19  28
ENDBRANCH   6  15
BRANCH  11  33
ATOM     33  O   UNL     1      -4.502  52.784  54.123  0.00  0.00    +0.000 OA
BRANCH  33  34
ATOM     34  C   UNL     1      -3.302  52.380  53.451  0.00  0.00    +0.000 C 
BRANCH  34  35
ATOM     35  C   UNL     1      -3.358  50.875  53.262  0.00  0.00    +0.000 C 
ATOM     36  O   UNL     1      -3.359  50.072  54.183  0.00  0.00    +0.000 OA
ATOM     37  O   UNL     1      -3.423  50.496  51.961  0.00  0.00    +0.000 OA
ENDBRANCH  34  35
ENDBRANCH  33  34
ENDBRANCH  11  33
TORSDOF 8
ENDMDL
MODEL 7
REMARK VINA RESULT:      -6.8      4.644      6.115
REMARK  Name = 352876
REMARK  10 active torsions:
REMARK  status: ('A' for Active; 'I' for Inactive)
REMARK    1  A    between atoms: C_6  and  C_10
REMARK    2  A    between atoms: C_12  and  O_16
REMARK    3  A    between atoms: C_14  and  O_19
REMARK    4  A    between atoms: O_16  and  C_21
REMARK    5  A    between atoms: N_18  and  C_23
REMARK    6  A    between atoms: C_21  and  C_25
REMARK    7  A    between atoms: C_23  and  C_27
REMARK    8  A    between atoms: C_27  and  C_32
REMARK    9  A    between atoms: C_32  and  C_33
REMARK   10  A    between atoms: C_32  and  C_34
REMARK                            x       y       z     vdW  Elec       q    Type
REMARK                         _______ _______ _______ _____ _____    ______ ____
ROOT
ATOM      1  S   UNL     1     -11.392  54.518  50.366  0.00  0.00    +0.000 S 
ATOM      2  O   UNL     1     -10.424  55.325  51.083  0.00  0.00    +0.000 OA
ATOM      3  O   UNL     1     -12.288  53.637  51.087  0.00  0.00    +0.000 OA
ATOM      4  N   UNL     1     -10.591  53.640  49.272  0.00  0.00    +0.000 N 
ATOM      5  C   UNL     1     -12.423  55.651  49.509  0.00  0.00    +0.000 A 
ATOM      6  C   UNL     1     -10.667  53.913  48.003  0.00  0.00    +0.000 C 
ATOM      7  C   UNL     1     -12.300  55.721  48.131  0.00  0.00    +0.000 A 
ATOM      8  C   UNL     1     -13.331  56.437  50.221  0.00  0.00    +0.000 A 
ATOM      9  N   UNL     1     -11.368  54.955  47.443  0.00  0.00    +0.000 N 
ATOM     10  C   UNL     1     -13.088  56.644  47.443  0.00  0.00    +0.000 A 
ATOM     11  C   UNL     1     -14.108  57.353  49.522  0.00  0.00    +0.000 A 
ATOM     12  C   UNL     1     -13.998  57.443  48.134  0.00  0.00    +0.000 A 
ATOM     13  H   UNL     1     -10.036  52.883  49.571  0.00  0.00    +0.000 HD
ATOM     14  H   UNL     1     -11.198  55.171  46.498  0.00  0.00    +0.000 HD
ENDROOT
BRANCH   6  15
ATOM     15  C   UNL     1      -9.942  52.972  47.071  0.00  0.00    +0.000 A 
ATOM     16  C   UNL     1      -8.586  52.457  47.449  0.00  0.00    +0.000 A 
ATOM     17  C   UNL     1     -10.517  52.578  45.923  0.00  0.00    +0.000 A 
ATOM     18  O   UNL     1      -8.138  52.743  48.563  0.00  0.00    +0.000 OA
ATOM     19  N   UNL     1      -7.908  51.676  46.537  0.00  0.00    +0.000 N 
ATOM     20  C   UNL     1      -9.773  51.738  44.986  0.00  0.00    +0.000 A 
ATOM     21  C   UNL     1      -8.471  51.325  45.288  0.00  0.00    +0.000 A 
ATOM     22  C   UNL     1     -10.312  51.373  43.746  0.00  0.00    +0.000 A 
ATOM     23  N   UNL     1      -7.724  50.595  44.426  0.00  0.00    +0.000 NA
ATOM     24  C   UNL     1      -9.548  50.638  42.851  0.00  0.00    +0.000 A 
ATOM     25  C   UNL     1      -8.271  50.277  43.234  0.00  0.00    +0.000 A 
BRANCH  17  26
ATOM     26  O   UNL     1     -11.789  52.934  45.511  0.00  0.00    +0.000 OA
ATOM     27  H   UNL     1     -12.372  52.282  45.175  0.00  0.00    +0.000 HD
ENDBRANCH  17  26
BRANCH  19  28
ATOM     28  C   UNL     1      -6.540  51.230  46.842  0.00  0.00    +0.000 C 
BRANCH  28  29
ATOM     29  C   UNL     1      -6.531  49.943  47.678  0.00  0.00    +0.000 C 
BRANCH  29  30
ATOM     30  C   UNL     1      -5.678  50.012  48.962  0.00  0.00    +0.000 C 
ATOM     31  C   UNL     1      -4.921  51.333  49.101  0.00  0.00    +0.000 C 
ATOM     32  C   UNL     1      -6.583  49.813  50.182  0.00  0.00    +0.000 C 
ENDBRANCH  29  30
ENDBRANCH  28  29
ENDBRANCH  19  28
ENDBRANCH   6  15
BRANCH  11  33
ATOM     33  O   UNL     1     -15.015  58.204  50.083  0.00  0.00    +0.000 OA
BRANCH  33  34
ATOM     34  C   UNL     1     -14.454  59.293  50.830  0.00  0.00    +0.000 C 
BRANCH  34  35
ATOM     35  C   UNL     1     -13.910  60.305  49.839  0.00  0.00    +0.000 C 
ATOM     36  O   UNL     1     -12.738  60.651  49.792  0.00  0.00    +0.000 OA
ATOM     37  O   UNL     1     -14.850  60.789  48.989  0.00  0.00    +0.000 OA
ENDBRANCH  34  35
ENDBRANCH  33  34
ENDBRANCH  11  33
TORSDOF 8
ENDMDL
MODEL 8
REMARK VINA RESULT:      -6.7      2.064      2.967
REMARK  Name = 352876
REMARK  10 active torsions:
REMARK  status: ('A' for Active; 'I' for Inactive)
REMARK    1  A    between atoms: C_6  and  C_10
REMARK    2  A    between atoms: C_12  and  O_16
REMARK    3  A    between atoms: C_14  and  O_19
REMARK    4  A    between atoms: O_16  and  C_21
REMARK    5  A    between atoms: N_18  and  C_23
REMARK    6  A    between atoms: C_21  and  C_25
REMARK    7  A    between atoms: C_23  and  C_27
REMARK    8  A    between atoms: C_27  and  C_32
REMARK    9  A    between atoms: C_32  and  C_33
REMARK   10  A    between atoms: C_32  and  C_34
REMARK                            x       y       z     vdW  Elec       q    Type
REMARK                         _______ _______ _______ _____ _____    ______ ____
ROOT
ATOM      1  S   UNL     1     -11.208  54.844  48.567  0.00  0.00    +0.000 S 
ATOM      2  O   UNL     1     -12.082  53.786  48.102  0.00  0.00    +0.000 OA
ATOM      3  O   UNL     1     -10.742  55.866  47.652  0.00  0.00    +0.000 OA
ATOM      4  N   UNL     1      -9.917  54.155  49.254  0.00  0.00    +0.000 N 
ATOM      5  C   UNL     1     -12.102  55.694  49.817  0.00  0.00    +0.000 A 
ATOM      6  C   UNL     1      -9.750  54.172  50.543  0.00  0.00    +0.000 C 
ATOM      7  C   UNL     1     -11.684  55.540  51.129  0.00  0.00    +0.000 A 
ATOM      8  C   UNL     1     -13.189  56.496  49.465  0.00  0.00    +0.000 A 
ATOM      9  N   UNL     1     -10.620  54.712  51.462  0.00  0.00    +0.000 N 
ATOM     10  C   UNL     1     -12.409  56.181  52.133  0.00  0.00    +0.000 A 
ATOM     11  C   UNL     1     -13.904  57.126  50.477  0.00  0.00    +0.000 A 
ATOM     12  C   UNL     1     -13.503  56.983  51.806  0.00  0.00    +0.000 A 
ATOM     13  H   UNL     1      -9.244  53.715  48.685  0.00  0.00    +0.000 HD
ATOM     14  H   UNL     1     -10.480  54.498  52.412  0.00  0.00    +0.000 HD
ENDROOT
BRANCH   6  15
ATOM     15  C   UNL     1      -8.467  53.569  51.061  0.00  0.00    +0.000 A 
ATOM     16  C   UNL     1      -8.132  52.147  50.727  0.00  0.00    +0.000 A 
ATOM     17  C   UNL     1      -7.617  54.308  51.792  0.00  0.00    +0.000 A 
ATOM     18  O   UNL     1      -8.874  51.532  49.955  0.00  0.00    +0.000 OA
ATOM     19  N   UNL     1      -7.002  51.594  51.291  0.00  0.00    +0.000 N 
ATOM     20  C   UNL     1      -6.420  53.692  52.363  0.00  0.00    +0.000 A 
ATOM     21  C   UNL     1      -6.144  52.340  52.133  0.00  0.00    +0.000 A 
ATOM     22  C   UNL     1      -5.554  54.412  53.194  0.00  0.00    +0.000 A 
ATOM     23  N   UNL     1      -5.079  51.714  52.687  0.00  0.00    +0.000 NA
ATOM     24  C   UNL     1      -4.469  53.775  53.778  0.00  0.00    +0.000 A 
ATOM     25  C   UNL     1      -4.276  52.436  53.497  0.00  0.00    +0.000 A 
BRANCH  17  26
ATOM     26  O   UNL     1      -7.792  55.646  52.098  0.00  0.00    +0.000 OA
ATOM     27  H   UNL     1      -8.056  55.900  52.959  0.00  0.00    +0.000 HD
ENDBRANCH  17  26
BRANCH  19  28
ATOM     28  C   UNL     1      -6.694  50.175  51.055  0.00  0.00    +0.000 C 
BRANCH  28  29
ATOM     29  C   UNL     1      -6.169  49.932  49.634  0.00  0.00    +0.000 C 
BRANCH  29  30
ATOM     30  C   UNL     1      -4.884  50.707  49.277  0.00  0.00    +0.000 C 
ATOM     31  C   UNL     1      -3.746  49.791  48.825  0.00  0.00    +0.000 C 
ATOM     32  C   UNL     1      -5.195  51.717  48.168  0.00  0.00    +0.000 C 
ENDBRANCH  29  30
ENDBRANCH  28  29
ENDBRANCH  19  28
ENDBRANCH   6  15
BRANCH  11  33
ATOM     33  O   UNL     1     -15.001  57.916  50.290  0.00  0.00    +0.000 OA
BRANCH  33  34
ATOM     34  C   UNL     1     -14.914  59.231  50.853  0.00  0.00    +0.000 C 
BRANCH  34  35
ATOM     35  C   UNL     1     -14.126  60.099  49.888  0.00  0.00    +0.000 C 
ATOM     36  O   UNL     1     -12.913  60.246  49.938  0.00  0.00    +0.000 OA
ATOM     37  O   UNL     1     -14.896  60.694  48.944  0.00  0.00    +0.000 OA
ENDBRANCH  34  35
ENDBRANCH  33  34
ENDBRANCH  11  33
TORSDOF 8
ENDMDL
MODEL 9
REMARK VINA RESULT:      -6.7      3.582      9.619
REMARK  Name = 352876
REMARK  10 active torsions:
REMARK  status: ('A' for Active; 'I' for Inactive)
REMARK    1  A    between atoms: C_6  and  C_10
REMARK    2  A    between atoms: C_12  and  O_16
REMARK    3  A    between atoms: C_14  and  O_19
REMARK    4  A    between atoms: O_16  and  C_21
REMARK    5  A    between atoms: N_18  and  C_23
REMARK    6  A    between atoms: C_21  and  C_25
REMARK    7  A    between atoms: C_23  and  C_27
REMARK    8  A    between atoms: C_27  and  C_32
REMARK    9  A    between atoms: C_32  and  C_33
REMARK   10  A    between atoms: C_32  and  C_34
REMARK                            x       y       z     vdW  Elec       q    Type
REMARK                         _______ _______ _______ _____ _____    ______ ____
ROOT
ATOM      1  S   UNL     1      -8.304  51.597  49.956  0.00  0.00    +0.000 S 
ATOM      2  O   UNL     1      -8.068  50.904  48.705  0.00  0.00    +0.000 OA
ATOM      3  O   UNL     1      -8.542  50.849  51.174  0.00  0.00    +0.000 OA
ATOM      4  N   UNL     1      -9.543  52.610  49.735  0.00  0.00    +0.000 N 
ATOM      5  C   UNL     1      -6.863  52.553  50.256  0.00  0.00    +0.000 A 
ATOM      6  C   UNL     1      -9.358  53.895  49.668  0.00  0.00    +0.000 C 
ATOM      7  C   UNL     1      -6.961  53.929  50.125  0.00  0.00    +0.000 A 
ATOM      8  C   UNL     1      -5.674  51.919  50.620  0.00  0.00    +0.000 A 
ATOM      9  N   UNL     1      -8.145  54.540  49.730  0.00  0.00    +0.000 N 
ATOM     10  C   UNL     1      -5.814  54.696  50.325  0.00  0.00    +0.000 A 
ATOM     11  C   UNL     1      -4.538  52.696  50.813  0.00  0.00    +0.000 A 
ATOM     12  C   UNL     1      -4.614  54.083  50.683  0.00  0.00    +0.000 A 
ATOM     13  H   UNL     1     -10.455  52.248  49.650  0.00  0.00    +0.000 HD
ATOM     14  H   UNL     1      -8.113  55.491  49.480  0.00  0.00    +0.000 HD
ENDROOT
BRANCH   6  15
ATOM     15  C   UNL     1     -10.599  54.745  49.542  0.00  0.00    +0.000 A 
ATOM     16  C   UNL     1     -11.497  54.921  50.729  0.00  0.00    +0.000 A 
ATOM     17  C   UNL     1     -10.884  55.362  48.384  0.00  0.00    +0.000 A 
ATOM     18  O   UNL     1     -11.146  54.440  51.810  0.00  0.00    +0.000 OA
ATOM     19  N   UNL     1     -12.672  55.624  50.560  0.00  0.00    +0.000 N 
ATOM     20  C   UNL     1     -12.132  56.112  48.244  0.00  0.00    +0.000 A 
ATOM     21  C   UNL     1     -13.022  56.207  49.319  0.00  0.00    +0.000 A 
ATOM     22  C   UNL     1     -12.498  56.701  47.028  0.00  0.00    +0.000 A 
ATOM     23  N   UNL     1     -14.215  56.841  49.219  0.00  0.00    +0.000 NA
ATOM     24  C   UNL     1     -13.724  57.340  46.912  0.00  0.00    +0.000 A 
ATOM     25  C   UNL     1     -14.540  57.382  48.026  0.00  0.00    +0.000 A 
BRANCH  17  26
ATOM     26  O   UNL     1     -10.090  55.327  47.251  0.00  0.00    +0.000 OA
ATOM     27  H   UNL     1     -10.435  55.613  46.429  0.00  0.00    +0.000 HD
ENDBRANCH  17  26
BRANCH  19  28
ATOM     28  C   UNL     1     -13.616  55.737  51.681  0.00  0.00    +0.000 C 
BRANCH  28  29
ATOM     29  C   UNL     1     -13.388  57.019  52.494  0.00  0.00    +0.000 C 
BRANCH  29  30
ATOM     30  C   UNL     1     -14.667  57.821  52.811  0.00  0.00    +0.000 C 
ATOM     31  C   UNL     1     -14.764  59.121  52.012  0.00  0.00    +0.000 C 
ATOM     32  C   UNL     1     -15.895  56.951  52.518  0.00  0.00    +0.000 C 
ENDBRANCH  29  30
ENDBRANCH  28  29
ENDBRANCH  19  28
ENDBRANCH   6  15
BRANCH  11  33
ATOM     33  O   UNL     1      -3.304  52.216  51.143  0.00  0.00    +0.000 OA
BRANCH  33  34
ATOM     34  C   UNL     1      -3.301  50.981  51.872  0.00  0.00    +0.000 C 
BRANCH  34  35
ATOM     35  C   UNL     1      -3.348  51.315  53.353  0.00  0.00    +0.000 C 
ATOM     36  O   UNL     1      -3.301  52.452  53.797  0.00  0.00    +0.000 OA
ATOM     37  O   UNL     1      -3.462  50.223  54.149  0.00  0.00    +0.000 OA
ENDBRANCH  34  35
ENDBRANCH  33  34
ENDBRANCH  11  33
TORSDOF 8
ENDMDL
