MODEL 1
REMARK VINA RESULT:      -8.5      0.000      0.000
REMARK  Name = 352789
REMARK  6 active torsions:
REMARK  status: ('A' for Active; 'I' for Inactive)
REMARK    1  A    between atoms: C_6  and  C_10
REMARK    2  A    between atoms: C_12  and  O_16
REMARK    3  A    between atoms: C_14  and  O_19
REMARK    4  A    between atoms: O_16  and  C_21
REMARK    5  A    between atoms: N_18  and  C_23
REMARK    6  A    between atoms: C_23  and  C_26
REMARK                            x       y       z     vdW  Elec       q    Type
REMARK                         _______ _______ _______ _____ _____    ______ ____
ROOT
ATOM      1  C   UNL     1     -10.471  55.085  50.540  0.00  0.00    +0.000 A 
ATOM      2  C   UNL     1     -10.137  55.109  49.087  0.00  0.00    +0.000 A 
ATOM      3  C   UNL     1     -11.595  55.678  50.985  0.00  0.00    +0.000 A 
ATOM      4  O   UNL     1      -9.028  54.705  48.728  0.00  0.00    +0.000 OA
ATOM      5  N   UNL     1     -11.106  55.558  48.209  0.00  0.00    +0.000 N 
ATOM      6  C   UNL     1     -12.486  56.352  50.040  0.00  0.00    +0.000 A 
ATOM      7  C   UNL     1     -12.265  56.236  48.664  0.00  0.00    +0.000 A 
ATOM      8  C   UNL     1     -13.563  57.131  50.477  0.00  0.00    +0.000 A 
ATOM      9  N   UNL     1     -13.077  56.822  47.751  0.00  0.00    +0.000 NA
ATOM     10  C   UNL     1     -14.371  57.772  49.550  0.00  0.00    +0.000 A 
ATOM     11  C   UNL     1     -14.096  57.581  48.210  0.00  0.00    +0.000 A 
ENDROOT
BRANCH   1  17
ATOM     12  S   UNL     1      -7.255  54.747  52.804  0.00  0.00    +0.000 S 
ATOM     13  O   UNL     1      -7.517  55.878  53.671  0.00  0.00    +0.000 OA
ATOM     14  O   UNL     1      -5.926  54.452  52.313  0.00  0.00    +0.000 OA
ATOM     15  N   UNL     1      -8.245  54.853  51.493  0.00  0.00    +0.000 N 
ATOM     16  C   UNL     1      -7.869  53.322  53.591  0.00  0.00    +0.000 A 
ATOM     17  C   UNL     1      -9.575  54.448  51.539  0.00  0.00    +0.000 C 
ATOM     18  C   UNL     1      -9.162  52.920  53.278  0.00  0.00    +0.000 A 
ATOM     19  C   UNL     1      -7.053  52.614  54.482  0.00  0.00    +0.000 A 
ATOM     20  N   UNL     1     -10.026  53.600  52.408  0.00  0.00    +0.000 N 
ATOM     21  C   UNL     1      -9.636  51.749  53.874  0.00  0.00    +0.000 A 
ATOM     22  C   UNL     1      -7.549  51.465  55.086  0.00  0.00    +0.000 A 
ATOM     23  C   UNL     1      -8.837  51.028  54.768  0.00  0.00    +0.000 A 
ATOM     24  H   UNL     1      -7.884  55.214  50.651  0.00  0.00    +0.000 HD
ATOM     25  H   UNL     1     -10.994  53.429  52.458  0.00  0.00    +0.000 HD
BRANCH  22  26
ATOM     26  O   UNL     1      -6.882  50.691  55.994  0.00  0.00    +0.000 OA
ATOM     27  C   UNL     1      -7.685  49.914  56.876  0.00  0.00    +0.000 C 
ENDBRANCH  22  26
ENDBRANCH   1  17
BRANCH   3  28
ATOM     28  O   UNL     1     -12.001  55.725  52.308  0.00  0.00    +0.000 OA
ATOM     29  H   UNL     1     -12.914  55.709  52.520  0.00  0.00    +0.000 HD
ENDBRANCH   3  28
BRANCH   5  30
ATOM     30  C   UNL     1     -10.901  55.388  46.768  0.00  0.00    +0.000 C 
BRANCH  30  31
ATOM     31  C   UNL     1     -11.365  54.024  46.293  0.00  0.00    +0.000 A 
ATOM     32  C   UNL     1     -12.019  53.146  47.168  0.00  0.00    +0.000 A 
ATOM     33  C   UNL     1     -11.088  53.590  44.987  0.00  0.00    +0.000 A 
ATOM     34  C   UNL     1     -12.348  51.850  46.759  0.00  0.00    +0.000 A 
ATOM     35  C   UNL     1     -11.408  52.293  44.582  0.00  0.00    +0.000 A 
ATOM     36  C   UNL     1     -12.025  51.418  45.474  0.00  0.00    +0.000 A 
ENDBRANCH  30  31
ENDBRANCH   5  30
TORSDOF 5
ENDMDL
MODEL 2
REMARK VINA RESULT:      -8.3      3.607      6.782
REMARK  Name = 352789
REMARK  6 active torsions:
REMARK  status: ('A' for Active; 'I' for Inactive)
REMARK    1  A    between atoms: C_6  and  C_10
REMARK    2  A    between atoms: C_12  and  O_16
REMARK    3  A    between atoms: C_14  and  O_19
REMARK    4  A    between atoms: O_16  and  C_21
REMARK    5  A    between atoms: N_18  and  C_23
REMARK    6  A    between atoms: C_23  and  C_26
REMARK                            x       y       z     vdW  Elec       q    Type
REMARK                         _______ _______ _______ _____ _____    ______ ____
ROOT
ATOM      1  C   UNL     1     -10.243  54.483  47.481  0.00  0.00    +0.000 A 
ATOM      2  C   UNL     1      -8.785  54.761  47.339  0.00  0.00    +0.000 A 
ATOM      3  C   UNL     1     -10.902  53.822  46.511  0.00  0.00    +0.000 A 
ATOM      4  O   UNL     1      -8.241  55.506  48.158  0.00  0.00    +0.000 OA
ATOM      5  N   UNL     1      -8.106  54.142  46.305  0.00  0.00    +0.000 N 
ATOM      6  C   UNL     1     -10.186  53.383  45.313  0.00  0.00    +0.000 A 
ATOM      7  C   UNL     1      -8.794  53.494  45.248  0.00  0.00    +0.000 A 
ATOM      8  C   UNL     1     -10.863  52.857  44.207  0.00  0.00    +0.000 A 
ATOM      9  N   UNL     1      -8.087  53.079  44.170  0.00  0.00    +0.000 NA
ATOM     10  C   UNL     1     -10.151  52.472  43.081  0.00  0.00    +0.000 A 
ATOM     11  C   UNL     1      -8.776  52.593  43.114  0.00  0.00    +0.000 A 
ENDROOT
BRANCH   1  17
ATOM     12  S   UNL     1     -11.059  54.905  51.321  0.00  0.00    +0.000 S 
ATOM     13  O   UNL     1      -9.923  55.737  51.662  0.00  0.00    +0.000 OA
ATOM     14  O   UNL     1     -11.517  53.842  52.189  0.00  0.00    +0.000 OA
ATOM     15  N   UNL     1     -10.792  54.239  49.839  0.00  0.00    +0.000 N 
ATOM     16  C   UNL     1     -12.407  55.955  50.994  0.00  0.00    +0.000 A 
ATOM     17  C   UNL     1     -11.016  54.946  48.661  0.00  0.00    +0.000 C 
ATOM     18  C   UNL     1     -12.626  56.330  49.674  0.00  0.00    +0.000 A 
ATOM     19  C   UNL     1     -13.238  56.366  52.043  0.00  0.00    +0.000 A 
ATOM     20  N   UNL     1     -11.817  55.962  48.589  0.00  0.00    +0.000 N 
ATOM     21  C   UNL     1     -13.737  57.133  49.406  0.00  0.00    +0.000 A 
ATOM     22  C   UNL     1     -14.325  57.186  51.764  0.00  0.00    +0.000 A 
ATOM     23  C   UNL     1     -14.579  57.556  50.441  0.00  0.00    +0.000 A 
ATOM     24  H   UNL     1     -10.463  53.312  49.784  0.00  0.00    +0.000 HD
ATOM     25  H   UNL     1     -11.858  56.484  47.756  0.00  0.00    +0.000 HD
BRANCH  22  26
ATOM     26  O   UNL     1     -15.201  57.687  52.685  0.00  0.00    +0.000 OA
ATOM     27  C   UNL     1     -15.198  59.100  52.859  0.00  0.00    +0.000 C 
ENDBRANCH  22  26
ENDBRANCH   1  17
BRANCH   3  28
ATOM     28  O   UNL     1     -12.253  53.515  46.532  0.00  0.00    +0.000 OA
ATOM     29  H   UNL     1     -12.815  53.918  47.165  0.00  0.00    +0.000 HD
ENDBRANCH   3  28
BRANCH   5  30
ATOM     30  C   UNL     1      -6.644  54.211  46.265  0.00  0.00    +0.000 C 
BRANCH  30  31
ATOM     31  C   UNL     1      -6.010  53.263  47.266  0.00  0.00    +0.000 A 
ATOM     32  C   UNL     1      -6.313  51.895  47.247  0.00  0.00    +0.000 A 
ATOM     33  C   UNL     1      -5.160  53.750  48.272  0.00  0.00    +0.000 A 
ATOM     34  C   UNL     1      -5.813  51.043  48.236  0.00  0.00    +0.000 A 
ATOM     35  C   UNL     1      -4.669  52.900  49.264  0.00  0.00    +0.000 A 
ATOM     36  C   UNL     1      -5.008  51.549  49.254  0.00  0.00    +0.000 A 
ENDBRANCH  30  31
ENDBRANCH   5  30
TORSDOF 5
ENDMDL
MODEL 3
REMARK VINA RESULT:      -8.3      1.992      2.081
REMARK  Name = 352789
REMARK  6 active torsions:
REMARK  status: ('A' for Active; 'I' for Inactive)
REMARK    1  A    between atoms: C_6  and  C_10
REMARK    2  A    between atoms: C_12  and  O_16
REMARK    3  A    between atoms: C_14  and  O_19
REMARK    4  A    between atoms: O_16  and  C_21
REMARK    5  A    between atoms: N_18  and  C_23
REMARK    6  A    between atoms: C_23  and  C_26
REMARK                            x       y       z     vdW  Elec       q    Type
REMARK                         _______ _______ _______ _____ _____    ______ ____
ROOT
ATOM      1  C   UNL     1     -10.008  55.315  50.339  0.00  0.00    +0.000 A 
ATOM      2  C   UNL     1      -9.989  55.429  48.853  0.00  0.00    +0.000 A 
ATOM      3  C   UNL     1     -11.127  55.613  51.026  0.00  0.00    +0.000 A 
ATOM      4  O   UNL     1      -8.913  55.311  48.262  0.00  0.00    +0.000 OA
ATOM      5  N   UNL     1     -11.195  55.636  48.206  0.00  0.00    +0.000 N 
ATOM      6  C   UNL     1     -12.324  56.056  50.312  0.00  0.00    +0.000 A 
ATOM      7  C   UNL     1     -12.365  56.008  48.915  0.00  0.00    +0.000 A 
ATOM      8  C   UNL     1     -13.444  56.546  50.992  0.00  0.00    +0.000 A 
ATOM      9  N   UNL     1     -13.459  56.384  48.212  0.00  0.00    +0.000 NA
ATOM     10  C   UNL     1     -14.551  56.977  50.278  0.00  0.00    +0.000 A 
ATOM     11  C   UNL     1     -14.515  56.869  48.902  0.00  0.00    +0.000 A 
ENDROOT
BRANCH   1  17
ATOM     12  S   UNL     1      -7.418  55.433  53.317  0.00  0.00    +0.000 S 
ATOM     13  O   UNL     1      -8.313  54.975  54.360  0.00  0.00    +0.000 OA
ATOM     14  O   UNL     1      -6.464  56.497  53.540  0.00  0.00    +0.000 OA
ATOM     15  N   UNL     1      -8.318  55.855  52.004  0.00  0.00    +0.000 N 
ATOM     16  C   UNL     1      -6.553  54.048  52.716  0.00  0.00    +0.000 A 
ATOM     17  C   UNL     1      -8.804  54.908  51.108  0.00  0.00    +0.000 C 
ATOM     18  C   UNL     1      -7.076  53.392  51.608  0.00  0.00    +0.000 A 
ATOM     19  C   UNL     1      -5.360  53.653  53.333  0.00  0.00    +0.000 A 
ATOM     20  N   UNL     1      -8.273  53.735  50.963  0.00  0.00    +0.000 N 
ATOM     21  C   UNL     1      -6.355  52.311  51.097  0.00  0.00    +0.000 A 
ATOM     22  C   UNL     1      -4.667  52.559  52.827  0.00  0.00    +0.000 A 
ATOM     23  C   UNL     1      -5.162  51.899  51.700  0.00  0.00    +0.000 A 
ATOM     24  H   UNL     1      -8.520  56.806  51.850  0.00  0.00    +0.000 HD
ATOM     25  H   UNL     1      -8.720  53.072  50.389  0.00  0.00    +0.000 HD
BRANCH  22  26
ATOM     26  O   UNL     1      -3.510  52.043  53.341  0.00  0.00    +0.000 OA
ATOM     27  C   UNL     1      -3.541  50.670  53.716  0.00  0.00    +0.000 C 
ENDBRANCH  22  26
ENDBRANCH   1  17
BRANCH   3  28
ATOM     28  O   UNL     1     -11.256  55.550  52.404  0.00  0.00    +0.000 OA
ATOM     29  H   UNL     1     -11.933  56.036  52.834  0.00  0.00    +0.000 HD
ENDBRANCH   3  28
BRANCH   5  30
ATOM     30  C   UNL     1     -11.251  55.531  46.746  0.00  0.00    +0.000 C 
BRANCH  30  31
ATOM     31  C   UNL     1     -11.560  54.116  46.297  0.00  0.00    +0.000 A 
ATOM     32  C   UNL     1     -12.070  53.173  47.200  0.00  0.00    +0.000 A 
ATOM     33  C   UNL     1     -11.279  53.705  44.983  0.00  0.00    +0.000 A 
ATOM     34  C   UNL     1     -12.253  51.843  46.812  0.00  0.00    +0.000 A 
ATOM     35  C   UNL     1     -11.453  52.374  44.599  0.00  0.00    +0.000 A 
ATOM     36  C   UNL     1     -11.926  51.440  45.518  0.00  0.00    +0.000 A 
ENDBRANCH  30  31
ENDBRANCH   5  30
TORSDOF 5
ENDMDL
MODEL 4
REMARK VINA RESULT:      -8.0      2.003      2.300
REMARK  Name = 352789
REMARK  6 active torsions:
REMARK  status: ('A' for Active; 'I' for Inactive)
REMARK    1  A    between atoms: C_6  and  C_10
REMARK    2  A    between atoms: C_12  and  O_16
REMARK    3  A    between atoms: C_14  and  O_19
REMARK    4  A    between atoms: O_16  and  C_21
REMARK    5  A    between atoms: N_18  and  C_23
REMARK    6  A    between atoms: C_23  and  C_26
REMARK                            x       y       z     vdW  Elec       q    Type
REMARK                         _______ _______ _______ _____ _____    ______ ____
ROOT
ATOM      1  C   UNL     1     -11.101  53.867  50.026  0.00  0.00    +0.000 A 
ATOM      2  C   UNL     1     -10.364  54.311  48.808  0.00  0.00    +0.000 A 
ATOM      3  C   UNL     1     -12.312  54.384  50.308  0.00  0.00    +0.000 A 
ATOM      4  O   UNL     1      -9.195  53.949  48.658  0.00  0.00    +0.000 OA
ATOM      5  N   UNL     1     -11.045  55.087  47.888  0.00  0.00    +0.000 N 
ATOM      6  C   UNL     1     -12.901  55.387  49.421  0.00  0.00    +0.000 A 
ATOM      7  C   UNL     1     -12.293  55.685  48.197  0.00  0.00    +0.000 A 
ATOM      8  C   UNL     1     -14.066  56.079  49.769  0.00  0.00    +0.000 A 
ATOM      9  N   UNL     1     -12.815  56.587  47.333  0.00  0.00    +0.000 NA
ATOM     10  C   UNL     1     -14.582  57.038  48.911  0.00  0.00    +0.000 A 
ATOM     11  C   UNL     1     -13.931  57.249  47.711  0.00  0.00    +0.000 A 
ENDROOT
BRANCH   1  17
ATOM     12  S   UNL     1      -8.900  50.780  51.125  0.00  0.00    +0.000 S 
ATOM     13  O   UNL     1      -7.605  51.368  50.851  0.00  0.00    +0.000 OA
ATOM     14  O   UNL     1      -9.197  49.400  50.808  0.00  0.00    +0.000 OA
ATOM     15  N   UNL     1     -10.057  51.703  50.402  0.00  0.00    +0.000 N 
ATOM     16  C   UNL     1      -9.253  51.035  52.810  0.00  0.00    +0.000 A 
ATOM     17  C   UNL     1     -10.523  52.882  50.975  0.00  0.00    +0.000 C 
ATOM     18  C   UNL     1      -9.991  52.162  53.150  0.00  0.00    +0.000 A 
ATOM     19  C   UNL     1      -8.817  50.104  53.759  0.00  0.00    +0.000 A 
ATOM     20  N   UNL     1     -10.438  53.134  52.243  0.00  0.00    +0.000 N 
ATOM     21  C   UNL     1     -10.315  52.341  54.497  0.00  0.00    +0.000 A 
ATOM     22  C   UNL     1      -9.126  50.309  55.100  0.00  0.00    +0.000 A 
ATOM     23  C   UNL     1      -9.887  51.422  55.462  0.00  0.00    +0.000 A 
ATOM     24  H   UNL     1     -10.428  51.412  49.538  0.00  0.00    +0.000 HD
ATOM     25  H   UNL     1     -10.691  54.025  52.575  0.00  0.00    +0.000 HD
BRANCH  22  26
ATOM     26  O   UNL     1      -8.745  49.504  56.136  0.00  0.00    +0.000 OA
ATOM     27  C   UNL     1      -7.674  49.978  56.945  0.00  0.00    +0.000 C 
ENDBRANCH  22  26
ENDBRANCH   1  17
BRANCH   3  28
ATOM     28  O   UNL     1     -13.081  54.054  51.412  0.00  0.00    +0.000 OA
ATOM     29  H   UNL     1     -13.271  54.701  52.062  0.00  0.00    +0.000 HD
ENDBRANCH   3  28
BRANCH   5  30
ATOM     30  C   UNL     1     -10.433  55.354  46.584  0.00  0.00    +0.000 C 
BRANCH  30  31
ATOM     31  C   UNL     1     -10.505  54.143  45.673  0.00  0.00    +0.000 A 
ATOM     32  C   UNL     1     -11.725  53.494  45.440  0.00  0.00    +0.000 A 
ATOM     33  C   UNL     1      -9.339  53.611  45.099  0.00  0.00    +0.000 A 
ATOM     34  C   UNL     1     -11.771  52.316  44.688  0.00  0.00    +0.000 A 
ATOM     35  C   UNL     1      -9.384  52.430  44.356  0.00  0.00    +0.000 A 
ATOM     36  C   UNL     1     -10.598  51.775  44.164  0.00  0.00    +0.000 A 
ENDBRANCH  30  31
ENDBRANCH   5  30
TORSDOF 5
ENDMDL
MODEL 5
REMARK VINA RESULT:      -7.7      3.364      8.041
REMARK  Name = 352789
REMARK  6 active torsions:
REMARK  status: ('A' for Active; 'I' for Inactive)
REMARK    1  A    between atoms: C_6  and  C_10
REMARK    2  A    between atoms: C_12  and  O_16
REMARK    3  A    between atoms: C_14  and  O_19
REMARK    4  A    between atoms: O_16  and  C_21
REMARK    5  A    between atoms: N_18  and  C_23
REMARK    6  A    between atoms: C_23  and  C_26
REMARK                            x       y       z     vdW  Elec       q    Type
REMARK                         _______ _______ _______ _____ _____    ______ ____
ROOT
ATOM      1  C   UNL     1      -9.569  53.806  52.743  0.00  0.00    +0.000 A 
ATOM      2  C   UNL     1      -8.103  53.987  52.537  0.00  0.00    +0.000 A 
ATOM      3  C   UNL     1     -10.020  52.897  53.627  0.00  0.00    +0.000 A 
ATOM      4  O   UNL     1      -7.718  54.704  51.611  0.00  0.00    +0.000 OA
ATOM      5  N   UNL     1      -7.244  53.359  53.422  0.00  0.00    +0.000 N 
ATOM      6  C   UNL     1      -9.069  52.081  54.382  0.00  0.00    +0.000 A 
ATOM      7  C   UNL     1      -7.700  52.358  54.316  0.00  0.00    +0.000 A 
ATOM      8  C   UNL     1      -9.492  51.006  55.172  0.00  0.00    +0.000 A 
ATOM      9  N   UNL     1      -6.786  51.645  55.016  0.00  0.00    +0.000 NA
ATOM     10  C   UNL     1      -8.558  50.242  55.855  0.00  0.00    +0.000 A 
ATOM     11  C   UNL     1      -7.229  50.603  55.753  0.00  0.00    +0.000 A 
ENDROOT
BRANCH   1  17
ATOM     12  S   UNL     1     -11.585  54.905  49.532  0.00  0.00    +0.000 S 
ATOM     13  O   UNL     1     -12.305  53.664  49.330  0.00  0.00    +0.000 OA
ATOM     14  O   UNL     1     -11.032  55.657  48.426  0.00  0.00    +0.000 OA
ATOM     15  N   UNL     1     -10.358  54.631  50.594  0.00  0.00    +0.000 N 
ATOM     16  C   UNL     1     -12.611  55.970  50.450  0.00  0.00    +0.000 A 
ATOM     17  C   UNL     1     -10.569  54.585  51.969  0.00  0.00    +0.000 C 
ATOM     18  C   UNL     1     -12.464  55.972  51.832  0.00  0.00    +0.000 A 
ATOM     19  C   UNL     1     -13.520  56.801  49.786  0.00  0.00    +0.000 A 
ATOM     20  N   UNL     1     -11.582  55.149  52.548  0.00  0.00    +0.000 N 
ATOM     21  C   UNL     1     -13.253  56.861  52.564  0.00  0.00    +0.000 A 
ATOM     22  C   UNL     1     -14.317  57.663  50.531  0.00  0.00    +0.000 A 
ATOM     23  C   UNL     1     -14.170  57.700  51.920  0.00  0.00    +0.000 A 
ATOM     24  H   UNL     1      -9.447  54.494  50.246  0.00  0.00    +0.000 HD
ATOM     25  H   UNL     1     -11.734  54.998  53.508  0.00  0.00    +0.000 HD
BRANCH  22  26
ATOM     26  O   UNL     1     -15.265  58.507  50.025  0.00  0.00    +0.000 OA
ATOM     27  C   UNL     1     -15.068  59.897  50.264  0.00  0.00    +0.000 C 
ENDBRANCH  22  26
ENDBRANCH   1  17
BRANCH   3  28
ATOM     28  O   UNL     1     -11.355  52.639  53.894  0.00  0.00    +0.000 OA
ATOM     29  H   UNL     1     -11.745  52.956  54.685  0.00  0.00    +0.000 HD
ENDBRANCH   3  28
BRANCH   5  30
ATOM     30  C   UNL     1      -5.818  53.689  53.391  0.00  0.00    +0.000 C 
BRANCH  30  31
ATOM     31  C   UNL     1      -5.124  53.064  52.194  0.00  0.00    +0.000 A 
ATOM     32  C   UNL     1      -4.698  53.857  51.120  0.00  0.00    +0.000 A 
ATOM     33  C   UNL     1      -4.957  51.673  52.112  0.00  0.00    +0.000 A 
ATOM     34  C   UNL     1      -4.158  53.269  49.973  0.00  0.00    +0.000 A 
ATOM     35  C   UNL     1      -4.426  51.085  50.962  0.00  0.00    +0.000 A 
ATOM     36  C   UNL     1      -4.040  51.882  49.887  0.00  0.00    +0.000 A 
ENDBRANCH  30  31
ENDBRANCH   5  30
TORSDOF 5
ENDMDL
MODEL 6
REMARK VINA RESULT:      -7.6      3.469      8.152
REMARK  Name = 352789
REMARK  6 active torsions:
REMARK  status: ('A' for Active; 'I' for Inactive)
REMARK    1  A    between atoms: C_6  and  C_10
REMARK    2  A    between atoms: C_12  and  O_16
REMARK    3  A    between atoms: C_14  and  O_19
REMARK    4  A    between atoms: O_16  and  C_21
REMARK    5  A    between atoms: N_18  and  C_23
REMARK    6  A    between atoms: C_23  and  C_26
REMARK                            x       y       z     vdW  Elec       q    Type
REMARK                         _______ _______ _______ _____ _____    ______ ____
ROOT
ATOM      1  C   UNL     1      -8.258  53.888  49.260  0.00  0.00    +0.000 A 
ATOM      2  C   UNL     1      -7.141  54.482  50.050  0.00  0.00    +0.000 A 
ATOM      3  C   UNL     1      -8.031  52.828  48.461  0.00  0.00    +0.000 A 
ATOM      4  O   UNL     1      -7.336  55.546  50.643  0.00  0.00    +0.000 OA
ATOM      5  N   UNL     1      -5.945  53.789  50.100  0.00  0.00    +0.000 N 
ATOM      6  C   UNL     1      -6.685  52.264  48.364  0.00  0.00    +0.000 A 
ATOM      7  C   UNL     1      -5.674  52.709  49.222  0.00  0.00    +0.000 A 
ATOM      8  C   UNL     1      -6.367  51.285  47.416  0.00  0.00    +0.000 A 
ATOM      9  N   UNL     1      -4.420  52.199  49.186  0.00  0.00    +0.000 NA
ATOM     10  C   UNL     1      -5.074  50.791  47.341  0.00  0.00    +0.000 A 
ATOM     11  C   UNL     1      -4.146  51.269  48.245  0.00  0.00    +0.000 A 
ENDROOT
BRANCH   1  17
ATOM     12  S   UNL     1     -11.792  54.880  47.807  0.00  0.00    +0.000 S 
ATOM     13  O   UNL     1     -12.286  53.536  47.586  0.00  0.00    +0.000 OA
ATOM     14  O   UNL     1     -12.024  55.946  46.857  0.00  0.00    +0.000 OA
ATOM     15  N   UNL     1     -10.167  54.803  48.062  0.00  0.00    +0.000 N 
ATOM     16  C   UNL     1     -12.365  55.407  49.363  0.00  0.00    +0.000 A 
ATOM     17  C   UNL     1      -9.630  54.454  49.297  0.00  0.00    +0.000 C 
ATOM     18  C   UNL     1     -11.532  55.209  50.458  0.00  0.00    +0.000 A 
ATOM     19  C   UNL     1     -13.614  56.030  49.468  0.00  0.00    +0.000 A 
ATOM     20  N   UNL     1     -10.281  54.576  50.411  0.00  0.00    +0.000 N 
ATOM     21  C   UNL     1     -11.973  55.676  51.698  0.00  0.00    +0.000 A 
ATOM     22  C   UNL     1     -14.050  56.467  50.714  0.00  0.00    +0.000 A 
ATOM     23  C   UNL     1     -13.219  56.300  51.824  0.00  0.00    +0.000 A 
ATOM     24  H   UNL     1      -9.557  55.011  47.318  0.00  0.00    +0.000 HD
ATOM     25  H   UNL     1      -9.890  54.218  51.240  0.00  0.00    +0.000 HD
BRANCH  22  26
ATOM     26  O   UNL     1     -15.252  57.063  50.973  0.00  0.00    +0.000 OA
ATOM     27  C   UNL     1     -16.415  56.317  50.630  0.00  0.00    +0.000 C 
ENDBRANCH  22  26
ENDBRANCH   1  17
BRANCH   3  28
ATOM     28  O   UNL     1      -8.987  52.201  47.679  0.00  0.00    +0.000 OA
ATOM     29  H   UNL     1      -9.782  52.648  47.462  0.00  0.00    +0.000 HD
ENDBRANCH   3  28
BRANCH   5  30
ATOM     30  C   UNL     1      -4.906  54.221  51.038  0.00  0.00    +0.000 C 
BRANCH  30  31
ATOM     31  C   UNL     1      -5.255  53.855  52.468  0.00  0.00    +0.000 A 
ATOM     32  C   UNL     1      -5.498  52.523  52.828  0.00  0.00    +0.000 A 
ATOM     33  C   UNL     1      -5.407  54.854  53.444  0.00  0.00    +0.000 A 
ATOM     34  C   UNL     1      -5.925  52.202  54.120  0.00  0.00    +0.000 A 
ATOM     35  C   UNL     1      -5.842  54.533  54.732  0.00  0.00    +0.000 A 
ATOM     36  C   UNL     1      -6.115  53.209  55.064  0.00  0.00    +0.000 A 
ENDBRANCH  30  31
ENDBRANCH   5  30
TORSDOF 5
ENDMDL
MODEL 7
REMARK VINA RESULT:      -7.6      3.133      5.231
REMARK  Name = 352789
REMARK  6 active torsions:
REMARK  status: ('A' for Active; 'I' for Inactive)
REMARK    1  A    between atoms: C_6  and  C_10
REMARK    2  A    between atoms: C_12  and  O_16
REMARK    3  A    between atoms: C_14  and  O_19
REMARK    4  A    between atoms: O_16  and  C_21
REMARK    5  A    between atoms: N_18  and  C_23
REMARK    6  A    between atoms: C_23  and  C_26
REMARK                            x       y       z     vdW  Elec       q    Type
REMARK                         _______ _______ _______ _____ _____    ______ ____
ROOT
ATOM      1  C   UNL     1      -8.479  53.331  48.250  0.00  0.00    +0.000 A 
ATOM      2  C   UNL     1      -9.873  53.215  48.766  0.00  0.00    +0.000 A 
ATOM      3  C   UNL     1      -8.245  53.312  46.924  0.00  0.00    +0.000 A 
ATOM      4  O   UNL     1     -10.046  53.070  49.979  0.00  0.00    +0.000 OA
ATOM      5  N   UNL     1     -10.909  53.306  47.854  0.00  0.00    +0.000 N 
ATOM      6  C   UNL     1      -9.362  53.171  45.990  0.00  0.00    +0.000 A 
ATOM      7  C   UNL     1     -10.679  53.227  46.458  0.00  0.00    +0.000 A 
ATOM      8  C   UNL     1      -9.151  52.965  44.622  0.00  0.00    +0.000 A 
ATOM      9  N   UNL     1     -11.744  53.126  45.627  0.00  0.00    +0.000 NA
ATOM     10  C   UNL     1     -10.236  52.814  43.772  0.00  0.00    +0.000 A 
ATOM     11  C   UNL     1     -11.502  52.910  44.316  0.00  0.00    +0.000 A 
ENDROOT
BRANCH   1  17
ATOM     12  S   UNL     1      -4.697  52.978  49.327  0.00  0.00    +0.000 S 
ATOM     13  O   UNL     1      -4.152  53.968  48.420  0.00  0.00    +0.000 OA
ATOM     14  O   UNL     1      -4.025  51.723  49.584  0.00  0.00    +0.000 OA
ATOM     15  N   UNL     1      -6.231  52.618  48.848  0.00  0.00    +0.000 N 
ATOM     16  C   UNL     1      -4.983  53.760  50.855  0.00  0.00    +0.000 A 
ATOM     17  C   UNL     1      -7.312  53.435  49.164  0.00  0.00    +0.000 C 
ATOM     18  C   UNL     1      -6.252  54.280  51.086  0.00  0.00    +0.000 A 
ATOM     19  C   UNL     1      -3.958  53.822  51.806  0.00  0.00    +0.000 A 
ATOM     20  N   UNL     1      -7.308  54.259  50.163  0.00  0.00    +0.000 N 
ATOM     21  C   UNL     1      -6.494  54.864  52.330  0.00  0.00    +0.000 A 
ATOM     22  C   UNL     1      -4.208  54.430  53.031  0.00  0.00    +0.000 A 
ATOM     23  C   UNL     1      -5.482  54.937  53.294  0.00  0.00    +0.000 A 
ATOM     24  H   UNL     1      -6.387  51.801  48.322  0.00  0.00    +0.000 HD
ATOM     25  H   UNL     1      -8.060  54.884  50.276  0.00  0.00    +0.000 HD
BRANCH  22  26
ATOM     26  O   UNL     1      -3.300  54.589  54.041  0.00  0.00    +0.000 OA
ATOM     27  C   UNL     1      -3.389  55.798  54.788  0.00  0.00    +0.000 C 
ENDBRANCH  22  26
ENDBRANCH   1  17
BRANCH   3  28
ATOM     28  O   UNL     1      -6.996  53.404  46.334  0.00  0.00    +0.000 OA
ATOM     29  H   UNL     1      -6.761  54.171  45.849  0.00  0.00    +0.000 HD
ENDBRANCH   3  28
BRANCH   5  30
ATOM     30  C   UNL     1     -12.285  53.421  48.343  0.00  0.00    +0.000 C 
BRANCH  30  31
ATOM     31  C   UNL     1     -12.600  54.831  48.805  0.00  0.00    +0.000 A 
ATOM     32  C   UNL     1     -12.821  55.107  50.161  0.00  0.00    +0.000 A 
ATOM     33  C   UNL     1     -12.740  55.873  47.874  0.00  0.00    +0.000 A 
ATOM     34  C   UNL     1     -13.217  56.383  50.571  0.00  0.00    +0.000 A 
ATOM     35  C   UNL     1     -13.145  57.145  48.284  0.00  0.00    +0.000 A 
ATOM     36  C   UNL     1     -13.398  57.396  49.630  0.00  0.00    +0.000 A 
ENDBRANCH  30  31
ENDBRANCH   5  30
TORSDOF 5
ENDMDL
MODEL 8
REMARK VINA RESULT:      -7.6      1.257      3.981
REMARK  Name = 352789
REMARK  6 active torsions:
REMARK  status: ('A' for Active; 'I' for Inactive)
REMARK    1  A    between atoms: C_6  and  C_10
REMARK    2  A    between atoms: C_12  and  O_16
REMARK    3  A    between atoms: C_14  and  O_19
REMARK    4  A    between atoms: O_16  and  C_21
REMARK    5  A    between atoms: N_18  and  C_23
REMARK    6  A    between atoms: C_23  and  C_26
REMARK                            x       y       z     vdW  Elec       q    Type
REMARK                         _______ _______ _______ _____ _____    ______ ____
ROOT
ATOM      1  C   UNL     1      -9.863  54.500  50.306  0.00  0.00    +0.000 A 
ATOM      2  C   UNL     1     -10.869  55.572  50.556  0.00  0.00    +0.000 A 
ATOM      3  C   UNL     1      -9.722  53.981  49.072  0.00  0.00    +0.000 A 
ATOM      4  O   UNL     1     -11.094  55.914  51.719  0.00  0.00    +0.000 OA
ATOM      5  N   UNL     1     -11.481  56.152  49.459  0.00  0.00    +0.000 N 
ATOM      6  C   UNL     1     -10.562  54.466  47.977  0.00  0.00    +0.000 A 
ATOM      7  C   UNL     1     -11.387  55.579  48.166  0.00  0.00    +0.000 A 
ATOM      8  C   UNL     1     -10.575  53.834  46.728  0.00  0.00    +0.000 A 
ATOM      9  N   UNL     1     -12.163  56.079  47.175  0.00  0.00    +0.000 NA
ATOM     10  C   UNL     1     -11.401  54.311  45.722  0.00  0.00    +0.000 A 
ATOM     11  C   UNL     1     -12.164  55.431  45.989  0.00  0.00    +0.000 A 
ENDROOT
BRANCH   1  17
ATOM     12  S   UNL     1      -6.690  54.266  52.643  0.00  0.00    +0.000 S 
ATOM     13  O   UNL     1      -6.881  55.522  53.341  0.00  0.00    +0.000 OA
ATOM     14  O   UNL     1      -5.383  53.818  52.218  0.00  0.00    +0.000 OA
ATOM     15  N   UNL     1      -7.663  54.254  51.315  0.00  0.00    +0.000 N 
ATOM     16  C   UNL     1      -7.405  53.009  53.611  0.00  0.00    +0.000 A 
ATOM     17  C   UNL     1      -9.019  53.950  51.396  0.00  0.00    +0.000 C 
ATOM     18  C   UNL     1      -8.721  52.654  53.337  0.00  0.00    +0.000 A 
ATOM     19  C   UNL     1      -6.645  52.379  54.603  0.00  0.00    +0.000 A 
ATOM     20  N   UNL     1      -9.532  53.262  52.367  0.00  0.00    +0.000 N 
ATOM     21  C   UNL     1      -9.277  51.612  54.081  0.00  0.00    +0.000 A 
ATOM     22  C   UNL     1      -7.221  51.360  55.353  0.00  0.00    +0.000 A 
ATOM     23  C   UNL     1      -8.534  50.971  55.079  0.00  0.00    +0.000 A 
ATOM     24  H   UNL     1      -7.274  54.470  50.436  0.00  0.00    +0.000 HD
ATOM     25  H   UNL     1     -10.509  53.166  52.426  0.00  0.00    +0.000 HD
BRANCH  22  26
ATOM     26  O   UNL     1      -6.613  50.678  56.369  0.00  0.00    +0.000 OA
ATOM     27  C   UNL     1      -7.452  49.846  57.164  0.00  0.00    +0.000 C 
ENDBRANCH  22  26
ENDBRANCH   1  17
BRANCH   3  28
ATOM     28  O   UNL     1      -8.829  52.980  48.726  0.00  0.00    +0.000 OA
ATOM     29  H   UNL     1      -8.279  53.081  47.973  0.00  0.00    +0.000 HD
ENDBRANCH   3  28
BRANCH   5  30
ATOM     30  C   UNL     1     -12.302  57.351  49.648  0.00  0.00    +0.000 C 
BRANCH  30  31
ATOM     31  C   UNL     1     -13.599  57.034  50.368  0.00  0.00    +0.000 A 
ATOM     32  C   UNL     1     -14.649  56.388  49.702  0.00  0.00    +0.000 A 
ATOM     33  C   UNL     1     -13.796  57.444  51.697  0.00  0.00    +0.000 A 
ATOM     34  C   UNL     1     -15.880  56.195  50.334  0.00  0.00    +0.000 A 
ATOM     35  C   UNL     1     -15.030  57.259  52.325  0.00  0.00    +0.000 A 
ATOM     36  C   UNL     1     -16.076  56.648  51.638  0.00  0.00    +0.000 A 
ENDBRANCH  30  31
ENDBRANCH   5  30
TORSDOF 5
ENDMDL
MODEL 9
REMARK VINA RESULT:      -7.5      3.465      7.842
REMARK  Name = 352789
REMARK  6 active torsions:
REMARK  status: ('A' for Active; 'I' for Inactive)
REMARK    1  A    between atoms: C_6  and  C_10
REMARK    2  A    between atoms: C_12  and  O_16
REMARK    3  A    between atoms: C_14  and  O_19
REMARK    4  A    between atoms: O_16  and  C_21
REMARK    5  A    between atoms: N_18  and  C_23
REMARK    6  A    between atoms: C_23  and  C_26
REMARK                            x       y       z     vdW  Elec       q    Type
REMARK                         _______ _______ _______ _____ _____    ______ ____
ROOT
ATOM      1  C   UNL     1     -10.952  54.945  50.324  0.00  0.00    +0.000 A 
ATOM      2  C   UNL     1      -9.496  55.260  50.394  0.00  0.00    +0.000 A 
ATOM      3  C   UNL     1     -11.359  53.700  50.014  0.00  0.00    +0.000 A 
ATOM      4  O   UNL     1      -9.150  56.437  50.517  0.00  0.00    +0.000 OA
ATOM      5  N   UNL     1      -8.603  54.205  50.345  0.00  0.00    +0.000 N 
ATOM      6  C   UNL     1     -10.371  52.658  49.738  0.00  0.00    +0.000 A 
ATOM      7  C   UNL     1      -9.012  52.902  49.961  0.00  0.00    +0.000 A 
ATOM      8  C   UNL     1     -10.747  51.406  49.237  0.00  0.00    +0.000 A 
ATOM      9  N   UNL     1      -8.064  51.960  49.743  0.00  0.00    +0.000 NA
ATOM     10  C   UNL     1      -9.778  50.451  48.968  0.00  0.00    +0.000 A 
ATOM     11  C   UNL     1      -8.463  50.770  49.243  0.00  0.00    +0.000 A 
ENDROOT
BRANCH   1  17
ATOM     12  S   UNL     1     -13.640  57.651  49.306  0.00  0.00    +0.000 S 
ATOM     13  O   UNL     1     -14.595  56.745  48.699  0.00  0.00    +0.000 OA
ATOM     14  O   UNL     1     -13.335  58.941  48.728  0.00  0.00    +0.000 OA
ATOM     15  N   UNL     1     -12.212  56.854  49.496  0.00  0.00    +0.000 N 
ATOM     16  C   UNL     1     -14.123  57.899  50.959  0.00  0.00    +0.000 A 
ATOM     17  C   UNL     1     -11.989  55.982  50.557  0.00  0.00    +0.000 C 
ATOM     18  C   UNL     1     -13.555  57.079  51.927  0.00  0.00    +0.000 A 
ATOM     19  C   UNL     1     -15.032  58.917  51.272  0.00  0.00    +0.000 A 
ATOM     20  N   UNL     1     -12.654  56.036  51.668  0.00  0.00    +0.000 N 
ATOM     21  C   UNL     1     -13.906  57.311  53.258  0.00  0.00    +0.000 A 
ATOM     22  C   UNL     1     -15.391  59.119  52.600  0.00  0.00    +0.000 A 
ATOM     23  C   UNL     1     -14.815  58.323  53.591  0.00  0.00    +0.000 A 
ATOM     24  H   UNL     1     -11.494  56.998  48.837  0.00  0.00    +0.000 HD
ATOM     25  H   UNL     1     -12.524  55.331  52.342  0.00  0.00    +0.000 HD
BRANCH  22  26
ATOM     26  O   UNL     1     -16.284  60.051  53.049  0.00  0.00    +0.000 OA
ATOM     27  C   UNL     1     -16.376  60.210  54.461  0.00  0.00    +0.000 C 
ENDBRANCH  22  26
ENDBRANCH   1  17
BRANCH   3  28
ATOM     28  O   UNL     1     -12.681  53.296  49.913  0.00  0.00    +0.000 OA
ATOM     29  H   UNL     1     -13.370  53.929  49.968  0.00  0.00    +0.000 HD
ENDBRANCH   3  28
BRANCH   5  30
ATOM     30  C   UNL     1      -7.188  54.450  50.632  0.00  0.00    +0.000 C 
BRANCH  30  31
ATOM     31  C   UNL     1      -6.870  54.236  52.100  0.00  0.00    +0.000 A 
ATOM     32  C   UNL     1      -7.262  55.177  53.062  0.00  0.00    +0.000 A 
ATOM     33  C   UNL     1      -6.117  53.125  52.514  0.00  0.00    +0.000 A 
ATOM     34  C   UNL     1      -6.874  55.033  54.397  0.00  0.00    +0.000 A 
ATOM     35  C   UNL     1      -5.722  52.987  53.846  0.00  0.00    +0.000 A 
ATOM     36  C   UNL     1      -6.088  53.949  54.784  0.00  0.00    +0.000 A 
ENDBRANCH  30  31
ENDBRANCH   5  30
TORSDOF 5
ENDMDL
