MODEL 1
REMARK VINA RESULT:      -7.0      0.000      0.000
REMARK  Name = 353163
REMARK  10 active torsions:
REMARK  status: ('A' for Active; 'I' for Inactive)
REMARK    1  A    between atoms: C_6  and  C_10
REMARK    2  A    between atoms: C_12  and  N_16
REMARK    3  A    between atoms: C_14  and  O_19
REMARK    4  A    between atoms: N_16  and  C_21
REMARK    5  A    between atoms: N_18  and  C_23
REMARK    6  A    between atoms: C_21  and  C_25
REMARK    7  A    between atoms: C_23  and  C_27
REMARK    8  A    between atoms: C_27  and  C_31
REMARK    9  A    between atoms: C_31  and  C_32
REMARK   10  A    between atoms: C_31  and  C_33
REMARK                            x       y       z     vdW  Elec       q    Type
REMARK                         _______ _______ _______ _____ _____    ______ ____
ROOT
ATOM      1  S   UNL     1     -13.478  59.088  49.382  0.00  0.00    +0.000 S 
ATOM      2  O   UNL     1     -14.607  59.191  48.478  0.00  0.00    +0.000 OA
ATOM      3  O   UNL     1     -12.626  60.240  49.624  0.00  0.00    +0.000 OA
ATOM      4  N   UNL     1     -12.546  57.869  48.875  0.00  0.00    +0.000 N 
ATOM      5  C   UNL     1     -14.146  58.649  50.942  0.00  0.00    +0.000 A 
ATOM      6  C   UNL     1     -12.467  56.759  49.547  0.00  0.00    +0.000 C 
ATOM      7  C   UNL     1     -13.882  57.386  51.433  0.00  0.00    +0.000 A 
ATOM      8  C   UNL     1     -14.930  59.570  51.636  0.00  0.00    +0.000 A 
ATOM      9  N   UNL     1     -13.164  56.456  50.692  0.00  0.00    +0.000 N 
ATOM     10  C   UNL     1     -14.434  57.030  52.661  0.00  0.00    +0.000 A 
ATOM     11  C   UNL     1     -15.480  59.220  52.868  0.00  0.00    +0.000 A 
ATOM     12  C   UNL     1     -15.204  57.948  53.379  0.00  0.00    +0.000 A 
ATOM     13  H   UNL     1     -12.028  57.969  48.044  0.00  0.00    +0.000 HD
ATOM     14  H   UNL     1     -13.155  55.523  51.005  0.00  0.00    +0.000 HD
ENDROOT
BRANCH   6  15
ATOM     15  C   UNL     1     -11.491  55.734  49.026  0.00  0.00    +0.000 A 
ATOM     16  C   UNL     1     -10.522  55.102  49.975  0.00  0.00    +0.000 A 
ATOM     17  C   UNL     1     -11.499  55.376  47.731  0.00  0.00    +0.000 A 
ATOM     18  O   UNL     1     -10.602  55.380  51.176  0.00  0.00    +0.000 OA
ATOM     19  N   UNL     1      -9.587  54.227  49.468  0.00  0.00    +0.000 N 
ATOM     20  C   UNL     1     -10.493  54.440  47.227  0.00  0.00    +0.000 A 
ATOM     21  C   UNL     1      -9.535  53.900  48.090  0.00  0.00    +0.000 A 
ATOM     22  C   UNL     1     -10.423  54.102  45.871  0.00  0.00    +0.000 A 
ATOM     23  N   UNL     1      -8.549  53.078  47.661  0.00  0.00    +0.000 NA
ATOM     24  C   UNL     1      -9.409  53.270  45.417  0.00  0.00    +0.000 A 
ATOM     25  C   UNL     1      -8.503  52.789  46.342  0.00  0.00    +0.000 A 
BRANCH  17  26
ATOM     26  O   UNL     1     -12.384  55.854  46.783  0.00  0.00    +0.000 OA
ATOM     27  H   UNL     1     -12.079  56.417  46.099  0.00  0.00    +0.000 HD
ENDBRANCH  17  26
BRANCH  19  28
ATOM     28  C   UNL     1      -8.571  53.665  50.361  0.00  0.00    +0.000 C 
BRANCH  28  29
ATOM     29  C   UNL     1      -7.258  54.456  50.290  0.00  0.00    +0.000 C 
BRANCH  29  30
ATOM     30  C   UNL     1      -6.986  55.345  51.518  0.00  0.00    +0.000 C 
ATOM     31  C   UNL     1      -7.464  56.784  51.322  0.00  0.00    +0.000 C 
ATOM     32  C   UNL     1      -7.674  54.741  52.746  0.00  0.00    +0.000 C 
ENDBRANCH  29  30
ENDBRANCH  28  29
ENDBRANCH  19  28
ENDBRANCH   6  15
BRANCH  11  33
ATOM     33  N   UNL     1     -16.356  60.029  53.567  0.00  0.00    +0.000 N 
ATOM     34  H   UNL     1     -17.028  60.553  53.074  0.00  0.00    +0.000 HD
BRANCH  33  35
ATOM     35  C   UNL     1     -16.304  60.121  55.022  0.00  0.00    +0.000 C 
BRANCH  35  36
ATOM     36  C   UNL     1     -17.238  61.138  55.536  0.00  0.00    +0.000 C 
ATOM     37  N   UNL     1     -17.978  61.941  55.929  0.00  0.00    +0.000 NA
ENDBRANCH  35  36
ENDBRANCH  33  35
ENDBRANCH  11  33
TORSDOF 8
ENDMDL
MODEL 2
REMARK VINA RESULT:      -6.9      2.579      3.655
REMARK  Name = 353163
REMARK  10 active torsions:
REMARK  status: ('A' for Active; 'I' for Inactive)
REMARK    1  A    between atoms: C_6  and  C_10
REMARK    2  A    between atoms: C_12  and  N_16
REMARK    3  A    between atoms: C_14  and  O_19
REMARK    4  A    between atoms: N_16  and  C_21
REMARK    5  A    between atoms: N_18  and  C_23
REMARK    6  A    between atoms: C_21  and  C_25
REMARK    7  A    between atoms: C_23  and  C_27
REMARK    8  A    between atoms: C_27  and  C_31
REMARK    9  A    between atoms: C_31  and  C_32
REMARK   10  A    between atoms: C_31  and  C_33
REMARK                            x       y       z     vdW  Elec       q    Type
REMARK                         _______ _______ _______ _____ _____    ______ ____
ROOT
ATOM      1  S   UNL     1     -11.145  54.793  51.740  0.00  0.00    +0.000 S 
ATOM      2  O   UNL     1     -10.127  55.416  52.563  0.00  0.00    +0.000 OA
ATOM      3  O   UNL     1     -11.890  53.649  52.237  0.00  0.00    +0.000 OA
ATOM      4  N   UNL     1     -10.461  54.377  50.336  0.00  0.00    +0.000 N 
ATOM      5  C   UNL     1     -12.335  56.038  51.417  0.00  0.00    +0.000 A 
ATOM      6  C   UNL     1     -10.752  55.005  49.235  0.00  0.00    +0.000 C 
ATOM      7  C   UNL     1     -12.443  56.519  50.127  0.00  0.00    +0.000 A 
ATOM      8  C   UNL     1     -13.127  56.517  52.460  0.00  0.00    +0.000 A 
ATOM      9  N   UNL     1     -11.593  56.085  49.119  0.00  0.00    +0.000 N 
ATOM     10  C   UNL     1     -13.373  57.526  49.877  0.00  0.00    +0.000 A 
ATOM     11  C   UNL     1     -14.062  57.520  52.214  0.00  0.00    +0.000 A 
ATOM     12  C   UNL     1     -14.188  58.002  50.907  0.00  0.00    +0.000 A 
ATOM     13  H   UNL     1      -9.814  53.635  50.313  0.00  0.00    +0.000 HD
ATOM     14  H   UNL     1     -11.593  56.581  48.269  0.00  0.00    +0.000 HD
ENDROOT
BRANCH   6  15
ATOM     15  C   UNL     1     -10.125  54.463  47.975  0.00  0.00    +0.000 A 
ATOM     16  C   UNL     1      -8.635  54.464  47.842  0.00  0.00    +0.000 A 
ATOM     17  C   UNL     1     -10.890  53.966  46.988  0.00  0.00    +0.000 A 
ATOM     18  O   UNL     1      -7.955  54.837  48.804  0.00  0.00    +0.000 OA
ATOM     19  N   UNL     1      -8.084  54.038  46.654  0.00  0.00    +0.000 N 
ATOM     20  C   UNL     1     -10.270  53.518  45.740  0.00  0.00    +0.000 A 
ATOM     21  C   UNL     1      -8.884  53.585  45.576  0.00  0.00    +0.000 A 
ATOM     22  C   UNL     1     -11.040  53.067  44.662  0.00  0.00    +0.000 A 
ATOM     23  N   UNL     1      -8.270  53.239  44.420  0.00  0.00    +0.000 NA
ATOM     24  C   UNL     1     -10.423  52.722  43.468  0.00  0.00    +0.000 A 
ATOM     25  C   UNL     1      -9.048  52.826  43.396  0.00  0.00    +0.000 A 
BRANCH  17  26
ATOM     26  O   UNL     1     -12.268  53.866  47.029  0.00  0.00    +0.000 OA
ATOM     27  H   UNL     1     -12.791  54.633  47.157  0.00  0.00    +0.000 HD
ENDBRANCH  17  26
BRANCH  19  28
ATOM     28  C   UNL     1      -6.633  54.115  46.467  0.00  0.00    +0.000 C 
BRANCH  28  29
ATOM     29  C   UNL     1      -5.915  52.937  47.139  0.00  0.00    +0.000 C 
BRANCH  29  30
ATOM     30  C   UNL     1      -4.506  53.271  47.667  0.00  0.00    +0.000 C 
ATOM     31  C   UNL     1      -4.537  54.002  49.010  0.00  0.00    +0.000 C 
ATOM     32  C   UNL     1      -3.697  51.978  47.807  0.00  0.00    +0.000 C 
ENDBRANCH  29  30
ENDBRANCH  28  29
ENDBRANCH  19  28
ENDBRANCH   6  15
BRANCH  11  33
ATOM     33  N   UNL     1     -14.806  58.128  53.208  0.00  0.00    +0.000 N 
ATOM     34  H   UNL     1     -14.904  57.681  54.080  0.00  0.00    +0.000 HD
BRANCH  33  35
ATOM     35  C   UNL     1     -15.449  59.419  52.990  0.00  0.00    +0.000 C 
BRANCH  35  36
ATOM     36  C   UNL     1     -16.060  59.937  54.226  0.00  0.00    +0.000 C 
ATOM     37  N   UNL     1     -16.548  60.335  55.202  0.00  0.00    +0.000 NA
ENDBRANCH  35  36
ENDBRANCH  33  35
ENDBRANCH  11  33
TORSDOF 8
ENDMDL
MODEL 3
REMARK VINA RESULT:      -6.9      3.081      4.748
REMARK  Name = 353163
REMARK  10 active torsions:
REMARK  status: ('A' for Active; 'I' for Inactive)
REMARK    1  A    between atoms: C_6  and  C_10
REMARK    2  A    between atoms: C_12  and  N_16
REMARK    3  A    between atoms: C_14  and  O_19
REMARK    4  A    between atoms: N_16  and  C_21
REMARK    5  A    between atoms: N_18  and  C_23
REMARK    6  A    between atoms: C_21  and  C_25
REMARK    7  A    between atoms: C_23  and  C_27
REMARK    8  A    between atoms: C_27  and  C_31
REMARK    9  A    between atoms: C_31  and  C_32
REMARK   10  A    between atoms: C_31  and  C_33
REMARK                            x       y       z     vdW  Elec       q    Type
REMARK                         _______ _______ _______ _____ _____    ______ ____
ROOT
ATOM      1  S   UNL     1     -11.374  54.689  48.081  0.00  0.00    +0.000 S 
ATOM      2  O   UNL     1     -12.310  53.653  47.688  0.00  0.00    +0.000 OA
ATOM      3  O   UNL     1     -11.150  55.838  47.221  0.00  0.00    +0.000 OA
ATOM      4  N   UNL     1      -9.947  53.986  48.364  0.00  0.00    +0.000 N 
ATOM      5  C   UNL     1     -11.973  55.332  49.596  0.00  0.00    +0.000 A 
ATOM      6  C   UNL     1      -9.476  53.885  49.571  0.00  0.00    +0.000 C 
ATOM      7  C   UNL     1     -11.248  55.083  50.744  0.00  0.00    +0.000 A 
ATOM      8  C   UNL     1     -13.162  56.062  49.610  0.00  0.00    +0.000 A 
ATOM      9  N   UNL     1     -10.108  54.289  50.723  0.00  0.00    +0.000 N 
ATOM     10  C   UNL     1     -11.738  55.575  51.952  0.00  0.00    +0.000 A 
ATOM     11  C   UNL     1     -13.654  56.560  50.814  0.00  0.00    +0.000 A 
ATOM     12  C   UNL     1     -12.916  56.325  51.979  0.00  0.00    +0.000 A 
ATOM     13  H   UNL     1      -9.424  53.629  47.610  0.00  0.00    +0.000 HD
ATOM     14  H   UNL     1      -9.731  53.999  51.583  0.00  0.00    +0.000 HD
ENDROOT
BRANCH   6  15
ATOM     15  C   UNL     1      -8.092  53.298  49.699  0.00  0.00    +0.000 A 
ATOM     16  C   UNL     1      -7.071  54.010  50.530  0.00  0.00    +0.000 A 
ATOM     17  C   UNL     1      -7.780  52.140  49.092  0.00  0.00    +0.000 A 
ATOM     18  O   UNL     1      -7.415  55.020  51.153  0.00  0.00    +0.000 OA
ATOM     19  N   UNL     1      -5.793  53.501  50.571  0.00  0.00    +0.000 N 
ATOM     20  C   UNL     1      -6.412  51.626  49.161  0.00  0.00    +0.000 A 
ATOM     21  C   UNL     1      -5.431  52.323  49.871  0.00  0.00    +0.000 A 
ATOM     22  C   UNL     1      -6.031  50.465  48.478  0.00  0.00    +0.000 A 
ATOM     23  N   UNL     1      -4.139  51.920  49.915  0.00  0.00    +0.000 NA
ATOM     24  C   UNL     1      -4.708  50.050  48.505  0.00  0.00    +0.000 A 
ATOM     25  C   UNL     1      -3.806  50.805  49.229  0.00  0.00    +0.000 A 
BRANCH  17  26
ATOM     26  O   UNL     1      -8.659  51.374  48.349  0.00  0.00    +0.000 OA
ATOM     27  H   UNL     1      -9.053  51.729  47.577  0.00  0.00    +0.000 HD
ENDBRANCH  17  26
BRANCH  19  28
ATOM     28  C   UNL     1      -4.753  54.229  51.303  0.00  0.00    +0.000 C 
BRANCH  28  29
ATOM     29  C   UNL     1      -4.690  53.795  52.774  0.00  0.00    +0.000 C 
BRANCH  29  30
ATOM     30  C   UNL     1      -5.056  54.903  53.779  0.00  0.00    +0.000 C 
ATOM     31  C   UNL     1      -6.033  54.425  54.855  0.00  0.00    +0.000 C 
ATOM     32  C   UNL     1      -3.780  55.427  54.445  0.00  0.00    +0.000 C 
ENDBRANCH  29  30
ENDBRANCH  28  29
ENDBRANCH  19  28
ENDBRANCH   6  15
BRANCH  11  33
ATOM     33  N   UNL     1     -14.876  57.195  50.933  0.00  0.00    +0.000 N 
ATOM     34  H   UNL     1     -15.696  56.718  50.668  0.00  0.00    +0.000 HD
BRANCH  33  35
ATOM     35  C   UNL     1     -14.975  58.559  51.441  0.00  0.00    +0.000 C 
BRANCH  35  36
ATOM     36  C   UNL     1     -14.275  59.515  50.567  0.00  0.00    +0.000 C 
ATOM     37  N   UNL     1     -13.733  60.270  49.870  0.00  0.00    +0.000 NA
ENDBRANCH  35  36
ENDBRANCH  33  35
ENDBRANCH  11  33
TORSDOF 8
ENDMDL
MODEL 4
REMARK VINA RESULT:      -6.8      4.149      9.091
REMARK  Name = 353163
REMARK  10 active torsions:
REMARK  status: ('A' for Active; 'I' for Inactive)
REMARK    1  A    between atoms: C_6  and  C_10
REMARK    2  A    between atoms: C_12  and  N_16
REMARK    3  A    between atoms: C_14  and  O_19
REMARK    4  A    between atoms: N_16  and  C_21
REMARK    5  A    between atoms: N_18  and  C_23
REMARK    6  A    between atoms: C_21  and  C_25
REMARK    7  A    between atoms: C_23  and  C_27
REMARK    8  A    between atoms: C_27  and  C_31
REMARK    9  A    between atoms: C_31  and  C_32
REMARK   10  A    between atoms: C_31  and  C_33
REMARK                            x       y       z     vdW  Elec       q    Type
REMARK                         _______ _______ _______ _____ _____    ______ ____
ROOT
ATOM      1  S   UNL     1      -8.676  52.579  52.661  0.00  0.00    +0.000 S 
ATOM      2  O   UNL     1      -8.682  51.148  52.428  0.00  0.00    +0.000 OA
ATOM      3  O   UNL     1      -8.972  53.108  53.982  0.00  0.00    +0.000 OA
ATOM      4  N   UNL     1      -9.697  53.257  51.607  0.00  0.00    +0.000 N 
ATOM      5  C   UNL     1      -7.057  53.126  52.276  0.00  0.00    +0.000 A 
ATOM      6  C   UNL     1      -9.261  53.982  50.620  0.00  0.00    +0.000 C 
ATOM      7  C   UNL     1      -6.883  53.916  51.157  0.00  0.00    +0.000 A 
ATOM      8  C   UNL     1      -5.992  52.744  53.092  0.00  0.00    +0.000 A 
ATOM      9  N   UNL     1      -7.943  54.222  50.314  0.00  0.00    +0.000 N 
ATOM     10  C   UNL     1      -5.591  54.330  50.840  0.00  0.00    +0.000 A 
ATOM     11  C   UNL     1      -4.699  53.159  52.781  0.00  0.00    +0.000 A 
ATOM     12  C   UNL     1      -4.516  53.973  51.658  0.00  0.00    +0.000 A 
ATOM     13  H   UNL     1     -10.666  53.119  51.714  0.00  0.00    +0.000 HD
ATOM     14  H   UNL     1      -7.738  54.635  49.445  0.00  0.00    +0.000 HD
ENDROOT
BRANCH   6  15
ATOM     15  C   UNL     1     -10.313  54.640  49.763  0.00  0.00    +0.000 A 
ATOM     16  C   UNL     1     -10.303  54.403  48.285  0.00  0.00    +0.000 A 
ATOM     17  C   UNL     1     -11.261  55.416  50.315  0.00  0.00    +0.000 A 
ATOM     18  O   UNL     1      -9.479  53.609  47.819  0.00  0.00    +0.000 OA
ATOM     19  N   UNL     1     -11.222  55.074  47.510  0.00  0.00    +0.000 N 
ATOM     20  C   UNL     1     -12.225  56.110  49.461  0.00  0.00    +0.000 A 
ATOM     21  C   UNL     1     -12.178  55.956  48.073  0.00  0.00    +0.000 A 
ATOM     22  C   UNL     1     -13.177  56.986  49.994  0.00  0.00    +0.000 A 
ATOM     23  N   UNL     1     -13.008  56.622  47.237  0.00  0.00    +0.000 NA
ATOM     24  C   UNL     1     -14.026  57.684  49.147  0.00  0.00    +0.000 A 
ATOM     25  C   UNL     1     -13.902  57.472  47.787  0.00  0.00    +0.000 A 
BRANCH  17  26
ATOM     26  O   UNL     1     -11.397  55.656  51.670  0.00  0.00    +0.000 OA
ATOM     27  H   UNL     1     -12.246  55.809  52.036  0.00  0.00    +0.000 HD
ENDBRANCH  17  26
BRANCH  19  28
ATOM     28  C   UNL     1     -11.174  54.928  46.053  0.00  0.00    +0.000 C 
BRANCH  28  29
ATOM     29  C   UNL     1     -11.852  53.631  45.593  0.00  0.00    +0.000 C 
BRANCH  29  30
ATOM     30  C   UNL     1     -11.130  52.912  44.438  0.00  0.00    +0.000 C 
ATOM     31  C   UNL     1      -9.623  53.170  44.433  0.00  0.00    +0.000 C 
ATOM     32  C   UNL     1     -11.390  51.405  44.534  0.00  0.00    +0.000 C 
ENDBRANCH  29  30
ENDBRANCH  28  29
ENDBRANCH  19  28
ENDBRANCH   6  15
BRANCH  11  33
ATOM     33  N   UNL     1      -3.577  52.736  53.469  0.00  0.00    +0.000 N 
ATOM     34  H   UNL     1      -2.945  53.404  53.820  0.00  0.00    +0.000 HD
BRANCH  33  35
ATOM     35  C   UNL     1      -3.311  51.317  53.682  0.00  0.00    +0.000 C 
BRANCH  35  36
ATOM     36  C   UNL     1      -3.300  50.570  52.413  0.00  0.00    +0.000 C 
ATOM     37  N   UNL     1      -3.304  49.977  51.414  0.00  0.00    +0.000 NA
ENDBRANCH  35  36
ENDBRANCH  33  35
ENDBRANCH  11  33
TORSDOF 8
ENDMDL
MODEL 5
REMARK VINA RESULT:      -6.8      1.255      3.666
REMARK  Name = 353163
REMARK  10 active torsions:
REMARK  status: ('A' for Active; 'I' for Inactive)
REMARK    1  A    between atoms: C_6  and  C_10
REMARK    2  A    between atoms: C_12  and  N_16
REMARK    3  A    between atoms: C_14  and  O_19
REMARK    4  A    between atoms: N_16  and  C_21
REMARK    5  A    between atoms: N_18  and  C_23
REMARK    6  A    between atoms: C_21  and  C_25
REMARK    7  A    between atoms: C_23  and  C_27
REMARK    8  A    between atoms: C_27  and  C_31
REMARK    9  A    between atoms: C_31  and  C_32
REMARK   10  A    between atoms: C_31  and  C_33
REMARK                            x       y       z     vdW  Elec       q    Type
REMARK                         _______ _______ _______ _____ _____    ______ ____
ROOT
ATOM      1  S   UNL     1     -13.452  59.053  49.407  0.00  0.00    +0.000 S 
ATOM      2  O   UNL     1     -14.573  59.141  48.491  0.00  0.00    +0.000 OA
ATOM      3  O   UNL     1     -12.605  60.209  49.640  0.00  0.00    +0.000 OA
ATOM      4  N   UNL     1     -12.513  57.829  48.924  0.00  0.00    +0.000 N 
ATOM      5  C   UNL     1     -14.133  58.632  50.966  0.00  0.00    +0.000 A 
ATOM      6  C   UNL     1     -12.438  56.728  49.611  0.00  0.00    +0.000 C 
ATOM      7  C   UNL     1     -13.871  57.376  51.476  0.00  0.00    +0.000 A 
ATOM      8  C   UNL     1     -14.924  59.561  51.641  0.00  0.00    +0.000 A 
ATOM      9  N   UNL     1     -13.145  56.438  50.753  0.00  0.00    +0.000 N 
ATOM     10  C   UNL     1     -14.433  57.036  52.704  0.00  0.00    +0.000 A 
ATOM     11  C   UNL     1     -15.485  59.227  52.872  0.00  0.00    +0.000 A 
ATOM     12  C   UNL     1     -15.211  57.961  53.403  0.00  0.00    +0.000 A 
ATOM     13  H   UNL     1     -11.988  57.918  48.096  0.00  0.00    +0.000 HD
ATOM     14  H   UNL     1     -13.136  55.510  51.079  0.00  0.00    +0.000 HD
ENDROOT
BRANCH   6  15
ATOM     15  C   UNL     1     -11.455  55.698  49.113  0.00  0.00    +0.000 A 
ATOM     16  C   UNL     1     -11.441  55.346  47.659  0.00  0.00    +0.000 A 
ATOM     17  C   UNL     1     -10.586  55.115  49.957  0.00  0.00    +0.000 A 
ATOM     18  O   UNL     1     -12.184  55.967  46.892  0.00  0.00    +0.000 OA
ATOM     19  N   UNL     1     -10.591  54.348  47.237  0.00  0.00    +0.000 N 
ATOM     20  C   UNL     1      -9.694  54.061  49.473  0.00  0.00    +0.000 A 
ATOM     21  C   UNL     1      -9.725  53.671  48.131  0.00  0.00    +0.000 A 
ATOM     22  C   UNL     1      -8.831  53.379  50.337  0.00  0.00    +0.000 A 
ATOM     23  N   UNL     1      -8.963  52.662  47.649  0.00  0.00    +0.000 NA
ATOM     24  C   UNL     1      -8.054  52.334  49.857  0.00  0.00    +0.000 A 
ATOM     25  C   UNL     1      -8.156  52.015  48.517  0.00  0.00    +0.000 A 
BRANCH  17  26
ATOM     26  O   UNL     1     -10.476  55.406  51.304  0.00  0.00    +0.000 OA
ATOM     27  H   UNL     1      -9.635  55.586  51.677  0.00  0.00    +0.000 HD
ENDBRANCH  17  26
BRANCH  19  28
ATOM     28  C   UNL     1     -10.623  53.923  45.835  0.00  0.00    +0.000 C 
BRANCH  28  29
ATOM     29  C   UNL     1     -11.697  52.853  45.595  0.00  0.00    +0.000 C 
BRANCH  29  30
ATOM     30  C   UNL     1     -11.332  51.820  44.512  0.00  0.00    +0.000 C 
ATOM     31  C   UNL     1     -10.293  52.347  43.521  0.00  0.00    +0.000 C 
ATOM     32  C   UNL     1     -10.802  50.548  45.180  0.00  0.00    +0.000 C 
ENDBRANCH  29  30
ENDBRANCH  28  29
ENDBRANCH  19  28
ENDBRANCH   6  15
BRANCH  11  33
ATOM     33  N   UNL     1     -16.369  60.042  53.553  0.00  0.00    +0.000 N 
ATOM     34  H   UNL     1     -17.029  60.569  53.046  0.00  0.00    +0.000 HD
BRANCH  33  35
ATOM     35  C   UNL     1     -16.342  60.139  55.008  0.00  0.00    +0.000 C 
BRANCH  35  36
ATOM     36  C   UNL     1     -17.270  61.173  55.500  0.00  0.00    +0.000 C 
ATOM     37  N   UNL     1     -17.992  61.994  55.893  0.00  0.00    +0.000 NA
ENDBRANCH  35  36
ENDBRANCH  33  35
ENDBRANCH  11  33
TORSDOF 8
ENDMDL
MODEL 6
REMARK VINA RESULT:      -6.6      3.211      4.427
REMARK  Name = 353163
REMARK  10 active torsions:
REMARK  status: ('A' for Active; 'I' for Inactive)
REMARK    1  A    between atoms: C_6  and  C_10
REMARK    2  A    between atoms: C_12  and  N_16
REMARK    3  A    between atoms: C_14  and  O_19
REMARK    4  A    between atoms: N_16  and  C_21
REMARK    5  A    between atoms: N_18  and  C_23
REMARK    6  A    between atoms: C_21  and  C_25
REMARK    7  A    between atoms: C_23  and  C_27
REMARK    8  A    between atoms: C_27  and  C_31
REMARK    9  A    between atoms: C_31  and  C_32
REMARK   10  A    between atoms: C_31  and  C_33
REMARK                            x       y       z     vdW  Elec       q    Type
REMARK                         _______ _______ _______ _____ _____    ______ ____
ROOT
ATOM      1  S   UNL     1     -11.632  54.400  50.797  0.00  0.00    +0.000 S 
ATOM      2  O   UNL     1     -10.764  55.225  51.615  0.00  0.00    +0.000 OA
ATOM      3  O   UNL     1     -12.522  53.434  51.417  0.00  0.00    +0.000 OA
ATOM      4  N   UNL     1     -10.709  53.620  49.724  0.00  0.00    +0.000 N 
ATOM      5  C   UNL     1     -12.666  55.509  49.918  0.00  0.00    +0.000 A 
ATOM      6  C   UNL     1     -10.742  53.925  48.461  0.00  0.00    +0.000 C 
ATOM      7  C   UNL     1     -12.492  55.622  48.553  0.00  0.00    +0.000 A 
ATOM      8  C   UNL     1     -13.621  56.252  50.611  0.00  0.00    +0.000 A 
ATOM      9  N   UNL     1     -11.484  54.932  47.892  0.00  0.00    +0.000 N 
ATOM     10  C   UNL     1     -13.298  56.522  47.860  0.00  0.00    +0.000 A 
ATOM     11  C   UNL     1     -14.433  57.150  49.922  0.00  0.00    +0.000 A 
ATOM     12  C   UNL     1     -14.273  57.259  48.536  0.00  0.00    +0.000 A 
ATOM     13  H   UNL     1     -10.111  52.900  50.033  0.00  0.00    +0.000 HD
ATOM     14  H   UNL     1     -11.290  55.178  46.960  0.00  0.00    +0.000 HD
ENDROOT
BRANCH   6  15
ATOM     15  C   UNL     1      -9.909  53.062  47.546  0.00  0.00    +0.000 A 
ATOM     16  C   UNL     1      -8.480  52.793  47.898  0.00  0.00    +0.000 A 
ATOM     17  C   UNL     1     -10.445  52.524  46.437  0.00  0.00    +0.000 A 
ATOM     18  O   UNL     1      -8.044  53.221  48.972  0.00  0.00    +0.000 OA
ATOM     19  N   UNL     1      -7.715  52.068  47.012  0.00  0.00    +0.000 N 
ATOM     20  C   UNL     1      -9.602  51.755  45.520  0.00  0.00    +0.000 A 
ATOM     21  C   UNL     1      -8.247  51.561  45.800  0.00  0.00    +0.000 A 
ATOM     22  C   UNL     1     -10.106  51.245  44.318  0.00  0.00    +0.000 A 
ATOM     23  N   UNL     1      -7.414  50.909  44.955  0.00  0.00    +0.000 NA
ATOM     24  C   UNL     1      -9.259  50.586  43.438  0.00  0.00    +0.000 A 
ATOM     25  C   UNL     1      -7.933  50.447  43.797  0.00  0.00    +0.000 A 
BRANCH  17  26
ATOM     26  O   UNL     1     -11.764  52.661  46.048  0.00  0.00    +0.000 OA
ATOM     27  H   UNL     1     -12.335  53.235  46.521  0.00  0.00    +0.000 HD
ENDBRANCH  17  26
BRANCH  19  28
ATOM     28  C   UNL     1      -6.290  51.868  47.290  0.00  0.00    +0.000 C 
BRANCH  28  29
ATOM     29  C   UNL     1      -5.506  53.183  47.189  0.00  0.00    +0.000 C 
BRANCH  29  30
ATOM     30  C   UNL     1      -4.531  53.432  48.355  0.00  0.00    +0.000 C 
ATOM     31  C   UNL     1      -4.859  54.704  49.137  0.00  0.00    +0.000 C 
ATOM     32  C   UNL     1      -4.556  52.229  49.304  0.00  0.00    +0.000 C 
ENDBRANCH  29  30
ENDBRANCH  28  29
ENDBRANCH  19  28
ENDBRANCH   6  15
BRANCH  11  33
ATOM     33  N   UNL     1     -15.324  58.004  50.545  0.00  0.00    +0.000 N 
ATOM     34  H   UNL     1     -16.285  57.790  50.535  0.00  0.00    +0.000 HD
BRANCH  33  35
ATOM     35  C   UNL     1     -14.868  59.217  51.214  0.00  0.00    +0.000 C 
BRANCH  35  36
ATOM     36  C   UNL     1     -13.906  59.965  50.387  0.00  0.00    +0.000 C 
ATOM     37  N   UNL     1     -13.156  60.557  49.726  0.00  0.00    +0.000 NA
ENDBRANCH  35  36
ENDBRANCH  33  35
ENDBRANCH  11  33
TORSDOF 8
ENDMDL
MODEL 7
REMARK VINA RESULT:      -6.5      3.620      9.247
REMARK  Name = 353163
REMARK  10 active torsions:
REMARK  status: ('A' for Active; 'I' for Inactive)
REMARK    1  A    between atoms: C_6  and  C_10
REMARK    2  A    between atoms: C_12  and  N_16
REMARK    3  A    between atoms: C_14  and  O_19
REMARK    4  A    between atoms: N_16  and  C_21
REMARK    5  A    between atoms: N_18  and  C_23
REMARK    6  A    between atoms: C_21  and  C_25
REMARK    7  A    between atoms: C_23  and  C_27
REMARK    8  A    between atoms: C_27  and  C_31
REMARK    9  A    between atoms: C_31  and  C_32
REMARK   10  A    between atoms: C_31  and  C_33
REMARK                            x       y       z     vdW  Elec       q    Type
REMARK                         _______ _______ _______ _____ _____    ______ ____
ROOT
ATOM      1  S   UNL     1      -8.579  51.355  51.261  0.00  0.00    +0.000 S 
ATOM      2  O   UNL     1      -8.355  50.381  50.211  0.00  0.00    +0.000 OA
ATOM      3  O   UNL     1      -8.929  50.920  52.602  0.00  0.00    +0.000 OA
ATOM      4  N   UNL     1      -9.719  52.381  50.751  0.00  0.00    +0.000 N 
ATOM      5  C   UNL     1      -7.079  52.247  51.422  0.00  0.00    +0.000 A 
ATOM      6  C   UNL     1      -9.428  53.610  50.444  0.00  0.00    +0.000 C 
ATOM      7  C   UNL     1      -7.060  53.570  51.029  0.00  0.00    +0.000 A 
ATOM      8  C   UNL     1      -5.949  51.603  51.927  0.00  0.00    +0.000 A 
ATOM      9  N   UNL     1      -8.174  54.172  50.457  0.00  0.00    +0.000 N 
ATOM     10  C   UNL     1      -5.860  54.270  51.135  0.00  0.00    +0.000 A 
ATOM     11  C   UNL     1      -4.748  52.300  52.039  0.00  0.00    +0.000 A 
ATOM     12  C   UNL     1      -4.725  53.646  51.657  0.00  0.00    +0.000 A 
ATOM     13  H   UNL     1     -10.650  52.070  50.671  0.00  0.00    +0.000 HD
ATOM     14  H   UNL     1      -8.058  55.053  50.036  0.00  0.00    +0.000 HD
ENDROOT
BRANCH   6  15
ATOM     15  C   UNL     1     -10.591  54.497  50.075  0.00  0.00    +0.000 A 
ATOM     16  C   UNL     1     -11.600  54.850  51.121  0.00  0.00    +0.000 A 
ATOM     17  C   UNL     1     -10.714  54.983  48.828  0.00  0.00    +0.000 A 
ATOM     18  O   UNL     1     -11.410  54.468  52.281  0.00  0.00    +0.000 OA
ATOM     19  N   UNL     1     -12.696  55.596  50.747  0.00  0.00    +0.000 N 
ATOM     20  C   UNL     1     -11.889  55.776  48.466  0.00  0.00    +0.000 A 
ATOM     21  C   UNL     1     -12.877  56.048  49.417  0.00  0.00    +0.000 A 
ATOM     22  C   UNL     1     -12.089  56.233  47.159  0.00  0.00    +0.000 A 
ATOM     23  N   UNL     1     -14.009  56.726  49.116  0.00  0.00    +0.000 NA
ATOM     24  C   UNL     1     -13.252  56.918  46.836  0.00  0.00    +0.000 A 
ATOM     25  C   UNL     1     -14.175  57.136  47.840  0.00  0.00    +0.000 A 
BRANCH  17  26
ATOM     26  O   UNL     1      -9.812  54.766  47.802  0.00  0.00    +0.000 OA
ATOM     27  H   UNL     1      -9.936  54.048  47.213  0.00  0.00    +0.000 HD
ENDBRANCH  17  26
BRANCH  19  28
ATOM     28  C   UNL     1     -13.743  55.878  51.732  0.00  0.00    +0.000 C 
BRANCH  28  29
ATOM     29  C   UNL     1     -13.454  57.169  52.509  0.00  0.00    +0.000 C 
BRANCH  29  30
ATOM     30  C   UNL     1     -14.710  57.974  52.892  0.00  0.00    +0.000 C 
ATOM     31  C   UNL     1     -14.888  59.231  52.039  0.00  0.00    +0.000 C 
ATOM     32  C   UNL     1     -15.948  57.082  52.750  0.00  0.00    +0.000 C 
ENDBRANCH  29  30
ENDBRANCH  28  29
ENDBRANCH  19  28
ENDBRANCH   6  15
BRANCH  11  33
ATOM     33  N   UNL     1      -3.558  51.710  52.422  0.00  0.00    +0.000 N 
ATOM     34  H   UNL     1      -2.833  52.272  52.779  0.00  0.00    +0.000 HD
BRANCH  33  35
ATOM     35  C   UNL     1      -3.355  50.270  52.304  0.00  0.00    +0.000 C 
BRANCH  35  36
ATOM     36  C   UNL     1      -3.319  49.840  50.896  0.00  0.00    +0.000 C 
ATOM     37  N   UNL     1      -3.302  49.498  49.786  0.00  0.00    +0.000 NA
ENDBRANCH  35  36
ENDBRANCH  33  35
ENDBRANCH  11  33
TORSDOF 8
ENDMDL
MODEL 8
REMARK VINA RESULT:      -6.4      1.714      2.299
REMARK  Name = 353163
REMARK  10 active torsions:
REMARK  status: ('A' for Active; 'I' for Inactive)
REMARK    1  A    between atoms: C_6  and  C_10
REMARK    2  A    between atoms: C_12  and  N_16
REMARK    3  A    between atoms: C_14  and  O_19
REMARK    4  A    between atoms: N_16  and  C_21
REMARK    5  A    between atoms: N_18  and  C_23
REMARK    6  A    between atoms: C_21  and  C_25
REMARK    7  A    between atoms: C_23  and  C_27
REMARK    8  A    between atoms: C_27  and  C_31
REMARK    9  A    between atoms: C_31  and  C_32
REMARK   10  A    between atoms: C_31  and  C_33
REMARK                            x       y       z     vdW  Elec       q    Type
REMARK                         _______ _______ _______ _____ _____    ______ ____
ROOT
ATOM      1  S   UNL     1     -13.920  57.234  48.522  0.00  0.00    +0.000 S 
ATOM      2  O   UNL     1     -15.216  56.620  48.309  0.00  0.00    +0.000 OA
ATOM      3  O   UNL     1     -13.713  58.637  48.207  0.00  0.00    +0.000 OA
ATOM      4  N   UNL     1     -12.822  56.368  47.712  0.00  0.00    +0.000 N 
ATOM      5  C   UNL     1     -13.583  57.072  50.234  0.00  0.00    +0.000 A 
ATOM      6  C   UNL     1     -11.951  55.633  48.337  0.00  0.00    +0.000 C 
ATOM      7  C   UNL     1     -12.571  56.218  50.623  0.00  0.00    +0.000 A 
ATOM      8  C   UNL     1     -14.346  57.791  51.154  0.00  0.00    +0.000 A 
ATOM      9  N   UNL     1     -11.874  55.452  49.697  0.00  0.00    +0.000 N 
ATOM     10  C   UNL     1     -12.321  56.072  51.985  0.00  0.00    +0.000 A 
ATOM     11  C   UNL     1     -14.097  57.652  52.518  0.00  0.00    +0.000 A 
ATOM     12  C   UNL     1     -13.062  56.801  52.919  0.00  0.00    +0.000 A 
ATOM     13  H   UNL     1     -12.812  56.398  46.727  0.00  0.00    +0.000 HD
ATOM     14  H   UNL     1     -11.290  54.736  50.036  0.00  0.00    +0.000 HD
ENDROOT
BRANCH   6  15
ATOM     15  C   UNL     1     -10.918  54.949  47.477  0.00  0.00    +0.000 A 
ATOM     16  C   UNL     1      -9.477  55.020  47.873  0.00  0.00    +0.000 A 
ATOM     17  C   UNL     1     -11.283  54.266  46.379  0.00  0.00    +0.000 A 
ATOM     18  O   UNL     1      -9.182  55.573  48.938  0.00  0.00    +0.000 OA
ATOM     19  N   UNL     1      -8.541  54.457  47.035  0.00  0.00    +0.000 N 
ATOM     20  C   UNL     1     -10.261  53.676  45.513  0.00  0.00    +0.000 A 
ATOM     21  C   UNL     1      -8.906  53.802  45.833  0.00  0.00    +0.000 A 
ATOM     22  C   UNL     1     -10.599  53.025  44.322  0.00  0.00    +0.000 A 
ATOM     23  N   UNL     1      -7.923  53.326  45.035  0.00  0.00    +0.000 NA
ATOM     24  C   UNL     1      -9.599  52.544  43.489  0.00  0.00    +0.000 A 
ATOM     25  C   UNL     1      -8.287  52.719  43.884  0.00  0.00    +0.000 A 
BRANCH  17  26
ATOM     26  O   UNL     1     -12.587  54.090  45.954  0.00  0.00    +0.000 OA
ATOM     27  H   UNL     1     -13.243  53.805  46.560  0.00  0.00    +0.000 HD
ENDBRANCH  17  26
BRANCH  19  28
ATOM     28  C   UNL     1      -7.117  54.593  47.355  0.00  0.00    +0.000 C 
BRANCH  28  29
ATOM     29  C   UNL     1      -6.600  53.385  48.147  0.00  0.00    +0.000 C 
BRANCH  29  30
ATOM     30  C   UNL     1      -5.938  53.745  49.491  0.00  0.00    +0.000 C 
ATOM     31  C   UNL     1      -5.436  55.189  49.534  0.00  0.00    +0.000 C 
ATOM     32  C   UNL     1      -6.940  53.519  50.628  0.00  0.00    +0.000 C 
ENDBRANCH  29  30
ENDBRANCH  28  29
ENDBRANCH  19  28
ENDBRANCH   6  15
BRANCH  11  33
ATOM     33  N   UNL     1     -14.875  58.239  53.498  0.00  0.00    +0.000 N 
ATOM     34  H   UNL     1     -14.957  57.802  54.376  0.00  0.00    +0.000 HD
BRANCH  33  35
ATOM     35  C   UNL     1     -15.580  59.494  53.254  0.00  0.00    +0.000 C 
BRANCH  35  36
ATOM     36  C   UNL     1     -16.179  60.028  54.490  0.00  0.00    +0.000 C 
ATOM     37  N   UNL     1     -16.642  60.445  55.470  0.00  0.00    +0.000 NA
ENDBRANCH  35  36
ENDBRANCH  33  35
ENDBRANCH  11  33
TORSDOF 8
ENDMDL
MODEL 9
REMARK VINA RESULT:      -6.4      3.522      5.224
REMARK  Name = 353163
REMARK  10 active torsions:
REMARK  status: ('A' for Active; 'I' for Inactive)
REMARK    1  A    between atoms: C_6  and  C_10
REMARK    2  A    between atoms: C_12  and  N_16
REMARK    3  A    between atoms: C_14  and  O_19
REMARK    4  A    between atoms: N_16  and  C_21
REMARK    5  A    between atoms: N_18  and  C_23
REMARK    6  A    between atoms: C_21  and  C_25
REMARK    7  A    between atoms: C_23  and  C_27
REMARK    8  A    between atoms: C_27  and  C_31
REMARK    9  A    between atoms: C_31  and  C_32
REMARK   10  A    between atoms: C_31  and  C_33
REMARK                            x       y       z     vdW  Elec       q    Type
REMARK                         _______ _______ _______ _____ _____    ______ ____
ROOT
ATOM      1  S   UNL     1     -10.992  54.133  51.844  0.00  0.00    +0.000 S 
ATOM      2  O   UNL     1     -10.782  55.144  52.860  0.00  0.00    +0.000 OA
ATOM      3  O   UNL     1     -11.838  52.984  52.117  0.00  0.00    +0.000 OA
ATOM      4  N   UNL     1      -9.543  53.591  51.376  0.00  0.00    +0.000 N 
ATOM      5  C   UNL     1     -11.728  54.957  50.484  0.00  0.00    +0.000 A 
ATOM      6  C   UNL     1      -9.067  53.873  50.200  0.00  0.00    +0.000 C 
ATOM      7  C   UNL     1     -10.986  55.103  49.329  0.00  0.00    +0.000 A 
ATOM      8  C   UNL     1     -13.026  55.453  50.604  0.00  0.00    +0.000 A 
ATOM      9  N   UNL     1      -9.668  54.671  49.255  0.00  0.00    +0.000 N 
ATOM     10  C   UNL     1     -11.564  55.780  48.258  0.00  0.00    +0.000 A 
ATOM     11  C   UNL     1     -13.610  56.128  49.534  0.00  0.00    +0.000 A 
ATOM     12  C   UNL     1     -12.870  56.265  48.354  0.00  0.00    +0.000 A 
ATOM     13  H   UNL     1      -9.011  53.037  51.992  0.00  0.00    +0.000 HD
ATOM     14  H   UNL     1      -9.132  54.953  48.480  0.00  0.00    +0.000 HD
ENDROOT
BRANCH   6  15
ATOM     15  C   UNL     1      -7.750  53.231  49.842  0.00  0.00    +0.000 A 
ATOM     16  C   UNL     1      -6.516  53.636  50.584  0.00  0.00    +0.000 A 
ATOM     17  C   UNL     1      -7.684  52.293  48.882  0.00  0.00    +0.000 A 
ATOM     18  O   UNL     1      -6.624  54.429  51.525  0.00  0.00    +0.000 OA
ATOM     19  N   UNL     1      -5.311  53.097  50.192  0.00  0.00    +0.000 N 
ATOM     20  C   UNL     1      -6.387  51.738  48.494  0.00  0.00    +0.000 A 
ATOM     21  C   UNL     1      -5.217  52.164  49.129  0.00  0.00    +0.000 A 
ATOM     22  C   UNL     1      -6.269  50.816  47.447  0.00  0.00    +0.000 A 
ATOM     23  N   UNL     1      -3.989  51.726  48.765  0.00  0.00    +0.000 NA
ATOM     24  C   UNL     1      -5.015  50.369  47.057  0.00  0.00    +0.000 A 
ATOM     25  C   UNL     1      -3.915  50.850  47.739  0.00  0.00    +0.000 A 
BRANCH  17  26
ATOM     26  O   UNL     1      -8.767  51.806  48.175  0.00  0.00    +0.000 OA
ATOM     27  H   UNL     1      -8.630  51.291  47.404  0.00  0.00    +0.000 HD
ENDBRANCH  17  26
BRANCH  19  28
ATOM     28  C   UNL     1      -4.078  53.545  50.843  0.00  0.00    +0.000 C 
BRANCH  28  29
ATOM     29  C   UNL     1      -3.609  52.547  51.911  0.00  0.00    +0.000 C 
BRANCH  29  30
ATOM     30  C   UNL     1      -3.746  53.056  53.358  0.00  0.00    +0.000 C 
ATOM     31  C   UNL     1      -3.625  54.577  53.462  0.00  0.00    +0.000 C 
ATOM     32  C   UNL     1      -5.095  52.611  53.929  0.00  0.00    +0.000 C 
ENDBRANCH  29  30
ENDBRANCH  28  29
ENDBRANCH  19  28
ENDBRANCH   6  15
BRANCH  11  33
ATOM     33  N   UNL     1     -14.844  56.746  49.606  0.00  0.00    +0.000 N 
ATOM     34  H   UNL     1     -15.539  56.515  48.948  0.00  0.00    +0.000 HD
BRANCH  33  35
ATOM     35  C   UNL     1     -15.136  57.736  50.637  0.00  0.00    +0.000 C 
BRANCH  35  36
ATOM     36  C   UNL     1     -14.412  58.996  50.400  0.00  0.00    +0.000 C 
ATOM     37  N   UNL     1     -13.847  59.996  50.222  0.00  0.00    +0.000 NA
ENDBRANCH  35  36
ENDBRANCH  33  35
ENDBRANCH  11  33
TORSDOF 8
ENDMDL
