MODEL 1
REMARK VINA RESULT:      -7.2      0.000      0.000
REMARK  Name = 353262
REMARK  12 active torsions:
REMARK  status: ('A' for Active; 'I' for Inactive)
REMARK    1  A    between atoms: C_6  and  C_10
REMARK    2  A    between atoms: C_12  and  N_16
REMARK    3  A    between atoms: C_14  and  O_19
REMARK    4  A    between atoms: N_16  and  S_21
REMARK    5  A    between atoms: N_18  and  C_23
REMARK    6  A    between atoms: S_21  and  C_27
REMARK    7  A    between atoms: C_23  and  C_29
REMARK    8  A    between atoms: C_27  and  C_31
REMARK    9  A    between atoms: C_27  and  C_32
REMARK   10  A    between atoms: C_29  and  C_34
REMARK   11  A    between atoms: C_34  and  C_35
REMARK   12  A    between atoms: C_34  and  C_36
REMARK                            x       y       z     vdW  Elec       q    Type
REMARK                         _______ _______ _______ _____ _____    ______ ____
ROOT
ATOM      1  S   UNL     1     -11.513  52.476  49.878  0.00  0.00    +0.000 S 
ATOM      2  O   UNL     1     -11.907  52.153  51.232  0.00  0.00    +0.000 OA
ATOM      3  O   UNL     1     -12.209  51.895  48.745  0.00  0.00    +0.000 OA
ATOM      4  N   UNL     1      -9.943  52.118  49.727  0.00  0.00    +0.000 N 
ATOM      5  C   UNL     1     -11.689  54.214  49.706  0.00  0.00    +0.000 A 
ATOM      6  C   UNL     1      -9.041  53.051  49.650  0.00  0.00    +0.000 C 
ATOM      7  C   UNL     1     -10.531  54.975  49.622  0.00  0.00    +0.000 A 
ATOM      8  C   UNL     1     -12.960  54.783  49.643  0.00  0.00    +0.000 A 
ATOM      9  N   UNL     1      -9.272  54.402  49.709  0.00  0.00    +0.000 N 
ATOM     10  C   UNL     1     -10.652  56.364  49.521  0.00  0.00    +0.000 A 
ATOM     11  C   UNL     1     -13.053  56.166  49.534  0.00  0.00    +0.000 A 
ATOM     12  C   UNL     1     -11.908  56.956  49.471  0.00  0.00    +0.000 A 
ATOM     13  H   UNL     1      -9.665  51.175  49.693  0.00  0.00    +0.000 HD
ATOM     14  H   UNL     1      -8.496  54.999  49.820  0.00  0.00    +0.000 HD
ENDROOT
BRANCH   6  15
ATOM     15  C   UNL     1      -7.623  52.587  49.444  0.00  0.00    +0.000 A 
ATOM     16  C   UNL     1      -6.537  53.121  50.325  0.00  0.00    +0.000 A 
ATOM     17  C   UNL     1      -7.341  51.681  48.493  0.00  0.00    +0.000 A 
ATOM     18  O   UNL     1      -6.847  53.866  51.260  0.00  0.00    +0.000 OA
ATOM     19  N   UNL     1      -5.237  52.749  50.057  0.00  0.00    +0.000 N 
ATOM     20  C   UNL     1      -5.953  51.308  48.236  0.00  0.00    +0.000 A 
ATOM     21  C   UNL     1      -4.918  51.862  48.999  0.00  0.00    +0.000 A 
ATOM     22  C   UNL     1      -5.616  50.447  47.187  0.00  0.00    +0.000 A 
ATOM     23  N   UNL     1      -3.617  51.590  48.756  0.00  0.00    +0.000 NA
ATOM     24  C   UNL     1      -4.283  50.183  46.914  0.00  0.00    +0.000 A 
ATOM     25  C   UNL     1      -3.323  50.768  47.721  0.00  0.00    +0.000 A 
BRANCH  17  26
ATOM     26  O   UNL     1      -8.277  51.076  47.672  0.00  0.00    +0.000 OA
ATOM     27  H   UNL     1      -8.060  50.877  46.782  0.00  0.00    +0.000 HD
ENDBRANCH  17  26
BRANCH  19  28
ATOM     28  C   UNL     1      -4.141  53.321  50.848  0.00  0.00    +0.000 C 
BRANCH  28  29
ATOM     29  C   UNL     1      -3.732  52.404  52.009  0.00  0.00    +0.000 C 
BRANCH  29  30
ATOM     30  C   UNL     1      -3.896  53.022  53.412  0.00  0.00    +0.000 C 
ATOM     31  C   UNL     1      -3.752  54.544  53.405  0.00  0.00    +0.000 C 
ATOM     32  C   UNL     1      -5.273  52.642  53.971  0.00  0.00    +0.000 C 
ENDBRANCH  29  30
ENDBRANCH  28  29
ENDBRANCH  19  28
ENDBRANCH   6  15
BRANCH  11  33
ATOM     33  N   UNL     1     -14.299  56.824  49.502  0.00  0.00    +0.000 N 
ATOM     34  H   UNL     1     -14.635  57.218  48.665  0.00  0.00    +0.000 HD
BRANCH  33  35
ATOM     35  S   UNL     1     -15.199  56.925  50.913  0.00  0.00    +0.000 S 
ATOM     36  O   UNL     1     -16.522  56.452  50.572  0.00  0.00    +0.000 OA
ATOM     37  O   UNL     1     -14.448  56.353  52.010  0.00  0.00    +0.000 OA
BRANCH  35  38
ATOM     38  C   UNL     1     -15.286  58.719  51.140  0.00  0.00    +0.000 C 
ATOM     39  C   UNL     1     -14.750  59.143  52.504  0.00  0.00    +0.000 C 
ATOM     40  C   UNL     1     -14.515  59.410  50.022  0.00  0.00    +0.000 C 
ENDBRANCH  35  38
ENDBRANCH  33  35
ENDBRANCH  11  33
TORSDOF 8
ENDMDL
MODEL 2
REMARK VINA RESULT:      -6.8      1.726      2.026
REMARK  Name = 353262
REMARK  12 active torsions:
REMARK  status: ('A' for Active; 'I' for Inactive)
REMARK    1  A    between atoms: C_6  and  C_10
REMARK    2  A    between atoms: C_12  and  N_16
REMARK    3  A    between atoms: C_14  and  O_19
REMARK    4  A    between atoms: N_16  and  S_21
REMARK    5  A    between atoms: N_18  and  C_23
REMARK    6  A    between atoms: S_21  and  C_27
REMARK    7  A    between atoms: C_23  and  C_29
REMARK    8  A    between atoms: C_27  and  C_31
REMARK    9  A    between atoms: C_27  and  C_32
REMARK   10  A    between atoms: C_29  and  C_34
REMARK   11  A    between atoms: C_34  and  C_35
REMARK   12  A    between atoms: C_34  and  C_36
REMARK                            x       y       z     vdW  Elec       q    Type
REMARK                         _______ _______ _______ _____ _____    ______ ____
ROOT
ATOM      1  S   UNL     1     -11.109  54.450  48.244  0.00  0.00    +0.000 S 
ATOM      2  O   UNL     1     -11.994  53.374  47.855  0.00  0.00    +0.000 OA
ATOM      3  O   UNL     1     -10.891  55.585  47.366  0.00  0.00    +0.000 OA
ATOM      4  N   UNL     1      -9.665  53.799  48.574  0.00  0.00    +0.000 N 
ATOM      5  C   UNL     1     -11.755  55.115  49.734  0.00  0.00    +0.000 A 
ATOM      6  C   UNL     1      -9.229  53.706  49.795  0.00  0.00    +0.000 C 
ATOM      7  C   UNL     1     -11.053  54.872  50.908  0.00  0.00    +0.000 A 
ATOM      8  C   UNL     1     -12.925  55.872  49.711  0.00  0.00    +0.000 A 
ATOM      9  N   UNL     1      -9.902  54.098  50.924  0.00  0.00    +0.000 N 
ATOM     10  C   UNL     1     -11.571  55.364  52.109  0.00  0.00    +0.000 A 
ATOM     11  C   UNL     1     -13.416  56.357  50.918  0.00  0.00    +0.000 A 
ATOM     12  C   UNL     1     -12.744  56.108  52.113  0.00  0.00    +0.000 A 
ATOM     13  H   UNL     1      -9.106  53.468  47.835  0.00  0.00    +0.000 HD
ATOM     14  H   UNL     1      -9.547  53.813  51.797  0.00  0.00    +0.000 HD
ENDROOT
BRANCH   6  15
ATOM     15  C   UNL     1      -7.842  53.143  49.963  0.00  0.00    +0.000 A 
ATOM     16  C   UNL     1      -6.877  53.823  50.882  0.00  0.00    +0.000 A 
ATOM     17  C   UNL     1      -7.485  52.025  49.310  0.00  0.00    +0.000 A 
ATOM     18  O   UNL     1      -7.273  54.783  51.551  0.00  0.00    +0.000 OA
ATOM     19  N   UNL     1      -5.587  53.339  50.948  0.00  0.00    +0.000 N 
ATOM     20  C   UNL     1      -6.110  51.539  49.403  0.00  0.00    +0.000 A 
ATOM     21  C   UNL     1      -5.174  52.211  50.196  0.00  0.00    +0.000 A 
ATOM     22  C   UNL     1      -5.679  50.438  48.657  0.00  0.00    +0.000 A 
ATOM     23  N   UNL     1      -3.879  51.832  50.264  0.00  0.00    +0.000 NA
ATOM     24  C   UNL     1      -4.347  50.057  48.699  0.00  0.00    +0.000 A 
ATOM     25  C   UNL     1      -3.489  50.774  49.514  0.00  0.00    +0.000 A 
BRANCH  17  26
ATOM     26  O   UNL     1      -8.319  51.283  48.491  0.00  0.00    +0.000 OA
ATOM     27  H   UNL     1      -8.031  51.028  47.636  0.00  0.00    +0.000 HD
ENDBRANCH  17  26
BRANCH  19  28
ATOM     28  C   UNL     1      -4.594  54.034  51.775  0.00  0.00    +0.000 C 
BRANCH  28  29
ATOM     29  C   UNL     1      -4.319  53.288  53.089  0.00  0.00    +0.000 C 
BRANCH  29  30
ATOM     30  C   UNL     1      -5.033  53.868  54.325  0.00  0.00    +0.000 C 
ATOM     31  C   UNL     1      -5.304  55.368  54.200  0.00  0.00    +0.000 C 
ATOM     32  C   UNL     1      -6.359  53.126  54.534  0.00  0.00    +0.000 C 
ENDBRANCH  29  30
ENDBRANCH  28  29
ENDBRANCH  19  28
ENDBRANCH   6  15
BRANCH  11  33
ATOM     33  N   UNL     1     -14.612  57.098  50.987  0.00  0.00    +0.000 N 
ATOM     34  H   UNL     1     -15.484  56.644  50.965  0.00  0.00    +0.000 HD
BRANCH  33  35
ATOM     35  S   UNL     1     -14.524  58.768  51.105  0.00  0.00    +0.000 S 
ATOM     36  O   UNL     1     -15.860  59.254  50.839  0.00  0.00    +0.000 OA
ATOM     37  O   UNL     1     -13.810  59.133  52.309  0.00  0.00    +0.000 OA
BRANCH  35  38
ATOM     38  C   UNL     1     -13.489  59.163  49.672  0.00  0.00    +0.000 C 
ATOM     39  C   UNL     1     -14.198  58.849  48.359  0.00  0.00    +0.000 C 
ATOM     40  C   UNL     1     -13.085  60.632  49.728  0.00  0.00    +0.000 C 
ENDBRANCH  35  38
ENDBRANCH  33  35
ENDBRANCH  11  33
TORSDOF 8
ENDMDL
MODEL 3
REMARK VINA RESULT:      -6.8      2.471      4.588
REMARK  Name = 353262
REMARK  12 active torsions:
REMARK  status: ('A' for Active; 'I' for Inactive)
REMARK    1  A    between atoms: C_6  and  C_10
REMARK    2  A    between atoms: C_12  and  N_16
REMARK    3  A    between atoms: C_14  and  O_19
REMARK    4  A    between atoms: N_16  and  S_21
REMARK    5  A    between atoms: N_18  and  C_23
REMARK    6  A    between atoms: S_21  and  C_27
REMARK    7  A    between atoms: C_23  and  C_29
REMARK    8  A    between atoms: C_27  and  C_31
REMARK    9  A    between atoms: C_27  and  C_32
REMARK   10  A    between atoms: C_29  and  C_34
REMARK   11  A    between atoms: C_34  and  C_35
REMARK   12  A    between atoms: C_34  and  C_36
REMARK                            x       y       z     vdW  Elec       q    Type
REMARK                         _______ _______ _______ _____ _____    ______ ____
ROOT
ATOM      1  S   UNL     1     -10.627  54.454  51.145  0.00  0.00    +0.000 S 
ATOM      2  O   UNL     1      -9.963  55.485  51.914  0.00  0.00    +0.000 OA
ATOM      3  O   UNL     1     -11.478  53.476  51.796  0.00  0.00    +0.000 OA
ATOM      4  N   UNL     1      -9.490  53.649  50.324  0.00  0.00    +0.000 N 
ATOM      5  C   UNL     1     -11.650  55.279  49.982  0.00  0.00    +0.000 A 
ATOM      6  C   UNL     1      -9.359  53.786  49.038  0.00  0.00    +0.000 C 
ATOM      7  C   UNL     1     -11.272  55.239  48.646  0.00  0.00    +0.000 A 
ATOM      8  C   UNL     1     -12.807  55.929  50.408  0.00  0.00    +0.000 A 
ATOM      9  N   UNL     1     -10.107  54.609  48.235  0.00  0.00    +0.000 N 
ATOM     10  C   UNL     1     -12.056  55.920  47.711  0.00  0.00    +0.000 A 
ATOM     11  C   UNL     1     -13.574  56.592  49.456  0.00  0.00    +0.000 A 
ATOM     12  C   UNL     1     -13.205  56.588  48.113  0.00  0.00    +0.000 A 
ATOM     13  H   UNL     1      -8.884  53.043  50.808  0.00  0.00    +0.000 HD
ATOM     14  H   UNL     1      -9.798  54.761  47.312  0.00  0.00    +0.000 HD
ENDROOT
BRANCH   6  15
ATOM     15  C   UNL     1      -8.307  52.930  48.383  0.00  0.00    +0.000 A 
ATOM     16  C   UNL     1      -8.689  52.030  47.250  0.00  0.00    +0.000 A 
ATOM     17  C   UNL     1      -7.031  52.995  48.797  0.00  0.00    +0.000 A 
ATOM     18  O   UNL     1      -9.846  52.078  46.822  0.00  0.00    +0.000 OA
ATOM     19  N   UNL     1      -7.725  51.193  46.728  0.00  0.00    +0.000 N 
ATOM     20  C   UNL     1      -6.035  52.094  48.222  0.00  0.00    +0.000 A 
ATOM     21  C   UNL     1      -6.396  51.189  47.218  0.00  0.00    +0.000 A 
ATOM     22  C   UNL     1      -4.722  52.064  48.702  0.00  0.00    +0.000 A 
ATOM     23  N   UNL     1      -5.522  50.298  46.701  0.00  0.00    +0.000 NA
ATOM     24  C   UNL     1      -3.825  51.136  48.196  0.00  0.00    +0.000 A 
ATOM     25  C   UNL     1      -4.263  50.282  47.200  0.00  0.00    +0.000 A 
BRANCH  17  26
ATOM     26  O   UNL     1      -6.560  53.840  49.787  0.00  0.00    +0.000 OA
ATOM     27  H   UNL     1      -7.156  54.393  50.255  0.00  0.00    +0.000 HD
ENDBRANCH  17  26
BRANCH  19  28
ATOM     28  C   UNL     1      -8.089  50.237  45.675  0.00  0.00    +0.000 C 
BRANCH  28  29
ATOM     29  C   UNL     1      -7.826  50.804  44.273  0.00  0.00    +0.000 C 
BRANCH  29  30
ATOM     30  C   UNL     1      -9.093  51.104  43.447  0.00  0.00    +0.000 C 
ATOM     31  C   UNL     1     -10.342  50.434  44.021  0.00  0.00    +0.000 C 
ATOM     32  C   UNL     1      -9.308  52.621  43.389  0.00  0.00    +0.000 C 
ENDBRANCH  29  30
ENDBRANCH  28  29
ENDBRANCH  19  28
ENDBRANCH   6  15
BRANCH  11  33
ATOM     33  N   UNL     1     -14.737  57.305  49.809  0.00  0.00    +0.000 N 
ATOM     34  H   UNL     1     -15.628  56.955  49.579  0.00  0.00    +0.000 HD
BRANCH  33  35
ATOM     35  S   UNL     1     -14.579  58.760  50.626  0.00  0.00    +0.000 S 
ATOM     36  O   UNL     1     -13.216  59.190  50.408  0.00  0.00    +0.000 OA
ATOM     37  O   UNL     1     -15.704  59.617  50.315  0.00  0.00    +0.000 OA
BRANCH  35  38
ATOM     38  C   UNL     1     -14.725  58.209  52.345  0.00  0.00    +0.000 C 
ATOM     39  C   UNL     1     -15.283  59.307  53.245  0.00  0.00    +0.000 C 
ATOM     40  C   UNL     1     -15.605  56.966  52.406  0.00  0.00    +0.000 C 
ENDBRANCH  35  38
ENDBRANCH  33  35
ENDBRANCH  11  33
TORSDOF 8
ENDMDL
MODEL 4
REMARK VINA RESULT:      -6.6      2.614      3.525
REMARK  Name = 353262
REMARK  12 active torsions:
REMARK  status: ('A' for Active; 'I' for Inactive)
REMARK    1  A    between atoms: C_6  and  C_10
REMARK    2  A    between atoms: C_12  and  N_16
REMARK    3  A    between atoms: C_14  and  O_19
REMARK    4  A    between atoms: N_16  and  S_21
REMARK    5  A    between atoms: N_18  and  C_23
REMARK    6  A    between atoms: S_21  and  C_27
REMARK    7  A    between atoms: C_23  and  C_29
REMARK    8  A    between atoms: C_27  and  C_31
REMARK    9  A    between atoms: C_27  and  C_32
REMARK   10  A    between atoms: C_29  and  C_34
REMARK   11  A    between atoms: C_34  and  C_35
REMARK   12  A    between atoms: C_34  and  C_36
REMARK                            x       y       z     vdW  Elec       q    Type
REMARK                         _______ _______ _______ _____ _____    ______ ____
ROOT
ATOM      1  S   UNL     1     -11.499  53.869  50.475  0.00  0.00    +0.000 S 
ATOM      2  O   UNL     1     -10.641  54.640  51.350  0.00  0.00    +0.000 OA
ATOM      3  O   UNL     1     -12.477  52.947  51.021  0.00  0.00    +0.000 OA
ATOM      4  N   UNL     1     -10.546  53.037  49.467  0.00  0.00    +0.000 N 
ATOM      5  C   UNL     1     -12.412  55.027  49.523  0.00  0.00    +0.000 A 
ATOM      6  C   UNL     1     -10.443  53.360  48.212  0.00  0.00    +0.000 C 
ATOM      7  C   UNL     1     -12.097  55.146  48.176  0.00  0.00    +0.000 A 
ATOM      8  C   UNL     1     -13.424  55.776  50.119  0.00  0.00    +0.000 A 
ATOM      9  N   UNL     1     -11.072  54.413  47.597  0.00  0.00    +0.000 N 
ATOM     10  C   UNL     1     -12.790  56.088  47.410  0.00  0.00    +0.000 A 
ATOM     11  C   UNL     1     -14.104  56.700  49.333  0.00  0.00    +0.000 A 
ATOM     12  C   UNL     1     -13.793  56.857  47.985  0.00  0.00    +0.000 A 
ATOM     13  H   UNL     1     -10.034  52.271  49.811  0.00  0.00    +0.000 HD
ATOM     14  H   UNL     1     -10.777  54.662  46.691  0.00  0.00    +0.000 HD
ENDROOT
BRANCH   6  15
ATOM     15  C   UNL     1      -9.577  52.465  47.365  0.00  0.00    +0.000 A 
ATOM     16  C   UNL     1      -8.200  52.115  47.834  0.00  0.00    +0.000 A 
ATOM     17  C   UNL     1     -10.049  51.966  46.211  0.00  0.00    +0.000 A 
ATOM     18  O   UNL     1      -7.839  52.499  48.951  0.00  0.00    +0.000 OA
ATOM     19  N   UNL     1      -7.396  51.368  46.998  0.00  0.00    +0.000 N 
ATOM     20  C   UNL     1      -9.171  51.177  45.350  0.00  0.00    +0.000 A 
ATOM     21  C   UNL     1      -7.854  50.910  45.738  0.00  0.00    +0.000 A 
ATOM     22  C   UNL     1      -9.597  50.729  44.096  0.00  0.00    +0.000 A 
ATOM     23  N   UNL     1      -6.990  50.236  44.946  0.00  0.00    +0.000 NA
ATOM     24  C   UNL     1      -8.711  50.061  43.266  0.00  0.00    +0.000 A 
ATOM     25  C   UNL     1      -7.428  49.832  43.730  0.00  0.00    +0.000 A 
BRANCH  17  26
ATOM     26  O   UNL     1     -11.326  52.172  45.721  0.00  0.00    +0.000 OA
ATOM     27  H   UNL     1     -12.057  52.181  46.308  0.00  0.00    +0.000 HD
ENDBRANCH  17  26
BRANCH  19  28
ATOM     28  C   UNL     1      -6.012  51.079  47.391  0.00  0.00    +0.000 C 
BRANCH  28  29
ATOM     29  C   UNL     1      -5.103  52.307  47.229  0.00  0.00    +0.000 C 
BRANCH  29  30
ATOM     30  C   UNL     1      -4.297  52.687  48.487  0.00  0.00    +0.000 C 
ATOM     31  C   UNL     1      -4.690  54.055  49.047  0.00  0.00    +0.000 C 
ATOM     32  C   UNL     1      -4.511  51.615  49.564  0.00  0.00    +0.000 C 
ENDBRANCH  29  30
ENDBRANCH  28  29
ENDBRANCH  19  28
ENDBRANCH   6  15
BRANCH  11  33
ATOM     33  N   UNL     1     -15.116  57.523  49.867  0.00  0.00    +0.000 N 
ATOM     34  H   UNL     1     -16.065  57.311  49.717  0.00  0.00    +0.000 HD
BRANCH  33  35
ATOM     35  S   UNL     1     -14.676  58.870  50.763  0.00  0.00    +0.000 S 
ATOM     36  O   UNL     1     -13.282  59.108  50.461  0.00  0.00    +0.000 OA
ATOM     37  O   UNL     1     -15.674  59.906  50.604  0.00  0.00    +0.000 OA
BRANCH  35  38
ATOM     38  C   UNL     1     -14.781  58.215  52.448  0.00  0.00    +0.000 C 
ATOM     39  C   UNL     1     -15.300  59.262  53.430  0.00  0.00    +0.000 C 
ATOM     40  C   UNL     1     -15.675  56.981  52.457  0.00  0.00    +0.000 C 
ENDBRANCH  35  38
ENDBRANCH  33  35
ENDBRANCH  11  33
TORSDOF 8
ENDMDL
MODEL 5
REMARK VINA RESULT:      -6.5      2.643      3.769
REMARK  Name = 353262
REMARK  12 active torsions:
REMARK  status: ('A' for Active; 'I' for Inactive)
REMARK    1  A    between atoms: C_6  and  C_10
REMARK    2  A    between atoms: C_12  and  N_16
REMARK    3  A    between atoms: C_14  and  O_19
REMARK    4  A    between atoms: N_16  and  S_21
REMARK    5  A    between atoms: N_18  and  C_23
REMARK    6  A    between atoms: S_21  and  C_27
REMARK    7  A    between atoms: C_23  and  C_29
REMARK    8  A    between atoms: C_27  and  C_31
REMARK    9  A    between atoms: C_27  and  C_32
REMARK   10  A    between atoms: C_29  and  C_34
REMARK   11  A    between atoms: C_34  and  C_35
REMARK   12  A    between atoms: C_34  and  C_36
REMARK                            x       y       z     vdW  Elec       q    Type
REMARK                         _______ _______ _______ _____ _____    ______ ____
ROOT
ATOM      1  S   UNL     1     -10.303  55.488  47.840  0.00  0.00    +0.000 S 
ATOM      2  O   UNL     1     -11.302  55.941  46.896  0.00  0.00    +0.000 OA
ATOM      3  O   UNL     1      -9.328  56.413  48.387  0.00  0.00    +0.000 OA
ATOM      4  N   UNL     1      -9.494  54.271  47.148  0.00  0.00    +0.000 N 
ATOM      5  C   UNL     1     -11.174  54.842  49.219  0.00  0.00    +0.000 A 
ATOM      6  C   UNL     1      -9.657  53.042  47.537  0.00  0.00    +0.000 C 
ATOM      7  C   UNL     1     -11.158  53.466  49.406  0.00  0.00    +0.000 A 
ATOM      8  C   UNL     1     -11.839  55.702  50.091  0.00  0.00    +0.000 A 
ATOM      9  N   UNL     1     -10.513  52.616  48.521  0.00  0.00    +0.000 N 
ATOM     10  C   UNL     1     -11.876  52.930  50.479  0.00  0.00    +0.000 A 
ATOM     11  C   UNL     1     -12.539  55.145  51.155  0.00  0.00    +0.000 A 
ATOM     12  C   UNL     1     -12.558  53.767  51.353  0.00  0.00    +0.000 A 
ATOM     13  H   UNL     1      -8.864  54.466  46.416  0.00  0.00    +0.000 HD
ATOM     14  H   UNL     1     -10.680  51.648  48.601  0.00  0.00    +0.000 HD
ENDROOT
BRANCH   6  15
ATOM     15  C   UNL     1      -8.795  52.010  46.858  0.00  0.00    +0.000 A 
ATOM     16  C   UNL     1      -7.696  51.347  47.627  0.00  0.00    +0.000 A 
ATOM     17  C   UNL     1      -9.029  51.672  45.580  0.00  0.00    +0.000 A 
ATOM     18  O   UNL     1      -7.580  51.600  48.831  0.00  0.00    +0.000 OA
ATOM     19  N   UNL     1      -6.866  50.473  46.957  0.00  0.00    +0.000 N 
ATOM     20  C   UNL     1      -8.131  50.742  44.900  0.00  0.00    +0.000 A 
ATOM     21  C   UNL     1      -7.050  50.175  45.584  0.00  0.00    +0.000 A 
ATOM     22  C   UNL     1      -8.285  50.447  43.542  0.00  0.00    +0.000 A 
ATOM     23  N   UNL     1      -6.160  49.357  44.978  0.00  0.00    +0.000 NA
ATOM     24  C   UNL     1      -7.363  49.631  42.906  0.00  0.00    +0.000 A 
ATOM     25  C   UNL     1      -6.327  49.107  43.658  0.00  0.00    +0.000 A 
BRANCH  17  26
ATOM     26  O   UNL     1     -10.058  52.173  44.802  0.00  0.00    +0.000 OA
ATOM     27  H   UNL     1     -10.840  52.492  45.208  0.00  0.00    +0.000 HD
ENDBRANCH  17  26
BRANCH  19  28
ATOM     28  C   UNL     1      -5.727  49.871  47.660  0.00  0.00    +0.000 C 
BRANCH  28  29
ATOM     29  C   UNL     1      -4.392  50.494  47.228  0.00  0.00    +0.000 C 
BRANCH  29  30
ATOM     30  C   UNL     1      -3.849  51.583  48.174  0.00  0.00    +0.000 C 
ATOM     31  C   UNL     1      -4.352  52.981  47.814  0.00  0.00    +0.000 C 
ATOM     32  C   UNL     1      -4.259  51.248  49.614  0.00  0.00    +0.000 C 
ENDBRANCH  29  30
ENDBRANCH  28  29
ENDBRANCH  19  28
ENDBRANCH   6  15
BRANCH  11  33
ATOM     33  N   UNL     1     -13.267  55.942  52.060  0.00  0.00    +0.000 N 
ATOM     34  H   UNL     1     -12.940  56.084  52.978  0.00  0.00    +0.000 HD
BRANCH  33  35
ATOM     35  S   UNL     1     -14.701  56.645  51.549  0.00  0.00    +0.000 S 
ATOM     36  O   UNL     1     -15.127  55.881  50.398  0.00  0.00    +0.000 OA
ATOM     37  O   UNL     1     -15.572  56.854  52.686  0.00  0.00    +0.000 OA
BRANCH  35  38
ATOM     38  C   UNL     1     -14.109  58.254  50.967  0.00  0.00    +0.000 C 
ATOM     39  C   UNL     1     -14.113  58.340  49.444  0.00  0.00    +0.000 C 
ATOM     40  C   UNL     1     -14.969  59.359  51.569  0.00  0.00    +0.000 C 
ENDBRANCH  35  38
ENDBRANCH  33  35
ENDBRANCH  11  33
TORSDOF 8
ENDMDL
MODEL 6
REMARK VINA RESULT:      -6.4      2.096      2.792
REMARK  Name = 353262
REMARK  12 active torsions:
REMARK  status: ('A' for Active; 'I' for Inactive)
REMARK    1  A    between atoms: C_6  and  C_10
REMARK    2  A    between atoms: C_12  and  N_16
REMARK    3  A    between atoms: C_14  and  O_19
REMARK    4  A    between atoms: N_16  and  S_21
REMARK    5  A    between atoms: N_18  and  C_23
REMARK    6  A    between atoms: S_21  and  C_27
REMARK    7  A    between atoms: C_23  and  C_29
REMARK    8  A    between atoms: C_27  and  C_31
REMARK    9  A    between atoms: C_27  and  C_32
REMARK   10  A    between atoms: C_29  and  C_34
REMARK   11  A    between atoms: C_34  and  C_35
REMARK   12  A    between atoms: C_34  and  C_36
REMARK                            x       y       z     vdW  Elec       q    Type
REMARK                         _______ _______ _______ _____ _____    ______ ____
ROOT
ATOM      1  S   UNL     1      -8.999  55.642  48.630  0.00  0.00    +0.000 S 
ATOM      2  O   UNL     1      -9.089  55.490  47.193  0.00  0.00    +0.000 OA
ATOM      3  O   UNL     1      -8.601  56.907  49.218  0.00  0.00    +0.000 OA
ATOM      4  N   UNL     1      -7.987  54.505  49.177  0.00  0.00    +0.000 N 
ATOM      5  C   UNL     1     -10.596  55.297  49.270  0.00  0.00    +0.000 A 
ATOM      6  C   UNL     1      -8.421  53.477  49.842  0.00  0.00    +0.000 C 
ATOM      7  C   UNL     1     -10.767  54.112  49.974  0.00  0.00    +0.000 A 
ATOM      8  C   UNL     1     -11.635  56.205  49.079  0.00  0.00    +0.000 A 
ATOM      9  N   UNL     1      -9.732  53.204  50.139  0.00  0.00    +0.000 N 
ATOM     10  C   UNL     1     -12.040  53.804  50.461  0.00  0.00    +0.000 A 
ATOM     11  C   UNL     1     -12.890  55.879  49.581  0.00  0.00    +0.000 A 
ATOM     12  C   UNL     1     -13.096  54.687  50.271  0.00  0.00    +0.000 A 
ATOM     13  H   UNL     1      -7.022  54.595  49.003  0.00  0.00    +0.000 HD
ATOM     14  H   UNL     1      -9.951  52.309  50.489  0.00  0.00    +0.000 HD
ENDROOT
BRANCH   6  15
ATOM     15  C   UNL     1      -7.371  52.526  50.355  0.00  0.00    +0.000 A 
ATOM     16  C   UNL     1      -7.059  52.493  51.818  0.00  0.00    +0.000 A 
ATOM     17  C   UNL     1      -6.739  51.698  49.507  0.00  0.00    +0.000 A 
ATOM     18  O   UNL     1      -7.736  53.186  52.584  0.00  0.00    +0.000 OA
ATOM     19  N   UNL     1      -6.032  51.678  52.248  0.00  0.00    +0.000 N 
ATOM     20  C   UNL     1      -5.657  50.848  49.996  0.00  0.00    +0.000 A 
ATOM     21  C   UNL     1      -5.299  50.866  51.348  0.00  0.00    +0.000 A 
ATOM     22  C   UNL     1      -4.911  50.050  49.123  0.00  0.00    +0.000 A 
ATOM     23  N   UNL     1      -4.266  50.140  51.832  0.00  0.00    +0.000 NA
ATOM     24  C   UNL     1      -3.833  49.324  49.604  0.00  0.00    +0.000 A 
ATOM     25  C   UNL     1      -3.551  49.394  50.957  0.00  0.00    +0.000 A 
BRANCH  17  26
ATOM     26  O   UNL     1      -6.999  51.602  48.151  0.00  0.00    +0.000 OA
ATOM     27  H   UNL     1      -7.068  50.759  47.746  0.00  0.00    +0.000 HD
ENDBRANCH  17  26
BRANCH  19  28
ATOM     28  C   UNL     1      -5.645  51.686  53.664  0.00  0.00    +0.000 C 
BRANCH  28  29
ATOM     29  C   UNL     1      -4.385  52.530  53.908  0.00  0.00    +0.000 C 
BRANCH  29  30
ATOM     30  C   UNL     1      -4.384  53.908  53.218  0.00  0.00    +0.000 C 
ATOM     31  C   UNL     1      -4.143  55.057  54.198  0.00  0.00    +0.000 C 
ATOM     32  C   UNL     1      -3.300  53.927  52.133  0.00  0.00    +0.000 C 
ENDBRANCH  29  30
ENDBRANCH  28  29
ENDBRANCH  19  28
ENDBRANCH   6  15
BRANCH  11  33
ATOM     33  N   UNL     1     -14.003  56.725  49.398  0.00  0.00    +0.000 N 
ATOM     34  H   UNL     1     -14.593  56.615  48.618  0.00  0.00    +0.000 HD
BRANCH  33  35
ATOM     35  S   UNL     1     -14.304  57.923  50.532  0.00  0.00    +0.000 S 
ATOM     36  O   UNL     1     -13.275  57.784  51.537  0.00  0.00    +0.000 OA
ATOM     37  O   UNL     1     -14.541  59.181  49.858  0.00  0.00    +0.000 OA
BRANCH  35  38
ATOM     38  C   UNL     1     -15.865  57.341  51.244  0.00  0.00    +0.000 C 
ATOM     39  C   UNL     1     -16.447  56.175  50.451  0.00  0.00    +0.000 C 
ATOM     40  C   UNL     1     -15.641  56.944  52.698  0.00  0.00    +0.000 C 
ENDBRANCH  35  38
ENDBRANCH  33  35
ENDBRANCH  11  33
TORSDOF 8
ENDMDL
MODEL 7
REMARK VINA RESULT:      -6.3      3.477      9.517
REMARK  Name = 353262
REMARK  12 active torsions:
REMARK  status: ('A' for Active; 'I' for Inactive)
REMARK    1  A    between atoms: C_6  and  C_10
REMARK    2  A    between atoms: C_12  and  N_16
REMARK    3  A    between atoms: C_14  and  O_19
REMARK    4  A    between atoms: N_16  and  S_21
REMARK    5  A    between atoms: N_18  and  C_23
REMARK    6  A    between atoms: S_21  and  C_27
REMARK    7  A    between atoms: C_23  and  C_29
REMARK    8  A    between atoms: C_27  and  C_31
REMARK    9  A    between atoms: C_27  and  C_32
REMARK   10  A    between atoms: C_29  and  C_34
REMARK   11  A    between atoms: C_34  and  C_35
REMARK   12  A    between atoms: C_34  and  C_36
REMARK                            x       y       z     vdW  Elec       q    Type
REMARK                         _______ _______ _______ _____ _____    ______ ____
ROOT
ATOM      1  S   UNL     1      -7.173  55.370  52.439  0.00  0.00    +0.000 S 
ATOM      2  O   UNL     1      -7.102  56.242  53.593  0.00  0.00    +0.000 OA
ATOM      3  O   UNL     1      -6.085  55.319  51.481  0.00  0.00    +0.000 OA
ATOM      4  N   UNL     1      -8.525  55.741  51.631  0.00  0.00    +0.000 N 
ATOM      5  C   UNL     1      -7.344  53.737  53.057  0.00  0.00    +0.000 A 
ATOM      6  C   UNL     1      -9.554  54.947  51.635  0.00  0.00    +0.000 C 
ATOM      7  C   UNL     1      -8.574  53.111  52.898  0.00  0.00    +0.000 A 
ATOM      8  C   UNL     1      -6.262  53.105  53.667  0.00  0.00    +0.000 A 
ATOM      9  N   UNL     1      -9.651  53.757  52.310  0.00  0.00    +0.000 N 
ATOM     10  C   UNL     1      -8.739  51.823  53.414  0.00  0.00    +0.000 A 
ATOM     11  C   UNL     1      -6.450  51.820  54.166  0.00  0.00    +0.000 A 
ATOM     12  C   UNL     1      -7.679  51.179  54.040  0.00  0.00    +0.000 A 
ATOM     13  H   UNL     1      -8.568  56.584  51.126  0.00  0.00    +0.000 HD
ATOM     14  H   UNL     1     -10.539  53.336  52.381  0.00  0.00    +0.000 HD
ENDROOT
BRANCH   6  15
ATOM     15  C   UNL     1     -10.724  55.374  50.788  0.00  0.00    +0.000 A 
ATOM     16  C   UNL     1     -10.592  55.380  49.298  0.00  0.00    +0.000 A 
ATOM     17  C   UNL     1     -11.885  55.722  51.369  0.00  0.00    +0.000 A 
ATOM     18  O   UNL     1      -9.550  54.949  48.794  0.00  0.00    +0.000 OA
ATOM     19  N   UNL     1     -11.648  55.860  48.551  0.00  0.00    +0.000 N 
ATOM     20  C   UNL     1     -12.983  56.225  50.548  0.00  0.00    +0.000 A 
ATOM     21  C   UNL     1     -12.845  56.313  49.158  0.00  0.00    +0.000 A 
ATOM     22  C   UNL     1     -14.167  56.691  51.128  0.00  0.00    +0.000 A 
ATOM     23  N   UNL     1     -13.813  56.828  48.367  0.00  0.00    +0.000 NA
ATOM     24  C   UNL     1     -15.154  57.245  50.328  0.00  0.00    +0.000 A 
ATOM     25  C   UNL     1     -14.939  57.289  48.962  0.00  0.00    +0.000 A 
BRANCH  17  26
ATOM     26  O   UNL     1     -12.133  55.687  52.730  0.00  0.00    +0.000 OA
ATOM     27  H   UNL     1     -11.822  54.967  53.244  0.00  0.00    +0.000 HD
ENDBRANCH  17  26
BRANCH  19  28
ATOM     28  C   UNL     1     -11.518  55.959  47.093  0.00  0.00    +0.000 C 
BRANCH  28  29
ATOM     29  C   UNL     1     -12.128  54.744  46.379  0.00  0.00    +0.000 C 
BRANCH  29  30
ATOM     30  C   UNL     1     -11.119  53.644  45.996  0.00  0.00    +0.000 C 
ATOM     31  C   UNL     1     -11.549  52.857  44.757  0.00  0.00    +0.000 C 
ATOM     32  C   UNL     1      -9.749  54.285  45.743  0.00  0.00    +0.000 C 
ENDBRANCH  29  30
ENDBRANCH  28  29
ENDBRANCH  19  28
ENDBRANCH   6  15
BRANCH  11  33
ATOM     33  N   UNL     1      -5.419  51.126  54.829  0.00  0.00    +0.000 N 
ATOM     34  H   UNL     1      -5.552  50.787  55.744  0.00  0.00    +0.000 HD
BRANCH  33  35
ATOM     35  S   UNL     1      -3.961  50.889  54.036  0.00  0.00    +0.000 S 
ATOM     36  O   UNL     1      -3.306  52.177  54.019  0.00  0.00    +0.000 OA
ATOM     37  O   UNL     1      -3.306  49.712  54.567  0.00  0.00    +0.000 OA
BRANCH  35  38
ATOM     38  C   UNL     1      -4.535  50.528  52.357  0.00  0.00    +0.000 C 
ATOM     39  C   UNL     1      -4.039  51.567  51.356  0.00  0.00    +0.000 C 
ATOM     40  C   UNL     1      -4.078  49.132  51.954  0.00  0.00    +0.000 C 
ENDBRANCH  35  38
ENDBRANCH  33  35
ENDBRANCH  11  33
TORSDOF 8
ENDMDL
MODEL 8
REMARK VINA RESULT:      -6.1      3.032      9.393
REMARK  Name = 353262
REMARK  12 active torsions:
REMARK  status: ('A' for Active; 'I' for Inactive)
REMARK    1  A    between atoms: C_6  and  C_10
REMARK    2  A    between atoms: C_12  and  N_16
REMARK    3  A    between atoms: C_14  and  O_19
REMARK    4  A    between atoms: N_16  and  S_21
REMARK    5  A    between atoms: N_18  and  C_23
REMARK    6  A    between atoms: S_21  and  C_27
REMARK    7  A    between atoms: C_23  and  C_29
REMARK    8  A    between atoms: C_27  and  C_31
REMARK    9  A    between atoms: C_27  and  C_32
REMARK   10  A    between atoms: C_29  and  C_34
REMARK   11  A    between atoms: C_34  and  C_35
REMARK   12  A    between atoms: C_34  and  C_36
REMARK                            x       y       z     vdW  Elec       q    Type
REMARK                         _______ _______ _______ _____ _____    ______ ____
ROOT
ATOM      1  S   UNL     1      -9.344  51.454  50.861  0.00  0.00    +0.000 S 
ATOM      2  O   UNL     1      -8.544  51.066  49.718  0.00  0.00    +0.000 OA
ATOM      3  O   UNL     1     -10.091  50.463  51.613  0.00  0.00    +0.000 OA
ATOM      4  N   UNL     1     -10.388  52.584  50.364  0.00  0.00    +0.000 N 
ATOM      5  C   UNL     1      -8.247  52.199  52.010  0.00  0.00    +0.000 A 
ATOM      6  C   UNL     1     -10.249  53.831  50.705  0.00  0.00    +0.000 C 
ATOM      7  C   UNL     1      -8.340  53.573  52.193  0.00  0.00    +0.000 A 
ATOM      8  C   UNL     1      -7.335  51.415  52.713  0.00  0.00    +0.000 A 
ATOM      9  N   UNL     1      -9.235  54.347  51.472  0.00  0.00    +0.000 N 
ATOM     10  C   UNL     1      -7.451  54.189  53.078  0.00  0.00    +0.000 A 
ATOM     11  C   UNL     1      -6.466  52.051  53.593  0.00  0.00    +0.000 A 
ATOM     12  C   UNL     1      -6.522  53.430  53.780  0.00  0.00    +0.000 A 
ATOM     13  H   UNL     1     -11.145  52.323  49.791  0.00  0.00    +0.000 HD
ATOM     14  H   UNL     1      -9.139  55.327  51.512  0.00  0.00    +0.000 HD
ENDROOT
BRANCH   6  15
ATOM     15  C   UNL     1     -11.325  54.773  50.233  0.00  0.00    +0.000 A 
ATOM     16  C   UNL     1     -12.424  55.164  51.170  0.00  0.00    +0.000 A 
ATOM     17  C   UNL     1     -11.283  55.276  48.989  0.00  0.00    +0.000 A 
ATOM     18  O   UNL     1     -12.372  54.772  52.340  0.00  0.00    +0.000 OA
ATOM     19  N   UNL     1     -13.444  55.956  50.685  0.00  0.00    +0.000 N 
ATOM     20  C   UNL     1     -12.379  56.113  48.507  0.00  0.00    +0.000 A 
ATOM     21  C   UNL     1     -13.455  56.420  49.347  0.00  0.00    +0.000 A 
ATOM     22  C   UNL     1     -12.417  56.569  47.186  0.00  0.00    +0.000 A 
ATOM     23  N   UNL     1     -14.518  57.140  48.924  0.00  0.00    +0.000 NA
ATOM     24  C   UNL     1     -13.515  57.285  46.736  0.00  0.00    +0.000 A 
ATOM     25  C   UNL     1     -14.533  57.551  47.634  0.00  0.00    +0.000 A 
BRANCH  17  26
ATOM     26  O   UNL     1     -10.278  55.033  48.068  0.00  0.00    +0.000 OA
ATOM     27  H   UNL     1     -10.489  54.678  47.227  0.00  0.00    +0.000 HD
ENDBRANCH  17  26
BRANCH  19  28
ATOM     28  C   UNL     1     -14.580  56.287  51.554  0.00  0.00    +0.000 C 
BRANCH  28  29
ATOM     29  C   UNL     1     -14.306  57.536  52.404  0.00  0.00    +0.000 C 
BRANCH  29  30
ATOM     30  C   UNL     1     -15.017  58.816  51.922  0.00  0.00    +0.000 C 
ATOM     31  C   UNL     1     -15.675  59.590  53.065  0.00  0.00    +0.000 C 
ATOM     32  C   UNL     1     -14.000  59.720  51.214  0.00  0.00    +0.000 C 
ENDBRANCH  29  30
ENDBRANCH  28  29
ENDBRANCH  19  28
ENDBRANCH   6  15
BRANCH  11  33
ATOM     33  N   UNL     1      -5.490  51.337  54.315  0.00  0.00    +0.000 N 
ATOM     34  H   UNL     1      -5.700  50.950  55.195  0.00  0.00    +0.000 HD
BRANCH  33  35
ATOM     35  S   UNL     1      -3.961  51.155  53.650  0.00  0.00    +0.000 S 
ATOM     36  O   UNL     1      -3.367  52.472  53.661  0.00  0.00    +0.000 OA
ATOM     37  O   UNL     1      -3.300  50.019  54.255  0.00  0.00    +0.000 OA
BRANCH  35  38
ATOM     38  C   UNL     1      -4.377  50.742  51.936  0.00  0.00    +0.000 C 
ATOM     39  C   UNL     1      -3.593  51.594  50.943  0.00  0.00    +0.000 C 
ATOM     40  C   UNL     1      -4.116  49.260  51.695  0.00  0.00    +0.000 C 
ENDBRANCH  35  38
ENDBRANCH  33  35
ENDBRANCH  11  33
TORSDOF 8
ENDMDL
MODEL 9
REMARK VINA RESULT:      -5.9      2.826      9.364
REMARK  Name = 353262
REMARK  12 active torsions:
REMARK  status: ('A' for Active; 'I' for Inactive)
REMARK    1  A    between atoms: C_6  and  C_10
REMARK    2  A    between atoms: C_12  and  N_16
REMARK    3  A    between atoms: C_14  and  O_19
REMARK    4  A    between atoms: N_16  and  S_21
REMARK    5  A    between atoms: N_18  and  C_23
REMARK    6  A    between atoms: S_21  and  C_27
REMARK    7  A    between atoms: C_23  and  C_29
REMARK    8  A    between atoms: C_27  and  C_31
REMARK    9  A    between atoms: C_27  and  C_32
REMARK   10  A    between atoms: C_29  and  C_34
REMARK   11  A    between atoms: C_34  and  C_35
REMARK   12  A    between atoms: C_34  and  C_36
REMARK                            x       y       z     vdW  Elec       q    Type
REMARK                         _______ _______ _______ _____ _____    ______ ____
ROOT
ATOM      1  S   UNL     1      -9.031  52.739  52.905  0.00  0.00    +0.000 S 
ATOM      2  O   UNL     1      -9.772  51.888  53.810  0.00  0.00    +0.000 OA
ATOM      3  O   UNL     1      -7.955  53.582  53.393  0.00  0.00    +0.000 OA
ATOM      4  N   UNL     1     -10.096  53.691  52.146  0.00  0.00    +0.000 N 
ATOM      5  C   UNL     1      -8.304  51.682  51.707  0.00  0.00    +0.000 A 
ATOM      6  C   UNL     1     -10.393  53.510  50.894  0.00  0.00    +0.000 C 
ATOM      7  C   UNL     1      -8.818  51.716  50.418  0.00  0.00    +0.000 A 
ATOM      8  C   UNL     1      -7.237  50.857  52.061  0.00  0.00    +0.000 A 
ATOM      9  N   UNL     1      -9.894  52.523  50.082  0.00  0.00    +0.000 N 
ATOM     10  C   UNL     1      -8.275  50.855  49.460  0.00  0.00    +0.000 A 
ATOM     11  C   UNL     1      -6.709  50.016  51.088  0.00  0.00    +0.000 A 
ATOM     12  C   UNL     1      -7.221  50.014  49.793  0.00  0.00    +0.000 A 
ATOM     13  H   UNL     1     -10.529  54.421  52.644  0.00  0.00    +0.000 HD
ATOM     14  H   UNL     1     -10.327  52.379  49.209  0.00  0.00    +0.000 HD
ENDROOT
BRANCH   6  15
ATOM     15  C   UNL     1     -11.348  54.505  50.288  0.00  0.00    +0.000 A 
ATOM     16  C   UNL     1     -12.458  55.063  51.121  0.00  0.00    +0.000 A 
ATOM     17  C   UNL     1     -11.186  54.906  49.016  0.00  0.00    +0.000 A 
ATOM     18  O   UNL     1     -12.511  54.758  52.317  0.00  0.00    +0.000 OA
ATOM     19  N   UNL     1     -13.370  55.903  50.517  0.00  0.00    +0.000 N 
ATOM     20  C   UNL     1     -12.170  55.797  48.407  0.00  0.00    +0.000 A 
ATOM     21  C   UNL     1     -13.259  56.263  49.151  0.00  0.00    +0.000 A 
ATOM     22  C   UNL     1     -12.088  56.152  47.057  0.00  0.00    +0.000 A 
ATOM     23  N   UNL     1     -14.224  57.040  48.610  0.00  0.00    +0.000 NA
ATOM     24  C   UNL     1     -13.086  56.927  46.487  0.00  0.00    +0.000 A 
ATOM     25  C   UNL     1     -14.126  57.350  47.295  0.00  0.00    +0.000 A 
BRANCH  17  26
ATOM     26  O   UNL     1     -10.157  54.505  48.183  0.00  0.00    +0.000 OA
ATOM     27  H   UNL     1      -9.335  54.956  48.202  0.00  0.00    +0.000 HD
ENDBRANCH  17  26
BRANCH  19  28
ATOM     28  C   UNL     1     -14.518  56.399  51.284  0.00  0.00    +0.000 C 
BRANCH  28  29
ATOM     29  C   UNL     1     -14.083  57.292  52.454  0.00  0.00    +0.000 C 
BRANCH  29  30
ATOM     30  C   UNL     1     -14.475  58.776  52.318  0.00  0.00    +0.000 C 
ATOM     31  C   UNL     1     -15.207  59.074  51.008  0.00  0.00    +0.000 C 
ATOM     32  C   UNL     1     -15.367  59.171  53.502  0.00  0.00    +0.000 C 
ENDBRANCH  29  30
ENDBRANCH  28  29
ENDBRANCH  19  28
ENDBRANCH   6  15
BRANCH  11  33
ATOM     33  N   UNL     1      -5.655  49.125  51.372  0.00  0.00    +0.000 N 
ATOM     34  H   UNL     1      -5.838  48.245  51.774  0.00  0.00    +0.000 HD
BRANCH  33  35
ATOM     35  S   UNL     1      -4.084  49.589  51.016  0.00  0.00    +0.000 S 
ATOM     36  O   UNL     1      -3.300  49.259  52.185  0.00  0.00    +0.000 OA
ATOM     37  O   UNL     1      -3.722  49.107  49.700  0.00  0.00    +0.000 OA
BRANCH  35  38
ATOM     38  C   UNL     1      -4.261  51.390  50.948  0.00  0.00    +0.000 C 
ATOM     39  C   UNL     1      -3.360  52.085  51.964  0.00  0.00    +0.000 C 
ATOM     40  C   UNL     1      -3.954  51.876  49.537  0.00  0.00    +0.000 C 
ENDBRANCH  35  38
ENDBRANCH  33  35
ENDBRANCH  11  33
TORSDOF 8
ENDMDL
