MODEL 1
REMARK VINA RESULT:      -8.9      0.000      0.000
REMARK  Name = 352895
REMARK  5 active torsions:
REMARK  status: ('A' for Active; 'I' for Inactive)
REMARK    1  A    between atoms: C_6  and  C_10
REMARK    2  A    between atoms: C_12  and  C_16
REMARK    3  A    between atoms: C_14  and  O_19
REMARK    4  A    between atoms: N_18  and  C_22
REMARK    5  A    between atoms: C_22  and  C_25
REMARK                            x       y       z     vdW  Elec       q    Type
REMARK                         _______ _______ _______ _____ _____    ______ ____
ROOT
ATOM      1  C   UNL     1     -10.725  55.774  50.726  0.00  0.00    +0.000 A 
ATOM      2  C   UNL     1     -10.267  56.013  49.321  0.00  0.00    +0.000 A 
ATOM      3  C   UNL     1     -12.038  55.986  50.937  0.00  0.00    +0.000 A 
ATOM      4  O   UNL     1      -9.180  56.518  49.079  0.00  0.00    +0.000 OA
ATOM      5  N   UNL     1     -11.158  55.482  48.362  0.00  0.00    +0.000 N 
ATOM      6  C   UNL     1     -12.822  56.512  49.810  0.00  0.00    +0.000 A 
ATOM      7  C   UNL     1     -12.429  56.144  48.503  0.00  0.00    +0.000 A 
ATOM      8  C   UNL     1     -13.796  57.492  49.977  0.00  0.00    +0.000 A 
ATOM      9  N   UNL     1     -12.983  56.685  47.399  0.00  0.00    +0.000 NA
ATOM     10  C   UNL     1     -14.319  58.107  48.845  0.00  0.00    +0.000 A 
ATOM     11  C   UNL     1     -13.897  57.667  47.596  0.00  0.00    +0.000 A 
ENDROOT
BRANCH   1  17
ATOM     12  S   UNL     1      -7.330  55.201  52.693  0.00  0.00    +0.000 S 
ATOM     13  O   UNL     1      -7.233  56.178  53.758  0.00  0.00    +0.000 OA
ATOM     14  O   UNL     1      -6.190  54.869  51.862  0.00  0.00    +0.000 OA
ATOM     15  N   UNL     1      -8.530  55.678  51.674  0.00  0.00    +0.000 N 
ATOM     16  C   UNL     1      -7.934  53.724  53.378  0.00  0.00    +0.000 A 
ATOM     17  C   UNL     1      -9.811  55.129  51.684  0.00  0.00    +0.000 C 
ATOM     18  C   UNL     1      -9.254  53.372  53.156  0.00  0.00    +0.000 A 
ATOM     19  C   UNL     1      -7.069  52.948  54.159  0.00  0.00    +0.000 A 
ATOM     20  N   UNL     1     -10.164  54.092  52.368  0.00  0.00    +0.000 N 
ATOM     21  C   UNL     1      -9.712  52.186  53.741  0.00  0.00    +0.000 A 
ATOM     22  C   UNL     1      -7.539  51.772  54.751  0.00  0.00    +0.000 A 
ATOM     23  C   UNL     1      -8.866  51.393  54.533  0.00  0.00    +0.000 A 
ATOM     24  C   UNL     1      -6.627  50.935  55.596  0.00  0.00    +0.000 C 
ATOM     25  H   UNL     1      -8.333  56.389  51.021  0.00  0.00    +0.000 HD
ATOM     26  H   UNL     1     -11.102  53.797  52.334  0.00  0.00    +0.000 HD
ENDBRANCH   1  17
BRANCH   3  27
ATOM     27  O   UNL     1     -12.697  55.686  52.103  0.00  0.00    +0.000 OA
ATOM     28  H   UNL     1     -13.617  55.844  52.174  0.00  0.00    +0.000 HD
ENDBRANCH   3  27
BRANCH   5  29
ATOM     29  C   UNL     1     -11.208  54.016  48.517  0.00  0.00    +0.000 C 
BRANCH  29  30
ATOM     30  C   UNL     1     -11.449  53.126  47.331  0.00  0.00    +0.000 A 
ATOM     31  C   UNL     1     -12.146  51.920  47.410  0.00  0.00    +0.000 A 
ATOM     32  C   UNL     1     -11.109  53.633  46.060  0.00  0.00    +0.000 A 
ATOM     33  C   UNL     1     -12.461  51.219  46.243  0.00  0.00    +0.000 A 
ATOM     34  C   UNL     1     -11.427  52.933  44.897  0.00  0.00    +0.000 A 
ATOM     35  C   UNL     1     -12.098  51.721  44.991  0.00  0.00    +0.000 A 
ENDBRANCH  29  30
ENDBRANCH   5  29
TORSDOF 4
ENDMDL
MODEL 2
REMARK VINA RESULT:      -8.7      2.217      2.855
REMARK  Name = 352895
REMARK  5 active torsions:
REMARK  status: ('A' for Active; 'I' for Inactive)
REMARK    1  A    between atoms: C_6  and  C_10
REMARK    2  A    between atoms: C_12  and  C_16
REMARK    3  A    between atoms: C_14  and  O_19
REMARK    4  A    between atoms: N_18  and  C_22
REMARK    5  A    between atoms: C_22  and  C_25
REMARK                            x       y       z     vdW  Elec       q    Type
REMARK                         _______ _______ _______ _____ _____    ______ ____
ROOT
ATOM      1  C   UNL     1     -10.272  55.565  50.798  0.00  0.00    +0.000 A 
ATOM      2  C   UNL     1     -10.117  56.484  49.626  0.00  0.00    +0.000 A 
ATOM      3  C   UNL     1     -11.540  55.394  51.219  0.00  0.00    +0.000 A 
ATOM      4  O   UNL     1      -9.169  57.250  49.536  0.00  0.00    +0.000 OA
ATOM      5  N   UNL     1     -11.093  56.263  48.629  0.00  0.00    +0.000 N 
ATOM      6  C   UNL     1     -12.580  56.193  50.555  0.00  0.00    +0.000 A 
ATOM      7  C   UNL     1     -12.391  56.525  49.194  0.00  0.00    +0.000 A 
ATOM      8  C   UNL     1     -13.626  56.782  51.260  0.00  0.00    +0.000 A 
ATOM      9  N   UNL     1     -13.205  57.373  48.534  0.00  0.00    +0.000 NA
ATOM     10  C   UNL     1     -14.425  57.714  50.607  0.00  0.00    +0.000 A 
ATOM     11  C   UNL     1     -14.187  57.963  49.260  0.00  0.00    +0.000 A 
ENDROOT
BRANCH   1  17
ATOM     12  S   UNL     1      -7.856  53.805  53.403  0.00  0.00    +0.000 S 
ATOM     13  O   UNL     1      -8.475  52.578  53.864  0.00  0.00    +0.000 OA
ATOM     14  O   UNL     1      -7.183  54.705  54.318  0.00  0.00    +0.000 OA
ATOM     15  N   UNL     1      -9.005  54.694  52.630  0.00  0.00    +0.000 N 
ATOM     16  C   UNL     1      -6.735  53.395  52.142  0.00  0.00    +0.000 A 
ATOM     17  C   UNL     1      -9.121  54.761  51.244  0.00  0.00    +0.000 C 
ATOM     18  C   UNL     1      -7.081  53.654  50.827  0.00  0.00    +0.000 A 
ATOM     19  C   UNL     1      -5.524  52.790  52.498  0.00  0.00    +0.000 A 
ATOM     20  N   UNL     1      -8.266  54.276  50.407  0.00  0.00    +0.000 N 
ATOM     21  C   UNL     1      -6.161  53.291  49.836  0.00  0.00    +0.000 A 
ATOM     22  C   UNL     1      -4.618  52.418  51.501  0.00  0.00    +0.000 A 
ATOM     23  C   UNL     1      -4.943  52.677  50.166  0.00  0.00    +0.000 A 
ATOM     24  C   UNL     1      -3.320  51.762  51.865  0.00  0.00    +0.000 C 
ATOM     25  H   UNL     1      -9.645  55.206  53.178  0.00  0.00    +0.000 HD
ATOM     26  H   UNL     1      -8.451  54.346  49.443  0.00  0.00    +0.000 HD
ENDBRANCH   1  17
BRANCH   3  27
ATOM     27  O   UNL     1     -11.928  54.486  52.172  0.00  0.00    +0.000 OA
ATOM     28  H   UNL     1     -11.385  53.746  52.362  0.00  0.00    +0.000 HD
ENDBRANCH   3  27
BRANCH   5  29
ATOM     29  C   UNL     1     -10.922  54.901  48.088  0.00  0.00    +0.000 C 
BRANCH  29  30
ATOM     30  C   UNL     1     -10.085  54.661  46.864  0.00  0.00    +0.000 A 
ATOM     31  C   UNL     1      -8.787  55.152  46.717  0.00  0.00    +0.000 A 
ATOM     32  C   UNL     1     -10.577  53.747  45.911  0.00  0.00    +0.000 A 
ATOM     33  C   UNL     1      -8.015  54.765  45.618  0.00  0.00    +0.000 A 
ATOM     34  C   UNL     1      -9.805  53.360  44.817  0.00  0.00    +0.000 A 
ATOM     35  C   UNL     1      -8.524  53.876  44.668  0.00  0.00    +0.000 A 
ENDBRANCH  29  30
ENDBRANCH   5  29
TORSDOF 4
ENDMDL
MODEL 3
REMARK VINA RESULT:      -8.6      2.749      6.626
REMARK  Name = 352895
REMARK  5 active torsions:
REMARK  status: ('A' for Active; 'I' for Inactive)
REMARK    1  A    between atoms: C_6  and  C_10
REMARK    2  A    between atoms: C_12  and  C_16
REMARK    3  A    between atoms: C_14  and  O_19
REMARK    4  A    between atoms: N_18  and  C_22
REMARK    5  A    between atoms: C_22  and  C_25
REMARK                            x       y       z     vdW  Elec       q    Type
REMARK                         _______ _______ _______ _____ _____    ______ ____
ROOT
ATOM      1  C   UNL     1     -12.212  54.458  49.114  0.00  0.00    +0.000 A 
ATOM      2  C   UNL     1     -12.122  54.120  50.569  0.00  0.00    +0.000 A 
ATOM      3  C   UNL     1     -12.926  55.564  48.831  0.00  0.00    +0.000 A 
ATOM      4  O   UNL     1     -12.151  52.963  50.961  0.00  0.00    +0.000 OA
ATOM      5  N   UNL     1     -11.881  55.256  51.376  0.00  0.00    +0.000 N 
ATOM      6  C   UNL     1     -13.600  56.231  49.955  0.00  0.00    +0.000 A 
ATOM      7  C   UNL     1     -12.986  56.166  51.227  0.00  0.00    +0.000 A 
ATOM      8  C   UNL     1     -14.888  56.748  49.847  0.00  0.00    +0.000 A 
ATOM      9  N   UNL     1     -13.589  56.613  52.347  0.00  0.00    +0.000 NA
ATOM     10  C   UNL     1     -15.544  57.143  51.007  0.00  0.00    +0.000 A 
ATOM     11  C   UNL     1     -14.858  57.070  52.214  0.00  0.00    +0.000 A 
ENDROOT
BRANCH   1  17
ATOM     12  S   UNL     1      -9.076  52.364  47.885  0.00  0.00    +0.000 S 
ATOM     13  O   UNL     1      -9.256  50.979  48.269  0.00  0.00    +0.000 OA
ATOM     14  O   UNL     1      -7.798  53.033  48.032  0.00  0.00    +0.000 OA
ATOM     15  N   UNL     1     -10.176  53.268  48.711  0.00  0.00    +0.000 N 
ATOM     16  C   UNL     1      -9.571  52.527  46.229  0.00  0.00    +0.000 A 
ATOM     17  C   UNL     1     -11.362  53.735  48.151  0.00  0.00    +0.000 C 
ATOM     18  C   UNL     1     -10.790  53.119  45.947  0.00  0.00    +0.000 A 
ATOM     19  C   UNL     1      -8.727  52.027  45.229  0.00  0.00    +0.000 A 
ATOM     20  N   UNL     1     -11.668  53.658  46.899  0.00  0.00    +0.000 N 
ATOM     21  C   UNL     1     -11.165  53.213  44.602  0.00  0.00    +0.000 A 
ATOM     22  C   UNL     1      -9.117  52.113  43.889  0.00  0.00    +0.000 A 
ATOM     23  C   UNL     1     -10.340  52.714  43.582  0.00  0.00    +0.000 A 
ATOM     24  C   UNL     1      -8.229  51.576  42.808  0.00  0.00    +0.000 C 
ATOM     25  H   UNL     1      -9.984  53.489  49.652  0.00  0.00    +0.000 HD
ATOM     26  H   UNL     1     -12.546  53.990  46.602  0.00  0.00    +0.000 HD
ENDBRANCH   1  17
BRANCH   3  27
ATOM     27  O   UNL     1     -13.012  56.138  47.588  0.00  0.00    +0.000 OA
ATOM     28  H   UNL     1     -13.819  56.107  47.113  0.00  0.00    +0.000 HD
ENDBRANCH   3  27
BRANCH   5  29
ATOM     29  C   UNL     1     -10.565  55.822  51.020  0.00  0.00    +0.000 C 
BRANCH  29  30
ATOM     30  C   UNL     1      -9.305  55.270  51.620  0.00  0.00    +0.000 A 
ATOM     31  C   UNL     1      -8.072  55.293  50.965  0.00  0.00    +0.000 A 
ATOM     32  C   UNL     1      -9.347  54.880  52.974  0.00  0.00    +0.000 A 
ATOM     33  C   UNL     1      -6.915  54.899  51.642  0.00  0.00    +0.000 A 
ATOM     34  C   UNL     1      -8.191  54.489  53.648  0.00  0.00    +0.000 A 
ATOM     35  C   UNL     1      -6.975  54.493  52.977  0.00  0.00    +0.000 A 
ENDBRANCH  29  30
ENDBRANCH   5  29
TORSDOF 4
ENDMDL
MODEL 4
REMARK VINA RESULT:      -8.6      1.883      2.553
REMARK  Name = 352895
REMARK  5 active torsions:
REMARK  status: ('A' for Active; 'I' for Inactive)
REMARK    1  A    between atoms: C_6  and  C_10
REMARK    2  A    between atoms: C_12  and  C_16
REMARK    3  A    between atoms: C_14  and  O_19
REMARK    4  A    between atoms: N_18  and  C_22
REMARK    5  A    between atoms: C_22  and  C_25
REMARK                            x       y       z     vdW  Elec       q    Type
REMARK                         _______ _______ _______ _____ _____    ______ ____
ROOT
ATOM      1  C   UNL     1      -9.874  55.457  50.989  0.00  0.00    +0.000 A 
ATOM      2  C   UNL     1      -9.923  56.384  49.815  0.00  0.00    +0.000 A 
ATOM      3  C   UNL     1     -11.069  55.186  51.547  0.00  0.00    +0.000 A 
ATOM      4  O   UNL     1      -9.055  57.224  49.625  0.00  0.00    +0.000 OA
ATOM      5  N   UNL     1     -10.984  56.084  48.931  0.00  0.00    +0.000 N 
ATOM      6  C   UNL     1     -12.237  55.898  51.009  0.00  0.00    +0.000 A 
ATOM      7  C   UNL     1     -12.227  56.242  49.637  0.00  0.00    +0.000 A 
ATOM      8  C   UNL     1     -13.242  56.403  51.829  0.00  0.00    +0.000 A 
ATOM      9  N   UNL     1     -13.174  57.022  49.078  0.00  0.00    +0.000 NA
ATOM     10  C   UNL     1     -14.180  57.267  51.275  0.00  0.00    +0.000 A 
ATOM     11  C   UNL     1     -14.113  57.532  49.913  0.00  0.00    +0.000 A 
ENDROOT
BRANCH   1  17
ATOM     12  S   UNL     1      -6.324  53.853  50.249  0.00  0.00    +0.000 S 
ATOM     13  O   UNL     1      -5.333  54.909  50.196  0.00  0.00    +0.000 OA
ATOM     14  O   UNL     1      -6.330  52.770  49.285  0.00  0.00    +0.000 OA
ATOM     15  N   UNL     1      -7.813  54.550  50.181  0.00  0.00    +0.000 N 
ATOM     16  C   UNL     1      -6.270  53.150  51.836  0.00  0.00    +0.000 A 
ATOM     17  C   UNL     1      -8.620  54.748  51.299  0.00  0.00    +0.000 C 
ATOM     18  C   UNL     1      -7.269  53.462  52.742  0.00  0.00    +0.000 A 
ATOM     19  C   UNL     1      -5.198  52.308  52.156  0.00  0.00    +0.000 A 
ATOM     20  N   UNL     1      -8.378  54.278  52.477  0.00  0.00    +0.000 N 
ATOM     21  C   UNL     1      -7.181  52.893  54.018  0.00  0.00    +0.000 A 
ATOM     22  C   UNL     1      -5.111  51.757  53.437  0.00  0.00    +0.000 A 
ATOM     23  C   UNL     1      -6.113  52.051  54.366  0.00  0.00    +0.000 A 
ATOM     24  C   UNL     1      -3.965  50.860  53.798  0.00  0.00    +0.000 C 
ATOM     25  H   UNL     1      -8.151  54.843  49.303  0.00  0.00    +0.000 HD
ATOM     26  H   UNL     1      -8.994  54.499  53.213  0.00  0.00    +0.000 HD
ENDBRANCH   1  17
BRANCH   3  27
ATOM     27  O   UNL     1     -11.275  54.251  52.531  0.00  0.00    +0.000 OA
ATOM     28  H   UNL     1     -11.339  54.520  53.426  0.00  0.00    +0.000 HD
ENDBRANCH   3  27
BRANCH   5  29
ATOM     29  C   UNL     1     -10.765  54.739  48.363  0.00  0.00    +0.000 C 
BRANCH  29  30
ATOM     30  C   UNL     1     -10.029  54.563  47.067  0.00  0.00    +0.000 A 
ATOM     31  C   UNL     1      -8.773  55.119  46.819  0.00  0.00    +0.000 A 
ATOM     32  C   UNL     1     -10.560  53.645  46.138  0.00  0.00    +0.000 A 
ATOM     33  C   UNL     1      -8.083  54.790  45.649  0.00  0.00    +0.000 A 
ATOM     34  C   UNL     1      -9.869  53.317  44.973  0.00  0.00    +0.000 A 
ATOM     35  C   UNL     1      -8.631  53.896  44.726  0.00  0.00    +0.000 A 
ENDBRANCH  29  30
ENDBRANCH   5  29
TORSDOF 4
ENDMDL
MODEL 5
REMARK VINA RESULT:      -8.4      2.940      6.558
REMARK  Name = 352895
REMARK  5 active torsions:
REMARK  status: ('A' for Active; 'I' for Inactive)
REMARK    1  A    between atoms: C_6  and  C_10
REMARK    2  A    between atoms: C_12  and  C_16
REMARK    3  A    between atoms: C_14  and  O_19
REMARK    4  A    between atoms: N_18  and  C_22
REMARK    5  A    between atoms: C_22  and  C_25
REMARK                            x       y       z     vdW  Elec       q    Type
REMARK                         _______ _______ _______ _____ _____    ______ ____
ROOT
ATOM      1  C   UNL     1     -10.637  54.194  47.186  0.00  0.00    +0.000 A 
ATOM      2  C   UNL     1      -9.298  54.653  46.699  0.00  0.00    +0.000 A 
ATOM      3  C   UNL     1     -11.143  53.130  46.533  0.00  0.00    +0.000 A 
ATOM      4  O   UNL     1      -9.010  55.839  46.641  0.00  0.00    +0.000 OA
ATOM      5  N   UNL     1      -8.413  53.579  46.451  0.00  0.00    +0.000 N 
ATOM      6  C   UNL     1     -10.381  52.626  45.382  0.00  0.00    +0.000 A 
ATOM      7  C   UNL     1      -8.974  52.755  45.413  0.00  0.00    +0.000 A 
ATOM      8  C   UNL     1     -11.000  52.211  44.206  0.00  0.00    +0.000 A 
ATOM      9  N   UNL     1      -8.195  52.463  44.352  0.00  0.00    +0.000 NA
ATOM     10  C   UNL     1     -10.210  51.979  43.086  0.00  0.00    +0.000 A 
ATOM     11  C   UNL     1      -8.832  52.103  43.210  0.00  0.00    +0.000 A 
ENDROOT
BRANCH   1  17
ATOM     12  S   UNL     1     -11.483  54.301  51.058  0.00  0.00    +0.000 S 
ATOM     13  O   UNL     1     -10.293  54.684  51.789  0.00  0.00    +0.000 OA
ATOM     14  O   UNL     1     -12.350  53.237  51.525  0.00  0.00    +0.000 OA
ATOM     15  N   UNL     1     -11.033  53.901  49.527  0.00  0.00    +0.000 N 
ATOM     16  C   UNL     1     -12.458  55.722  50.843  0.00  0.00    +0.000 A 
ATOM     17  C   UNL     1     -11.182  54.753  48.435  0.00  0.00    +0.000 C 
ATOM     18  C   UNL     1     -12.487  56.333  49.602  0.00  0.00    +0.000 A 
ATOM     19  C   UNL     1     -13.163  56.220  51.946  0.00  0.00    +0.000 A 
ATOM     20  N   UNL     1     -11.823  55.873  48.455  0.00  0.00    +0.000 N 
ATOM     21  C   UNL     1     -13.267  57.489  49.472  0.00  0.00    +0.000 A 
ATOM     22  C   UNL     1     -13.927  57.382  51.810  0.00  0.00    +0.000 A 
ATOM     23  C   UNL     1     -13.978  58.012  50.563  0.00  0.00    +0.000 A 
ATOM     24  C   UNL     1     -14.681  57.932  52.982  0.00  0.00    +0.000 C 
ATOM     25  H   UNL     1     -10.637  53.012  49.375  0.00  0.00    +0.000 HD
ATOM     26  H   UNL     1     -11.847  56.423  47.639  0.00  0.00    +0.000 HD
ENDBRANCH   1  17
BRANCH   3  27
ATOM     27  O   UNL     1     -12.278  52.455  46.908  0.00  0.00    +0.000 OA
ATOM     28  H   UNL     1     -12.274  51.928  47.682  0.00  0.00    +0.000 HD
ENDBRANCH   3  27
BRANCH   5  29
ATOM     29  C   UNL     1      -8.151  52.875  47.721  0.00  0.00    +0.000 C 
BRANCH  29  30
ATOM     30  C   UNL     1      -7.191  53.440  48.728  0.00  0.00    +0.000 A 
ATOM     31  C   UNL     1      -6.155  54.312  48.391  0.00  0.00    +0.000 A 
ATOM     32  C   UNL     1      -7.473  53.215  50.091  0.00  0.00    +0.000 A 
ATOM     33  C   UNL     1      -5.395  54.915  49.397  0.00  0.00    +0.000 A 
ATOM     34  C   UNL     1      -6.715  53.819  51.093  0.00  0.00    +0.000 A 
ATOM     35  C   UNL     1      -5.671  54.665  50.743  0.00  0.00    +0.000 A 
ENDBRANCH  29  30
ENDBRANCH   5  29
TORSDOF 4
ENDMDL
MODEL 6
REMARK VINA RESULT:      -8.4      2.812      5.178
REMARK  Name = 352895
REMARK  5 active torsions:
REMARK  status: ('A' for Active; 'I' for Inactive)
REMARK    1  A    between atoms: C_6  and  C_10
REMARK    2  A    between atoms: C_12  and  C_16
REMARK    3  A    between atoms: C_14  and  O_19
REMARK    4  A    between atoms: N_18  and  C_22
REMARK    5  A    between atoms: C_22  and  C_25
REMARK                            x       y       z     vdW  Elec       q    Type
REMARK                         _______ _______ _______ _____ _____    ______ ____
ROOT
ATOM      1  C   UNL     1      -8.435  53.412  47.925  0.00  0.00    +0.000 A 
ATOM      2  C   UNL     1      -9.892  53.069  47.936  0.00  0.00    +0.000 A 
ATOM      3  C   UNL     1      -7.931  53.705  46.711  0.00  0.00    +0.000 A 
ATOM      4  O   UNL     1     -10.340  52.200  48.669  0.00  0.00    +0.000 OA
ATOM      5  N   UNL     1     -10.659  53.932  47.121  0.00  0.00    +0.000 N 
ATOM      6  C   UNL     1      -8.831  53.556  45.558  0.00  0.00    +0.000 A 
ATOM      7  C   UNL     1     -10.210  53.795  45.760  0.00  0.00    +0.000 A 
ATOM      8  C   UNL     1      -8.406  53.012  44.350  0.00  0.00    +0.000 A 
ATOM      9  N   UNL     1     -11.136  53.544  44.814  0.00  0.00    +0.000 NA
ATOM     10  C   UNL     1      -9.363  52.681  43.397  0.00  0.00    +0.000 A 
ATOM     11  C   UNL     1     -10.694  52.975  43.666  0.00  0.00    +0.000 A 
ENDROOT
BRANCH   1  17
ATOM     12  S   UNL     1      -7.992  54.647  51.667  0.00  0.00    +0.000 S 
ATOM     13  O   UNL     1      -8.633  53.698  52.554  0.00  0.00    +0.000 OA
ATOM     14  O   UNL     1      -8.128  56.077  51.859  0.00  0.00    +0.000 OA
ATOM     15  N   UNL     1      -8.497  54.330  50.133  0.00  0.00    +0.000 N 
ATOM     16  C   UNL     1      -6.296  54.278  51.626  0.00  0.00    +0.000 A 
ATOM     17  C   UNL     1      -7.734  53.629  49.202  0.00  0.00    +0.000 C 
ATOM     18  C   UNL     1      -5.775  53.635  50.516  0.00  0.00    +0.000 A 
ATOM     19  C   UNL     1      -5.512  54.620  52.735  0.00  0.00    +0.000 A 
ATOM     20  N   UNL     1      -6.500  53.286  49.367  0.00  0.00    +0.000 N 
ATOM     21  C   UNL     1      -4.408  53.334  50.528  0.00  0.00    +0.000 A 
ATOM     22  C   UNL     1      -4.151  54.303  52.744  0.00  0.00    +0.000 A 
ATOM     23  C   UNL     1      -3.602  53.661  51.630  0.00  0.00    +0.000 A 
ATOM     24  C   UNL     1      -3.300  54.655  53.926  0.00  0.00    +0.000 C 
ATOM     25  H   UNL     1      -9.386  54.654  49.859  0.00  0.00    +0.000 HD
ATOM     26  H   UNL     1      -6.053  52.764  48.663  0.00  0.00    +0.000 HD
ENDBRANCH   1  17
BRANCH   3  27
ATOM     27  O   UNL     1      -6.666  54.190  46.489  0.00  0.00    +0.000 OA
ATOM     28  H   UNL     1      -6.128  54.442  47.213  0.00  0.00    +0.000 HD
ENDBRANCH   3  27
BRANCH   5  29
ATOM     29  C   UNL     1     -10.572  55.302  47.663  0.00  0.00    +0.000 C 
BRANCH  29  30
ATOM     30  C   UNL     1     -11.803  56.020  48.136  0.00  0.00    +0.000 A 
ATOM     31  C   UNL     1     -11.957  56.498  49.438  0.00  0.00    +0.000 A 
ATOM     32  C   UNL     1     -12.758  56.380  47.163  0.00  0.00    +0.000 A 
ATOM     33  C   UNL     1     -13.063  57.287  49.765  0.00  0.00    +0.000 A 
ATOM     34  C   UNL     1     -13.859  57.168  47.491  0.00  0.00    +0.000 A 
ATOM     35  C   UNL     1     -14.014  57.616  48.797  0.00  0.00    +0.000 A 
ENDBRANCH  29  30
ENDBRANCH   5  29
TORSDOF 4
ENDMDL
MODEL 7
REMARK VINA RESULT:      -8.3      3.518      6.748
REMARK  Name = 352895
REMARK  5 active torsions:
REMARK  status: ('A' for Active; 'I' for Inactive)
REMARK    1  A    between atoms: C_6  and  C_10
REMARK    2  A    between atoms: C_12  and  C_16
REMARK    3  A    between atoms: C_14  and  O_19
REMARK    4  A    between atoms: N_18  and  C_22
REMARK    5  A    between atoms: C_22  and  C_25
REMARK                            x       y       z     vdW  Elec       q    Type
REMARK                         _______ _______ _______ _____ _____    ______ ____
ROOT
ATOM      1  C   UNL     1     -12.467  55.120  48.538  0.00  0.00    +0.000 A 
ATOM      2  C   UNL     1     -11.746  55.447  47.267  0.00  0.00    +0.000 A 
ATOM      3  C   UNL     1     -12.255  53.875  49.006  0.00  0.00    +0.000 A 
ATOM      4  O   UNL     1     -12.263  56.132  46.396  0.00  0.00    +0.000 OA
ATOM      5  N   UNL     1     -10.410  54.987  47.267  0.00  0.00    +0.000 N 
ATOM      6  C   UNL     1     -11.440  52.977  48.175  0.00  0.00    +0.000 A 
ATOM      7  C   UNL     1     -10.419  53.553  47.383  0.00  0.00    +0.000 A 
ATOM      8  C   UNL     1     -11.760  51.634  47.999  0.00  0.00    +0.000 A 
ATOM      9  N   UNL     1      -9.716  52.843  46.478  0.00  0.00    +0.000 NA
ATOM     10  C   UNL     1     -11.090  50.914  47.016  0.00  0.00    +0.000 A 
ATOM     11  C   UNL     1     -10.082  51.550  46.301  0.00  0.00    +0.000 A 
ENDROOT
BRANCH   1  17
ATOM     12  S   UNL     1     -13.526  58.846  49.384  0.00  0.00    +0.000 S 
ATOM     13  O   UNL     1     -14.593  59.247  48.489  0.00  0.00    +0.000 OA
ATOM     14  O   UNL     1     -12.428  59.737  49.702  0.00  0.00    +0.000 OA
ATOM     15  N   UNL     1     -12.854  57.467  48.789  0.00  0.00    +0.000 N 
ATOM     16  C   UNL     1     -14.247  58.340  50.880  0.00  0.00    +0.000 A 
ATOM     17  C   UNL     1     -13.138  56.197  49.285  0.00  0.00    +0.000 C 
ATOM     18  C   UNL     1     -14.328  56.987  51.163  0.00  0.00    +0.000 A 
ATOM     19  C   UNL     1     -14.750  59.321  51.743  0.00  0.00    +0.000 A 
ATOM     20  N   UNL     1     -13.824  55.959  50.353  0.00  0.00    +0.000 N 
ATOM     21  C   UNL     1     -14.935  56.616  52.368  0.00  0.00    +0.000 A 
ATOM     22  C   UNL     1     -15.367  58.940  52.938  0.00  0.00    +0.000 A 
ATOM     23  C   UNL     1     -15.452  57.580  53.247  0.00  0.00    +0.000 A 
ATOM     24  C   UNL     1     -15.918  59.978  53.869  0.00  0.00    +0.000 C 
ATOM     25  H   UNL     1     -12.216  57.545  48.041  0.00  0.00    +0.000 HD
ATOM     26  H   UNL     1     -13.999  55.024  50.607  0.00  0.00    +0.000 HD
ENDBRANCH   1  17
BRANCH   3  27
ATOM     27  O   UNL     1     -12.690  53.416  50.224  0.00  0.00    +0.000 OA
ATOM     28  H   UNL     1     -13.470  52.902  50.278  0.00  0.00    +0.000 HD
ENDBRANCH   3  27
BRANCH   5  29
ATOM     29  C   UNL     1      -9.666  55.686  48.333  0.00  0.00    +0.000 C 
BRANCH  29  30
ATOM     30  C   UNL     1      -8.472  55.048  48.980  0.00  0.00    +0.000 A 
ATOM     31  C   UNL     1      -7.217  54.980  48.372  0.00  0.00    +0.000 A 
ATOM     32  C   UNL     1      -8.591  54.670  50.333  0.00  0.00    +0.000 A 
ATOM     33  C   UNL     1      -6.117  54.506  49.092  0.00  0.00    +0.000 A 
ATOM     34  C   UNL     1      -7.492  54.200  51.050  0.00  0.00    +0.000 A 
ATOM     35  C   UNL     1      -6.255  54.113  50.425  0.00  0.00    +0.000 A 
ENDBRANCH  29  30
ENDBRANCH   5  29
TORSDOF 4
ENDMDL
MODEL 8
REMARK VINA RESULT:      -8.2      2.694      5.181
REMARK  Name = 352895
REMARK  5 active torsions:
REMARK  status: ('A' for Active; 'I' for Inactive)
REMARK    1  A    between atoms: C_6  and  C_10
REMARK    2  A    between atoms: C_12  and  C_16
REMARK    3  A    between atoms: C_14  and  O_19
REMARK    4  A    between atoms: N_18  and  C_22
REMARK    5  A    between atoms: C_22  and  C_25
REMARK                            x       y       z     vdW  Elec       q    Type
REMARK                         _______ _______ _______ _____ _____    ______ ____
ROOT
ATOM      1  C   UNL     1      -8.721  52.905  47.494  0.00  0.00    +0.000 A 
ATOM      2  C   UNL     1     -10.191  52.694  47.304  0.00  0.00    +0.000 A 
ATOM      3  C   UNL     1      -7.986  52.817  46.370  0.00  0.00    +0.000 A 
ATOM      4  O   UNL     1     -10.864  52.094  48.129  0.00  0.00    +0.000 OA
ATOM      5  N   UNL     1     -10.691  53.362  46.163  0.00  0.00    +0.000 N 
ATOM      6  C   UNL     1      -8.689  52.433  45.137  0.00  0.00    +0.000 A 
ATOM      7  C   UNL     1     -10.040  52.827  44.997  0.00  0.00    +0.000 A 
ATOM      8  C   UNL     1      -8.139  51.550  44.213  0.00  0.00    +0.000 A 
ATOM      9  N   UNL     1     -10.817  52.402  43.980  0.00  0.00    +0.000 NA
ATOM     10  C   UNL     1      -8.955  51.050  43.204  0.00  0.00    +0.000 A 
ATOM     11  C   UNL     1     -10.264  51.510  43.123  0.00  0.00    +0.000 A 
ENDROOT
BRANCH   1  17
ATOM     12  S   UNL     1      -6.761  55.324  49.951  0.00  0.00    +0.000 S 
ATOM     13  O   UNL     1      -7.552  56.519  50.163  0.00  0.00    +0.000 OA
ATOM     14  O   UNL     1      -5.330  55.390  49.732  0.00  0.00    +0.000 OA
ATOM     15  N   UNL     1      -7.396  54.517  48.665  0.00  0.00    +0.000 N 
ATOM     16  C   UNL     1      -7.043  54.253  51.288  0.00  0.00    +0.000 A 
ATOM     17  C   UNL     1      -8.224  53.404  48.788  0.00  0.00    +0.000 C 
ATOM     18  C   UNL     1      -7.861  53.152  51.105  0.00  0.00    +0.000 A 
ATOM     19  C   UNL     1      -6.452  54.556  52.521  0.00  0.00    +0.000 A 
ATOM     20  N   UNL     1      -8.464  52.782  49.894  0.00  0.00    +0.000 N 
ATOM     21  C   UNL     1      -8.083  52.323  52.211  0.00  0.00    +0.000 A 
ATOM     22  C   UNL     1      -6.690  53.730  53.623  0.00  0.00    +0.000 A 
ATOM     23  C   UNL     1      -7.507  52.608  53.459  0.00  0.00    +0.000 A 
ATOM     24  C   UNL     1      -6.071  54.046  54.951  0.00  0.00    +0.000 C 
ATOM     25  H   UNL     1      -7.178  54.839  47.759  0.00  0.00    +0.000 HD
ATOM     26  H   UNL     1      -9.089  52.022  49.886  0.00  0.00    +0.000 HD
ENDBRANCH   1  17
BRANCH   3  27
ATOM     27  O   UNL     1      -6.650  53.123  46.287  0.00  0.00    +0.000 OA
ATOM     28  H   UNL     1      -6.213  53.512  47.018  0.00  0.00    +0.000 HD
ENDBRANCH   3  27
BRANCH   5  29
ATOM     29  C   UNL     1     -10.523  54.816  46.350  0.00  0.00    +0.000 C 
BRANCH  29  30
ATOM     30  C   UNL     1     -11.320  55.555  47.385  0.00  0.00    +0.000 A 
ATOM     31  C   UNL     1     -10.799  55.938  48.622  0.00  0.00    +0.000 A 
ATOM     32  C   UNL     1     -12.590  56.035  47.005  0.00  0.00    +0.000 A 
ATOM     33  C   UNL     1     -11.551  56.752  49.473  0.00  0.00    +0.000 A 
ATOM     34  C   UNL     1     -13.337  56.848  47.855  0.00  0.00    +0.000 A 
ATOM     35  C   UNL     1     -12.817  57.202  49.094  0.00  0.00    +0.000 A 
ENDBRANCH  29  30
ENDBRANCH   5  29
TORSDOF 4
ENDMDL
MODEL 9
REMARK VINA RESULT:      -8.1      2.284      4.362
REMARK  Name = 352895
REMARK  5 active torsions:
REMARK  status: ('A' for Active; 'I' for Inactive)
REMARK    1  A    between atoms: C_6  and  C_10
REMARK    2  A    between atoms: C_12  and  C_16
REMARK    3  A    between atoms: C_14  and  O_19
REMARK    4  A    between atoms: N_18  and  C_22
REMARK    5  A    between atoms: C_22  and  C_25
REMARK                            x       y       z     vdW  Elec       q    Type
REMARK                         _______ _______ _______ _____ _____    ______ ____
ROOT
ATOM      1  C   UNL     1      -9.798  53.582  50.500  0.00  0.00    +0.000 A 
ATOM      2  C   UNL     1     -11.198  53.134  50.215  0.00  0.00    +0.000 A 
ATOM      3  C   UNL     1      -9.357  54.590  49.723  0.00  0.00    +0.000 A 
ATOM      4  O   UNL     1     -11.517  51.955  50.269  0.00  0.00    +0.000 OA
ATOM      5  N   UNL     1     -12.084  54.217  50.015  0.00  0.00    +0.000 N 
ATOM      6  C   UNL     1     -10.249  55.048  48.648  0.00  0.00    +0.000 A 
ATOM      7  C   UNL     1     -11.643  54.962  48.865  0.00  0.00    +0.000 A 
ATOM      8  C   UNL     1      -9.776  55.374  47.380  0.00  0.00    +0.000 A 
ATOM      9  N   UNL     1     -12.545  55.214  47.895  0.00  0.00    +0.000 NA
ATOM     10  C   UNL     1     -10.698  55.563  46.357  0.00  0.00    +0.000 A 
ATOM     11  C   UNL     1     -12.052  55.486  46.661  0.00  0.00    +0.000 A 
ENDROOT
BRANCH   1  17
ATOM     12  S   UNL     1      -6.702  52.619  52.783  0.00  0.00    +0.000 S 
ATOM     13  O   UNL     1      -6.160  53.826  53.373  0.00  0.00    +0.000 OA
ATOM     14  O   UNL     1      -5.842  51.586  52.243  0.00  0.00    +0.000 OA
ATOM     15  N   UNL     1      -7.723  53.061  51.570  0.00  0.00    +0.000 N 
ATOM     16  C   UNL     1      -7.750  51.879  53.953  0.00  0.00    +0.000 A 
ATOM     17  C   UNL     1      -9.110  53.082  51.702  0.00  0.00    +0.000 C 
ATOM     18  C   UNL     1      -9.120  51.987  53.791  0.00  0.00    +0.000 A 
ATOM     19  C   UNL     1      -7.170  51.216  55.042  0.00  0.00    +0.000 A 
ATOM     20  N   UNL     1      -9.762  52.616  52.714  0.00  0.00    +0.000 N 
ATOM     21  C   UNL     1      -9.933  51.396  54.766  0.00  0.00    +0.000 A 
ATOM     22  C   UNL     1      -7.990  50.641  56.018  0.00  0.00    +0.000 A 
ATOM     23  C   UNL     1      -9.376  50.731  55.870  0.00  0.00    +0.000 A 
ATOM     24  C   UNL     1      -7.384  49.936  57.193  0.00  0.00    +0.000 C 
ATOM     25  H   UNL     1      -7.332  53.324  50.705  0.00  0.00    +0.000 HD
ATOM     26  H   UNL     1     -10.742  52.705  52.730  0.00  0.00    +0.000 HD
ENDBRANCH   1  17
BRANCH   3  27
ATOM     27  O   UNL     1      -8.169  55.253  49.909  0.00  0.00    +0.000 OA
ATOM     28  H   UNL     1      -7.625  55.453  49.173  0.00  0.00    +0.000 HD
ENDBRANCH   3  27
BRANCH   5  29
ATOM     29  C   UNL     1     -12.166  55.002  51.262  0.00  0.00    +0.000 C 
BRANCH  29  30
ATOM     30  C   UNL     1     -13.301  55.957  51.494  0.00  0.00    +0.000 A 
ATOM     31  C   UNL     1     -14.514  55.885  50.807  0.00  0.00    +0.000 A 
ATOM     32  C   UNL     1     -13.190  56.844  52.584  0.00  0.00    +0.000 A 
ATOM     33  C   UNL     1     -15.577  56.712  51.180  0.00  0.00    +0.000 A 
ATOM     34  C   UNL     1     -14.252  57.666  52.955  0.00  0.00    +0.000 A 
ATOM     35  C   UNL     1     -15.445  57.603  52.247  0.00  0.00    +0.000 A 
ENDBRANCH  29  30
ENDBRANCH   5  29
TORSDOF 4
ENDMDL
