MODEL 1
REMARK VINA RESULT:      -9.1      0.000      0.000
REMARK  Name = 353104
REMARK  5 active torsions:
REMARK  status: ('A' for Active; 'I' for Inactive)
REMARK    1  A    between atoms: C_6  and  C_10
REMARK    2  A    between atoms: C_11  and  C_16
REMARK    3  A    between atoms: C_14  and  O_19
REMARK    4  A    between atoms: N_18  and  C_22
REMARK    5  A    between atoms: C_22  and  C_25
REMARK                            x       y       z     vdW  Elec       q    Type
REMARK                         _______ _______ _______ _____ _____    ______ ____
ROOT
ATOM      1  C   UNL     1     -10.106  55.417  50.921  0.00  0.00    +0.000 A 
ATOM      2  C   UNL     1     -10.100  56.221  49.663  0.00  0.00    +0.000 A 
ATOM      3  C   UNL     1     -11.325  55.081  51.377  0.00  0.00    +0.000 A 
ATOM      4  O   UNL     1      -9.288  57.119  49.472  0.00  0.00    +0.000 OA
ATOM      5  N   UNL     1     -11.035  55.759  48.721  0.00  0.00    +0.000 N 
ATOM      6  C   UNL     1     -12.489  55.624  50.658  0.00  0.00    +0.000 A 
ATOM      7  C   UNL     1     -12.356  55.856  49.273  0.00  0.00    +0.000 A 
ATOM      8  C   UNL     1     -13.636  56.075  51.306  0.00  0.00    +0.000 A 
ATOM      9  N   UNL     1     -13.307  56.460  48.534  0.00  0.00    +0.000 NA
ATOM     10  C   UNL     1     -14.592  56.767  50.568  0.00  0.00    +0.000 A 
ATOM     11  C   UNL     1     -14.393  56.920  49.201  0.00  0.00    +0.000 A 
ENDROOT
BRANCH   1  17
ATOM     12  S   UNL     1      -7.533  54.239  53.689  0.00  0.00    +0.000 S 
ATOM     13  O   UNL     1      -7.887  52.893  54.079  0.00  0.00    +0.000 OA
ATOM     14  O   UNL     1      -7.154  55.240  54.663  0.00  0.00    +0.000 OA
ATOM     15  N   UNL     1      -8.789  54.869  52.838  0.00  0.00    +0.000 N 
ATOM     16  C   UNL     1      -6.252  54.133  52.515  0.00  0.00    +0.000 A 
ATOM     17  C   UNL     1      -8.827  54.907  51.447  0.00  0.00    +0.000 C 
ATOM     18  C   UNL     1      -6.553  54.310  51.166  0.00  0.00    +0.000 A 
ATOM     19  C   UNL     1      -4.961  53.839  52.971  0.00  0.00    +0.000 A 
ATOM     20  N   UNL     1      -7.829  54.634  50.677  0.00  0.00    +0.000 N 
ATOM     21  C   UNL     1      -5.491  54.183  50.245  0.00  0.00    +0.000 A 
ATOM     22  C   UNL     1      -3.929  53.709  52.059  0.00  0.00    +0.000 A 
ATOM     23  C   UNL     1      -4.191  53.874  50.701  0.00  0.00    +0.000 A 
ATOM     24  C   UNL     1      -5.672  54.339  48.758  0.00  0.00    +0.000 C 
ATOM     25  H   UNL     1      -9.553  55.240  53.337  0.00  0.00    +0.000 HD
ATOM     26  H   UNL     1      -7.968  54.653  49.703  0.00  0.00    +0.000 HD
ENDBRANCH   1  17
BRANCH   3  27
ATOM     27  O   UNL     1     -11.556  54.225  52.425  0.00  0.00    +0.000 OA
ATOM     28  H   UNL     1     -11.283  53.330  52.368  0.00  0.00    +0.000 HD
ENDBRANCH   3  27
BRANCH   5  29
ATOM     29  C   UNL     1     -10.677  54.403  48.267  0.00  0.00    +0.000 C 
BRANCH  29  30
ATOM     30  C   UNL     1      -9.937  54.303  46.967  0.00  0.00    +0.000 A 
ATOM     31  C   UNL     1      -8.706  54.951  46.808  0.00  0.00    +0.000 A 
ATOM     32  C   UNL     1     -10.411  53.466  45.946  0.00  0.00    +0.000 A 
ATOM     33  C   UNL     1      -7.975  54.787  45.632  0.00  0.00    +0.000 A 
ATOM     34  C   UNL     1      -9.678  53.307  44.771  0.00  0.00    +0.000 A 
ATOM     35  C   UNL     1      -8.464  53.972  44.613  0.00  0.00    +0.000 A 
ENDBRANCH  29  30
ENDBRANCH   5  29
TORSDOF 4
ENDMDL
MODEL 2
REMARK VINA RESULT:      -8.9      2.006      2.265
REMARK  Name = 353104
REMARK  5 active torsions:
REMARK  status: ('A' for Active; 'I' for Inactive)
REMARK    1  A    between atoms: C_6  and  C_10
REMARK    2  A    between atoms: C_11  and  C_16
REMARK    3  A    between atoms: C_14  and  O_19
REMARK    4  A    between atoms: N_18  and  C_22
REMARK    5  A    between atoms: C_22  and  C_25
REMARK                            x       y       z     vdW  Elec       q    Type
REMARK                         _______ _______ _______ _____ _____    ______ ____
ROOT
ATOM      1  C   UNL     1     -10.745  55.111  50.619  0.00  0.00    +0.000 A 
ATOM      2  C   UNL     1     -10.269  55.979  49.501  0.00  0.00    +0.000 A 
ATOM      3  C   UNL     1     -12.069  54.887  50.643  0.00  0.00    +0.000 A 
ATOM      4  O   UNL     1      -9.364  56.791  49.651  0.00  0.00    +0.000 OA
ATOM      5  N   UNL     1     -10.893  55.676  48.278  0.00  0.00    +0.000 N 
ATOM      6  C   UNL     1     -12.893  55.594  49.648  0.00  0.00    +0.000 A 
ATOM      7  C   UNL     1     -12.307  55.887  48.399  0.00  0.00    +0.000 A 
ATOM      8  C   UNL     1     -14.142  56.133  49.945  0.00  0.00    +0.000 A 
ATOM      9  N   UNL     1     -12.918  56.633  47.457  0.00  0.00    +0.000 NA
ATOM     10  C   UNL     1     -14.750  56.966  49.010  0.00  0.00    +0.000 A 
ATOM     11  C   UNL     1     -14.114  57.172  47.792  0.00  0.00    +0.000 A 
ENDROOT
BRANCH   1  17
ATOM     12  S   UNL     1      -9.022  52.062  52.463  0.00  0.00    +0.000 S 
ATOM     13  O   UNL     1      -8.240  51.338  51.487  0.00  0.00    +0.000 OA
ATOM     14  O   UNL     1      -9.836  51.379  53.445  0.00  0.00    +0.000 OA
ATOM     15  N   UNL     1     -10.024  53.082  51.657  0.00  0.00    +0.000 N 
ATOM     16  C   UNL     1      -7.948  53.130  53.320  0.00  0.00    +0.000 A 
ATOM     17  C   UNL     1      -9.749  54.435  51.469  0.00  0.00    +0.000 C 
ATOM     18  C   UNL     1      -7.939  54.485  52.996  0.00  0.00    +0.000 A 
ATOM     19  C   UNL     1      -7.100  52.577  54.288  0.00  0.00    +0.000 A 
ATOM     20  N   UNL     1      -8.794  55.077  52.051  0.00  0.00    +0.000 N 
ATOM     21  C   UNL     1      -7.030  55.310  53.690  0.00  0.00    +0.000 A 
ATOM     22  C   UNL     1      -6.206  53.394  54.958  0.00  0.00    +0.000 A 
ATOM     23  C   UNL     1      -6.166  54.753  54.658  0.00  0.00    +0.000 A 
ATOM     24  C   UNL     1      -6.905  56.790  53.437  0.00  0.00    +0.000 C 
ATOM     25  H   UNL     1     -10.863  52.721  51.288  0.00  0.00    +0.000 HD
ATOM     26  H   UNL     1      -8.657  56.025  51.823  0.00  0.00    +0.000 HD
ENDBRANCH   1  17
BRANCH   3  27
ATOM     27  O   UNL     1     -12.696  54.005  51.488  0.00  0.00    +0.000 OA
ATOM     28  H   UNL     1     -13.492  54.252  51.918  0.00  0.00    +0.000 HD
ENDBRANCH   3  27
BRANCH   5  29
ATOM     29  C   UNL     1     -10.529  54.316  47.841  0.00  0.00    +0.000 C 
BRANCH  29  30
ATOM     30  C   UNL     1      -9.780  54.204  46.547  0.00  0.00    +0.000 A 
ATOM     31  C   UNL     1      -8.605  54.939  46.349  0.00  0.00    +0.000 A 
ATOM     32  C   UNL     1     -10.183  53.277  45.575  0.00  0.00    +0.000 A 
ATOM     33  C   UNL     1      -7.861  54.770  45.183  0.00  0.00    +0.000 A 
ATOM     34  C   UNL     1      -9.437  53.112  44.409  0.00  0.00    +0.000 A 
ATOM     35  C   UNL     1      -8.280  53.863  44.212  0.00  0.00    +0.000 A 
ENDBRANCH  29  30
ENDBRANCH   5  29
TORSDOF 4
ENDMDL
MODEL 3
REMARK VINA RESULT:      -8.8      3.020      3.647
REMARK  Name = 353104
REMARK  5 active torsions:
REMARK  status: ('A' for Active; 'I' for Inactive)
REMARK    1  A    between atoms: C_6  and  C_10
REMARK    2  A    between atoms: C_11  and  C_16
REMARK    3  A    between atoms: C_14  and  O_19
REMARK    4  A    between atoms: N_18  and  C_22
REMARK    5  A    between atoms: C_22  and  C_25
REMARK                            x       y       z     vdW  Elec       q    Type
REMARK                         _______ _______ _______ _____ _____    ______ ____
ROOT
ATOM      1  C   UNL     1     -12.086  55.364  50.861  0.00  0.00    +0.000 A 
ATOM      2  C   UNL     1     -11.280  56.253  49.974  0.00  0.00    +0.000 A 
ATOM      3  C   UNL     1     -13.336  55.790  51.112  0.00  0.00    +0.000 A 
ATOM      4  O   UNL     1     -10.080  56.431  50.152  0.00  0.00    +0.000 OA
ATOM      5  N   UNL     1     -12.021  56.750  48.887  0.00  0.00    +0.000 N 
ATOM      6  C   UNL     1     -13.719  57.108  50.581  0.00  0.00    +0.000 A 
ATOM      7  C   UNL     1     -13.119  57.532  49.377  0.00  0.00    +0.000 A 
ATOM      8  C   UNL     1     -14.502  58.013  51.294  0.00  0.00    +0.000 A 
ATOM      9  N   UNL     1     -13.299  58.763  48.859  0.00  0.00    +0.000 NA
ATOM     10  C   UNL     1     -14.634  59.310  50.809  0.00  0.00    +0.000 A 
ATOM     11  C   UNL     1     -14.033  59.630  49.596  0.00  0.00    +0.000 A 
ENDROOT
BRANCH   1  17
ATOM     12  S   UNL     1     -10.124  52.736  53.078  0.00  0.00    +0.000 S 
ATOM     13  O   UNL     1     -10.979  52.359  54.180  0.00  0.00    +0.000 OA
ATOM     14  O   UNL     1      -8.712  52.998  53.263  0.00  0.00    +0.000 OA
ATOM     15  N   UNL     1     -10.758  54.079  52.377  0.00  0.00    +0.000 N 
ATOM     16  C   UNL     1     -10.276  51.517  51.845  0.00  0.00    +0.000 A 
ATOM     17  C   UNL     1     -11.544  54.043  51.228  0.00  0.00    +0.000 C 
ATOM     18  C   UNL     1     -11.064  51.779  50.726  0.00  0.00    +0.000 A 
ATOM     19  C   UNL     1      -9.622  50.294  52.041  0.00  0.00    +0.000 A 
ATOM     20  N   UNL     1     -11.710  53.003  50.484  0.00  0.00    +0.000 N 
ATOM     21  C   UNL     1     -11.187  50.752  49.767  0.00  0.00    +0.000 A 
ATOM     22  C   UNL     1      -9.756  49.290  51.098  0.00  0.00    +0.000 A 
ATOM     23  C   UNL     1     -10.539  49.514  49.968  0.00  0.00    +0.000 A 
ATOM     24  C   UNL     1     -12.014  50.893  48.516  0.00  0.00    +0.000 C 
ATOM     25  H   UNL     1     -10.573  54.954  52.789  0.00  0.00    +0.000 HD
ATOM     26  H   UNL     1     -12.317  53.069  49.712  0.00  0.00    +0.000 HD
ENDBRANCH   1  17
BRANCH   3  27
ATOM     27  O   UNL     1     -14.290  55.059  51.775  0.00  0.00    +0.000 OA
ATOM     28  H   UNL     1     -15.174  55.050  51.462  0.00  0.00    +0.000 HD
ENDBRANCH   3  27
BRANCH   5  29
ATOM     29  C   UNL     1     -12.425  55.646  47.997  0.00  0.00    +0.000 C 
BRANCH  29  30
ATOM     30  C   UNL     1     -11.384  55.135  47.047  0.00  0.00    +0.000 A 
ATOM     31  C   UNL     1     -10.055  55.555  47.169  0.00  0.00    +0.000 A 
ATOM     32  C   UNL     1     -11.709  54.144  46.109  0.00  0.00    +0.000 A 
ATOM     33  C   UNL     1      -9.070  55.013  46.343  0.00  0.00    +0.000 A 
ATOM     34  C   UNL     1     -10.723  53.606  45.284  0.00  0.00    +0.000 A 
ATOM     35  C   UNL     1      -9.406  54.046  45.398  0.00  0.00    +0.000 A 
ENDBRANCH  29  30
ENDBRANCH   5  29
TORSDOF 4
ENDMDL
MODEL 4
REMARK VINA RESULT:      -8.5      1.739      2.667
REMARK  Name = 353104
REMARK  5 active torsions:
REMARK  status: ('A' for Active; 'I' for Inactive)
REMARK    1  A    between atoms: C_6  and  C_10
REMARK    2  A    between atoms: C_11  and  C_16
REMARK    3  A    between atoms: C_14  and  O_19
REMARK    4  A    between atoms: N_18  and  C_22
REMARK    5  A    between atoms: C_22  and  C_25
REMARK                            x       y       z     vdW  Elec       q    Type
REMARK                         _______ _______ _______ _____ _____    ______ ____
ROOT
ATOM      1  C   UNL     1     -10.453  55.482  50.893  0.00  0.00    +0.000 A 
ATOM      2  C   UNL     1     -10.057  56.239  49.668  0.00  0.00    +0.000 A 
ATOM      3  C   UNL     1     -11.763  55.196  50.987  0.00  0.00    +0.000 A 
ATOM      4  O   UNL     1      -9.193  57.107  49.695  0.00  0.00    +0.000 OA
ATOM      5  N   UNL     1     -10.698  55.768  48.509  0.00  0.00    +0.000 N 
ATOM      6  C   UNL     1     -12.651  55.743  49.948  0.00  0.00    +0.000 A 
ATOM      7  C   UNL     1     -12.117  55.920  48.655  0.00  0.00    +0.000 A 
ATOM      8  C   UNL     1     -13.919  56.248  50.226  0.00  0.00    +0.000 A 
ATOM      9  N   UNL     1     -12.794  56.522  47.657  0.00  0.00    +0.000 NA
ATOM     10  C   UNL     1     -14.596  56.938  49.225  0.00  0.00    +0.000 A 
ATOM     11  C   UNL     1     -14.007  57.036  47.969  0.00  0.00    +0.000 A 
ENDROOT
BRANCH   1  17
ATOM     12  S   UNL     1      -6.826  55.224  52.458  0.00  0.00    +0.000 S 
ATOM     13  O   UNL     1      -6.678  56.298  53.413  0.00  0.00    +0.000 OA
ATOM     14  O   UNL     1      -5.767  54.872  51.536  0.00  0.00    +0.000 OA
ATOM     15  N   UNL     1      -8.153  55.536  51.542  0.00  0.00    +0.000 N 
ATOM     16  C   UNL     1      -7.260  53.786  53.336  0.00  0.00    +0.000 A 
ATOM     17  C   UNL     1      -9.398  54.958  51.778  0.00  0.00    +0.000 C 
ATOM     18  C   UNL     1      -8.588  53.363  53.330  0.00  0.00    +0.000 A 
ATOM     19  C   UNL     1      -6.256  53.121  54.052  0.00  0.00    +0.000 A 
ATOM     20  N   UNL     1      -9.613  53.989  52.602  0.00  0.00    +0.000 N 
ATOM     21  C   UNL     1      -8.903  52.212  54.082  0.00  0.00    +0.000 A 
ATOM     22  C   UNL     1      -6.578  51.997  54.793  0.00  0.00    +0.000 A 
ATOM     23  C   UNL     1      -7.895  51.546  54.814  0.00  0.00    +0.000 A 
ATOM     24  C   UNL     1     -10.297  51.647  54.173  0.00  0.00    +0.000 C 
ATOM     25  H   UNL     1      -8.065  56.163  50.788  0.00  0.00    +0.000 HD
ATOM     26  H   UNL     1     -10.538  53.674  52.726  0.00  0.00    +0.000 HD
ENDBRANCH   1  17
BRANCH   3  27
ATOM     27  O   UNL     1     -12.316  54.385  51.947  0.00  0.00    +0.000 OA
ATOM     28  H   UNL     1     -13.011  53.797  51.720  0.00  0.00    +0.000 HD
ENDBRANCH   3  27
BRANCH   5  29
ATOM     29  C   UNL     1     -10.274  54.387  48.216  0.00  0.00    +0.000 C 
BRANCH  29  30
ATOM     30  C   UNL     1      -9.584  54.161  46.905  0.00  0.00    +0.000 A 
ATOM     31  C   UNL     1     -10.157  53.319  45.945  0.00  0.00    +0.000 A 
ATOM     32  C   UNL     1      -8.424  54.882  46.582  0.00  0.00    +0.000 A 
ATOM     33  C   UNL     1      -9.562  53.177  44.692  0.00  0.00    +0.000 A 
ATOM     34  C   UNL     1      -7.831  54.736  45.329  0.00  0.00    +0.000 A 
ATOM     35  C   UNL     1      -8.397  53.879  44.388  0.00  0.00    +0.000 A 
ENDBRANCH  29  30
ENDBRANCH   5  29
TORSDOF 4
ENDMDL
MODEL 5
REMARK VINA RESULT:      -8.5      2.384      5.292
REMARK  Name = 353104
REMARK  5 active torsions:
REMARK  status: ('A' for Active; 'I' for Inactive)
REMARK    1  A    between atoms: C_6  and  C_10
REMARK    2  A    between atoms: C_11  and  C_16
REMARK    3  A    between atoms: C_14  and  O_19
REMARK    4  A    between atoms: N_18  and  C_22
REMARK    5  A    between atoms: C_22  and  C_25
REMARK                            x       y       z     vdW  Elec       q    Type
REMARK                         _______ _______ _______ _____ _____    ______ ____
ROOT
ATOM      1  C   UNL     1      -8.538  53.568  47.943  0.00  0.00    +0.000 A 
ATOM      2  C   UNL     1      -9.969  53.146  47.905  0.00  0.00    +0.000 A 
ATOM      3  C   UNL     1      -7.987  53.824  46.744  0.00  0.00    +0.000 A 
ATOM      4  O   UNL     1     -10.415  52.298  48.670  0.00  0.00    +0.000 OA
ATOM      5  N   UNL     1     -10.731  53.897  46.993  0.00  0.00    +0.000 N 
ATOM      6  C   UNL     1      -8.809  53.559  45.552  0.00  0.00    +0.000 A 
ATOM      7  C   UNL     1     -10.206  53.714  45.671  0.00  0.00    +0.000 A 
ATOM      8  C   UNL     1      -8.293  53.002  44.385  0.00  0.00    +0.000 A 
ATOM      9  N   UNL     1     -11.068  53.387  44.688  0.00  0.00    +0.000 NA
ATOM     10  C   UNL     1      -9.179  52.589  43.393  0.00  0.00    +0.000 A 
ATOM     11  C   UNL     1     -10.538  52.812  43.582  0.00  0.00    +0.000 A 
ENDROOT
BRANCH   1  17
ATOM     12  S   UNL     1      -5.628  53.667  50.625  0.00  0.00    +0.000 S 
ATOM     13  O   UNL     1      -4.772  54.787  50.309  0.00  0.00    +0.000 OA
ATOM     14  O   UNL     1      -5.089  52.381  51.016  0.00  0.00    +0.000 OA
ATOM     15  N   UNL     1      -6.601  53.388  49.331  0.00  0.00    +0.000 N 
ATOM     16  C   UNL     1      -6.733  54.175  51.870  0.00  0.00    +0.000 A 
ATOM     17  C   UNL     1      -7.912  53.850  49.248  0.00  0.00    +0.000 C 
ATOM     18  C   UNL     1      -8.045  54.493  51.523  0.00  0.00    +0.000 A 
ATOM     19  C   UNL     1      -6.250  54.280  53.180  0.00  0.00    +0.000 A 
ATOM     20  N   UNL     1      -8.570  54.373  50.225  0.00  0.00    +0.000 N 
ATOM     21  C   UNL     1      -8.898  54.933  52.556  0.00  0.00    +0.000 A 
ATOM     22  C   UNL     1      -7.093  54.720  54.185  0.00  0.00    +0.000 A 
ATOM     23  C   UNL     1      -8.410  55.052  53.876  0.00  0.00    +0.000 A 
ATOM     24  C   UNL     1     -10.336  55.319  52.325  0.00  0.00    +0.000 C 
ATOM     25  H   UNL     1      -6.239  52.869  48.577  0.00  0.00    +0.000 HD
ATOM     26  H   UNL     1      -9.482  54.704  50.055  0.00  0.00    +0.000 HD
ENDBRANCH   1  17
BRANCH   3  27
ATOM     27  O   UNL     1      -6.739  54.365  46.559  0.00  0.00    +0.000 OA
ATOM     28  H   UNL     1      -6.142  53.970  45.954  0.00  0.00    +0.000 HD
ENDBRANCH   3  27
BRANCH   5  29
ATOM     29  C   UNL     1     -10.797  55.306  47.420  0.00  0.00    +0.000 C 
BRANCH  29  30
ATOM     30  C   UNL     1     -12.103  55.776  47.987  0.00  0.00    +0.000 A 
ATOM     31  C   UNL     1     -12.445  55.470  49.309  0.00  0.00    +0.000 A 
ATOM     32  C   UNL     1     -12.934  56.623  47.240  0.00  0.00    +0.000 A 
ATOM     33  C   UNL     1     -13.617  55.980  49.866  0.00  0.00    +0.000 A 
ATOM     34  C   UNL     1     -14.107  57.129  47.799  0.00  0.00    +0.000 A 
ATOM     35  C   UNL     1     -14.449  56.802  49.109  0.00  0.00    +0.000 A 
ENDBRANCH  29  30
ENDBRANCH   5  29
TORSDOF 4
ENDMDL
MODEL 6
REMARK VINA RESULT:      -8.5      1.585      4.664
REMARK  Name = 353104
REMARK  5 active torsions:
REMARK  status: ('A' for Active; 'I' for Inactive)
REMARK    1  A    between atoms: C_6  and  C_10
REMARK    2  A    between atoms: C_11  and  C_16
REMARK    3  A    between atoms: C_14  and  O_19
REMARK    4  A    between atoms: N_18  and  C_22
REMARK    5  A    between atoms: C_22  and  C_25
REMARK                            x       y       z     vdW  Elec       q    Type
REMARK                         _______ _______ _______ _____ _____    ______ ____
ROOT
ATOM      1  C   UNL     1      -9.253  53.697  49.354  0.00  0.00    +0.000 A 
ATOM      2  C   UNL     1     -10.715  53.406  49.273  0.00  0.00    +0.000 A 
ATOM      3  C   UNL     1      -8.675  54.043  48.191  0.00  0.00    +0.000 A 
ATOM      4  O   UNL     1     -11.236  52.516  49.934  0.00  0.00    +0.000 OA
ATOM      5  N   UNL     1     -11.405  54.320  48.458  0.00  0.00    +0.000 N 
ATOM      6  C   UNL     1      -9.510  53.991  46.980  0.00  0.00    +0.000 A 
ATOM      7  C   UNL     1     -10.889  54.250  47.121  0.00  0.00    +0.000 A 
ATOM      8  C   UNL     1      -9.036  53.532  45.753  0.00  0.00    +0.000 A 
ATOM      9  N   UNL     1     -11.770  54.113  46.110  0.00  0.00    +0.000 NA
ATOM     10  C   UNL     1      -9.948  53.315  44.724  0.00  0.00    +0.000 A 
ATOM     11  C   UNL     1     -11.284  53.629  44.942  0.00  0.00    +0.000 A 
ENDROOT
BRANCH   1  17
ATOM     12  S   UNL     1      -9.105  53.922  53.304  0.00  0.00    +0.000 S 
ATOM     13  O   UNL     1      -9.366  52.603  53.832  0.00  0.00    +0.000 OA
ATOM     14  O   UNL     1      -9.694  55.108  53.889  0.00  0.00    +0.000 OA
ATOM     15  N   UNL     1      -9.530  53.927  51.717  0.00  0.00    +0.000 N 
ATOM     16  C   UNL     1      -7.381  54.151  53.270  0.00  0.00    +0.000 A 
ATOM     17  C   UNL     1      -8.613  53.770  50.680  0.00  0.00    +0.000 C 
ATOM     18  C   UNL     1      -6.705  54.030  52.057  0.00  0.00    +0.000 A 
ATOM     19  C   UNL     1      -6.725  54.417  54.479  0.00  0.00    +0.000 A 
ATOM     20  N   UNL     1      -7.332  53.791  50.823  0.00  0.00    +0.000 N 
ATOM     21  C   UNL     1      -5.303  54.189  52.080  0.00  0.00    +0.000 A 
ATOM     22  C   UNL     1      -5.350  54.564  54.491  0.00  0.00    +0.000 A 
ATOM     23  C   UNL     1      -4.639  54.446  53.299  0.00  0.00    +0.000 A 
ATOM     24  C   UNL     1      -4.444  54.076  50.847  0.00  0.00    +0.000 C 
ATOM     25  H   UNL     1     -10.480  54.048  51.487  0.00  0.00    +0.000 HD
ATOM     26  H   UNL     1      -6.768  53.633  50.032  0.00  0.00    +0.000 HD
ENDBRANCH   1  17
BRANCH   3  27
ATOM     27  O   UNL     1      -7.384  54.494  48.065  0.00  0.00    +0.000 OA
ATOM     28  H   UNL     1      -6.719  54.179  48.646  0.00  0.00    +0.000 HD
ENDBRANCH   3  27
BRANCH   5  29
ATOM     29  C   UNL     1     -11.353  55.671  49.047  0.00  0.00    +0.000 C 
BRANCH  29  30
ATOM     30  C   UNL     1     -12.544  56.099  49.849  0.00  0.00    +0.000 A 
ATOM     31  C   UNL     1     -13.758  56.379  49.209  0.00  0.00    +0.000 A 
ATOM     32  C   UNL     1     -12.487  56.109  51.250  0.00  0.00    +0.000 A 
ATOM     33  C   UNL     1     -14.890  56.692  49.960  0.00  0.00    +0.000 A 
ATOM     34  C   UNL     1     -13.620  56.425  51.998  0.00  0.00    +0.000 A 
ATOM     35  C   UNL     1     -14.819  56.722  51.352  0.00  0.00    +0.000 A 
ENDBRANCH  29  30
ENDBRANCH   5  29
TORSDOF 4
ENDMDL
MODEL 7
REMARK VINA RESULT:      -8.4      2.931      5.714
REMARK  Name = 353104
REMARK  5 active torsions:
REMARK  status: ('A' for Active; 'I' for Inactive)
REMARK    1  A    between atoms: C_6  and  C_10
REMARK    2  A    between atoms: C_11  and  C_16
REMARK    3  A    between atoms: C_14  and  O_19
REMARK    4  A    between atoms: N_18  and  C_22
REMARK    5  A    between atoms: C_22  and  C_25
REMARK                            x       y       z     vdW  Elec       q    Type
REMARK                         _______ _______ _______ _____ _____    ______ ____
ROOT
ATOM      1  C   UNL     1     -12.511  54.505  49.491  0.00  0.00    +0.000 A 
ATOM      2  C   UNL     1     -12.331  54.202  50.942  0.00  0.00    +0.000 A 
ATOM      3  C   UNL     1     -13.145  55.660  49.224  0.00  0.00    +0.000 A 
ATOM      4  O   UNL     1     -12.419  53.062  51.382  0.00  0.00    +0.000 OA
ATOM      5  N   UNL     1     -11.951  55.332  51.688  0.00  0.00    +0.000 N 
ATOM      6  C   UNL     1     -13.670  56.422  50.369  0.00  0.00    +0.000 A 
ATOM      7  C   UNL     1     -12.976  56.331  51.593  0.00  0.00    +0.000 A 
ATOM      8  C   UNL     1     -14.899  57.078  50.342  0.00  0.00    +0.000 A 
ATOM      9  N   UNL     1     -13.426  56.885  52.736  0.00  0.00    +0.000 NA
ATOM     10  C   UNL     1     -15.410  57.588  51.532  0.00  0.00    +0.000 A 
ATOM     11  C   UNL     1     -14.641  57.481  52.685  0.00  0.00    +0.000 A 
ENDROOT
BRANCH   1  17
ATOM     12  S   UNL     1     -11.794  51.185  47.458  0.00  0.00    +0.000 S 
ATOM     13  O   UNL     1     -12.813  51.060  46.440  0.00  0.00    +0.000 OA
ATOM     14  O   UNL     1     -11.356  50.049  48.241  0.00  0.00    +0.000 OA
ATOM     15  N   UNL     1     -12.284  52.328  48.530  0.00  0.00    +0.000 N 
ATOM     16  C   UNL     1     -10.386  51.890  46.718  0.00  0.00    +0.000 A 
ATOM     17  C   UNL     1     -11.842  53.648  48.496  0.00  0.00    +0.000 C 
ATOM     18  C   UNL     1     -10.115  53.241  46.928  0.00  0.00    +0.000 A 
ATOM     19  C   UNL     1      -9.588  51.075  45.905  0.00  0.00    +0.000 A 
ATOM     20  N   UNL     1     -10.876  54.080  47.758  0.00  0.00    +0.000 N 
ATOM     21  C   UNL     1      -8.982  53.781  46.283  0.00  0.00    +0.000 A 
ATOM     22  C   UNL     1      -8.484  51.616  45.271  0.00  0.00    +0.000 A 
ATOM     23  C   UNL     1      -8.183  52.964  45.453  0.00  0.00    +0.000 A 
ATOM     24  C   UNL     1      -8.575  55.225  46.412  0.00  0.00    +0.000 C 
ATOM     25  H   UNL     1     -12.922  52.068  49.234  0.00  0.00    +0.000 HD
ATOM     26  H   UNL     1     -10.663  55.041  47.778  0.00  0.00    +0.000 HD
ENDBRANCH   1  17
BRANCH   3  27
ATOM     27  O   UNL     1     -13.283  56.201  47.970  0.00  0.00    +0.000 OA
ATOM     28  H   UNL     1     -12.622  56.774  47.632  0.00  0.00    +0.000 HD
ENDBRANCH   3  27
BRANCH   5  29
ATOM     29  C   UNL     1     -10.619  55.801  51.263  0.00  0.00    +0.000 C 
BRANCH  29  30
ATOM     30  C   UNL     1      -9.448  54.965  51.681  0.00  0.00    +0.000 A 
ATOM     31  C   UNL     1      -9.235  54.681  53.035  0.00  0.00    +0.000 A 
ATOM     32  C   UNL     1      -8.628  54.364  50.715  0.00  0.00    +0.000 A 
ATOM     33  C   UNL     1      -8.198  53.831  53.418  0.00  0.00    +0.000 A 
ATOM     34  C   UNL     1      -7.591  53.517  51.102  0.00  0.00    +0.000 A 
ATOM     35  C   UNL     1      -7.374  53.256  52.453  0.00  0.00    +0.000 A 
ENDBRANCH  29  30
ENDBRANCH   5  29
TORSDOF 4
ENDMDL
MODEL 8
REMARK VINA RESULT:      -8.4      1.975      2.911
REMARK  Name = 353104
REMARK  5 active torsions:
REMARK  status: ('A' for Active; 'I' for Inactive)
REMARK    1  A    between atoms: C_6  and  C_10
REMARK    2  A    between atoms: C_11  and  C_16
REMARK    3  A    between atoms: C_14  and  O_19
REMARK    4  A    between atoms: N_18  and  C_22
REMARK    5  A    between atoms: C_22  and  C_25
REMARK                            x       y       z     vdW  Elec       q    Type
REMARK                         _______ _______ _______ _____ _____    ______ ____
ROOT
ATOM      1  C   UNL     1     -10.308  55.474  50.757  0.00  0.00    +0.000 A 
ATOM      2  C   UNL     1     -10.905  55.887  49.452  0.00  0.00    +0.000 A 
ATOM      3  C   UNL     1     -11.172  55.410  51.784  0.00  0.00    +0.000 A 
ATOM      4  O   UNL     1     -10.302  56.604  48.662  0.00  0.00    +0.000 OA
ATOM      5  N   UNL     1     -12.149  55.279  49.210  0.00  0.00    +0.000 N 
ATOM      6  C   UNL     1     -12.555  55.849  51.532  0.00  0.00    +0.000 A 
ATOM      7  C   UNL     1     -13.076  55.666  50.234  0.00  0.00    +0.000 A 
ATOM      8  C   UNL     1     -13.296  56.582  52.456  0.00  0.00    +0.000 A 
ATOM      9  N   UNL     1     -14.280  56.135  49.854  0.00  0.00    +0.000 NA
ATOM     10  C   UNL     1     -14.507  57.135  52.051  0.00  0.00    +0.000 A 
ATOM     11  C   UNL     1     -14.959  56.876  50.762  0.00  0.00    +0.000 A 
ENDROOT
BRANCH   1  17
ATOM     12  S   UNL     1      -6.997  53.855  49.312  0.00  0.00    +0.000 S 
ATOM     13  O   UNL     1      -6.328  54.855  48.511  0.00  0.00    +0.000 OA
ATOM     14  O   UNL     1      -7.107  52.479  48.877  0.00  0.00    +0.000 OA
ATOM     15  N   UNL     1      -8.528  54.375  49.600  0.00  0.00    +0.000 N 
ATOM     16  C   UNL     1      -6.259  53.852  50.887  0.00  0.00    +0.000 A 
ATOM     17  C   UNL     1      -8.913  55.000  50.784  0.00  0.00    +0.000 C 
ATOM     18  C   UNL     1      -6.915  54.480  51.944  0.00  0.00    +0.000 A 
ATOM     19  C   UNL     1      -5.005  53.244  51.029  0.00  0.00    +0.000 A 
ATOM     20  N   UNL     1      -8.183  55.076  51.845  0.00  0.00    +0.000 N 
ATOM     21  C   UNL     1      -6.266  54.484  53.197  0.00  0.00    +0.000 A 
ATOM     22  C   UNL     1      -4.374  53.260  52.260  0.00  0.00    +0.000 A 
ATOM     23  C   UNL     1      -4.997  53.882  53.339  0.00  0.00    +0.000 A 
ATOM     24  C   UNL     1      -6.853  55.133  54.423  0.00  0.00    +0.000 C 
ATOM     25  H   UNL     1      -9.209  54.238  48.902  0.00  0.00    +0.000 HD
ATOM     26  H   UNL     1      -8.531  55.572  52.620  0.00  0.00    +0.000 HD
ENDBRANCH   1  17
BRANCH   3  27
ATOM     27  O   UNL     1     -10.869  54.913  53.028  0.00  0.00    +0.000 OA
ATOM     28  H   UNL     1     -11.468  55.034  53.739  0.00  0.00    +0.000 HD
ENDBRANCH   3  27
BRANCH   5  29
ATOM     29  C   UNL     1     -11.988  53.820  49.071  0.00  0.00    +0.000 C 
BRANCH  29  30
ATOM     30  C   UNL     1     -11.936  53.280  47.674  0.00  0.00    +0.000 A 
ATOM     31  C   UNL     1     -12.307  51.955  47.419  0.00  0.00    +0.000 A 
ATOM     32  C   UNL     1     -11.632  54.128  46.599  0.00  0.00    +0.000 A 
ATOM     33  C   UNL     1     -12.344  51.476  46.110  0.00  0.00    +0.000 A 
ATOM     34  C   UNL     1     -11.668  53.646  45.292  0.00  0.00    +0.000 A 
ATOM     35  C   UNL     1     -12.018  52.319  45.049  0.00  0.00    +0.000 A 
ENDBRANCH  29  30
ENDBRANCH   5  29
TORSDOF 4
ENDMDL
MODEL 9
REMARK VINA RESULT:      -8.2      1.998      4.742
REMARK  Name = 353104
REMARK  5 active torsions:
REMARK  status: ('A' for Active; 'I' for Inactive)
REMARK    1  A    between atoms: C_6  and  C_10
REMARK    2  A    between atoms: C_11  and  C_16
REMARK    3  A    between atoms: C_14  and  O_19
REMARK    4  A    between atoms: N_18  and  C_22
REMARK    5  A    between atoms: C_22  and  C_25
REMARK                            x       y       z     vdW  Elec       q    Type
REMARK                         _______ _______ _______ _____ _____    ______ ____
ROOT
ATOM      1  C   UNL     1      -8.335  53.575  48.114  0.00  0.00    +0.000 A 
ATOM      2  C   UNL     1      -9.793  53.265  48.191  0.00  0.00    +0.000 A 
ATOM      3  C   UNL     1      -7.866  53.810  46.876  0.00  0.00    +0.000 A 
ATOM      4  O   UNL     1     -10.239  52.440  48.979  0.00  0.00    +0.000 OA
ATOM      5  N   UNL     1     -10.567  54.089  47.356  0.00  0.00    +0.000 N 
ATOM      6  C   UNL     1      -8.803  53.632  45.754  0.00  0.00    +0.000 A 
ATOM      7  C   UNL     1     -10.169  53.893  45.992  0.00  0.00    +0.000 A 
ATOM      8  C   UNL     1      -8.431  53.060  44.540  0.00  0.00    +0.000 A 
ATOM      9  N   UNL     1     -11.132  53.651  45.080  0.00  0.00    +0.000 NA
ATOM     10  C   UNL     1      -9.425  52.736  43.622  0.00  0.00    +0.000 A 
ATOM     11  C   UNL     1     -10.742  53.059  43.927  0.00  0.00    +0.000 A 
ENDROOT
BRANCH   1  17
ATOM     12  S   UNL     1      -7.602  55.086  51.698  0.00  0.00    +0.000 S 
ATOM     13  O   UNL     1      -8.413  54.370  52.655  0.00  0.00    +0.000 OA
ATOM     14  O   UNL     1      -7.446  56.524  51.755  0.00  0.00    +0.000 OA
ATOM     15  N   UNL     1      -8.162  54.739  50.194  0.00  0.00    +0.000 N 
ATOM     16  C   UNL     1      -6.010  54.383  51.717  0.00  0.00    +0.000 A 
ATOM     17  C   UNL     1      -7.583  53.782  49.364  0.00  0.00    +0.000 C 
ATOM     18  C   UNL     1      -5.641  53.514  50.693  0.00  0.00    +0.000 A 
ATOM     19  C   UNL     1      -5.163  54.693  52.790  0.00  0.00    +0.000 A 
ATOM     20  N   UNL     1      -6.453  53.202  49.590  0.00  0.00    +0.000 N 
ATOM     21  C   UNL     1      -4.354  52.939  50.765  0.00  0.00    +0.000 A 
ATOM     22  C   UNL     1      -3.906  54.118  52.854  0.00  0.00    +0.000 A 
ATOM     23  C   UNL     1      -3.504  53.240  51.850  0.00  0.00    +0.000 A 
ATOM     24  C   UNL     1      -3.827  51.976  49.733  0.00  0.00    +0.000 C 
ATOM     25  H   UNL     1      -8.948  55.231  49.862  0.00  0.00    +0.000 HD
ATOM     26  H   UNL     1      -6.146  52.511  48.960  0.00  0.00    +0.000 HD
ENDBRANCH   1  17
BRANCH   3  27
ATOM     27  O   UNL     1      -6.599  54.257  46.593  0.00  0.00    +0.000 OA
ATOM     28  H   UNL     1      -6.302  54.291  45.705  0.00  0.00    +0.000 HD
ENDBRANCH   3  27
BRANCH   5  29
ATOM     29  C   UNL     1     -10.486  55.492  47.804  0.00  0.00    +0.000 C 
BRANCH  29  30
ATOM     30  C   UNL     1     -11.773  56.140  48.214  0.00  0.00    +0.000 A 
ATOM     31  C   UNL     1     -11.955  56.568  49.535  0.00  0.00    +0.000 A 
ATOM     32  C   UNL     1     -12.756  56.431  47.256  0.00  0.00    +0.000 A 
ATOM     33  C   UNL     1     -13.115  57.250  49.898  0.00  0.00    +0.000 A 
ATOM     34  C   UNL     1     -13.916  57.112  47.623  0.00  0.00    +0.000 A 
ATOM     35  C   UNL     1     -14.097  57.515  48.944  0.00  0.00    +0.000 A 
ENDBRANCH  29  30
ENDBRANCH   5  29
TORSDOF 4
ENDMDL
