MODEL 1
REMARK VINA RESULT:      -9.1      0.000      0.000
REMARK  Name = 352867
REMARK  5 active torsions:
REMARK  status: ('A' for Active; 'I' for Inactive)
REMARK    1  A    between atoms: C_6  and  C_10
REMARK    2  A    between atoms: C_14  and  O_18
REMARK    3  A    between atoms: C_15  and  O_20
REMARK    4  A    between atoms: N_17  and  C_22
REMARK    5  A    between atoms: C_22  and  C_25
REMARK                            x       y       z     vdW  Elec       q    Type
REMARK                         _______ _______ _______ _____ _____    ______ ____
ROOT
ATOM      1  C   UNL     1     -10.399  55.732  50.898  0.00  0.00    +0.000 A 
ATOM      2  C   UNL     1      -9.924  56.198  49.567  0.00  0.00    +0.000 A 
ATOM      3  C   UNL     1     -11.736  55.691  51.062  0.00  0.00    +0.000 A 
ATOM      4  O   UNL     1      -8.930  56.907  49.458  0.00  0.00    +0.000 OA
ATOM      5  N   UNL     1     -10.666  55.642  48.505  0.00  0.00    +0.000 N 
ATOM      6  C   UNL     1     -12.567  56.153  49.947  0.00  0.00    +0.000 A 
ATOM      7  C   UNL     1     -12.052  56.015  48.640  0.00  0.00    +0.000 A 
ATOM      8  C   UNL     1     -13.803  56.766  50.132  0.00  0.00    +0.000 A 
ATOM      9  N   UNL     1     -12.702  56.471  47.551  0.00  0.00    +0.000 NA
ATOM     10  C   UNL     1     -14.452  57.293  49.024  0.00  0.00    +0.000 A 
ATOM     11  C   UNL     1     -13.873  57.119  47.773  0.00  0.00    +0.000 A 
ENDROOT
BRANCH   1  17
ATOM     12  S   UNL     1      -7.173  55.020  52.825  0.00  0.00    +0.000 S 
ATOM     13  O   UNL     1      -6.000  54.678  52.050  0.00  0.00    +0.000 OA
ATOM     14  O   UNL     1      -7.089  55.997  53.890  0.00  0.00    +0.000 OA
ATOM     15  N   UNL     1      -8.302  55.509  51.797  0.00  0.00    +0.000 N 
ATOM     16  C   UNL     1      -7.736  53.540  53.560  0.00  0.00    +0.000 A 
ATOM     17  C   UNL     1      -9.479  54.965  51.773  0.00  0.00    +0.000 C 
ATOM     18  C   UNL     1      -9.050  53.135  53.330  0.00  0.00    +0.000 A 
ATOM     19  C   UNL     1      -6.840  52.810  54.341  0.00  0.00    +0.000 A 
ATOM     20  N   UNL     1      -9.897  53.874  52.495  0.00  0.00    +0.000 N 
ATOM     21  C   UNL     1      -9.469  51.926  53.909  0.00  0.00    +0.000 A 
ATOM     22  C   UNL     1      -7.263  51.622  54.913  0.00  0.00    +0.000 A 
ATOM     23  C   UNL     1      -8.567  51.189  54.695  0.00  0.00    +0.000 A 
ATOM     24  H   UNL     1      -8.097  56.240  51.170  0.00  0.00    +0.000 HD
ATOM     25  H   UNL     1     -10.839  53.596  52.421  0.00  0.00    +0.000 HD
BRANCH  23  26
ATOM     26  O   UNL     1      -8.925  50.006  55.270  0.00  0.00    +0.000 OA
ATOM     27  H   UNL     1      -8.434  49.670  55.994  0.00  0.00    +0.000 HD
ENDBRANCH  23  26
ENDBRANCH   1  17
BRANCH   3  28
ATOM     28  O   UNL     1     -12.406  55.093  52.106  0.00  0.00    +0.000 OA
ATOM     29  H   UNL     1     -12.147  54.243  52.403  0.00  0.00    +0.000 HD
ENDBRANCH   3  28
BRANCH   5  30
ATOM     30  C   UNL     1     -10.443  54.181  48.438  0.00  0.00    +0.000 C 
BRANCH  30  31
ATOM     31  C   UNL     1     -10.942  53.460  47.219  0.00  0.00    +0.000 A 
ATOM     32  C   UNL     1     -11.856  52.407  47.345  0.00  0.00    +0.000 A 
ATOM     33  C   UNL     1     -10.603  53.920  45.936  0.00  0.00    +0.000 A 
ATOM     34  C   UNL     1     -12.382  51.792  46.209  0.00  0.00    +0.000 A 
ATOM     35  C   UNL     1     -11.129  53.301  44.802  0.00  0.00    +0.000 A 
ATOM     36  C   UNL     1     -12.010  52.230  44.940  0.00  0.00    +0.000 A 
ENDBRANCH  30  31
ENDBRANCH   5  30
TORSDOF 5
ENDMDL
MODEL 2
REMARK VINA RESULT:      -9.0      1.340      2.453
REMARK  Name = 352867
REMARK  5 active torsions:
REMARK  status: ('A' for Active; 'I' for Inactive)
REMARK    1  A    between atoms: C_6  and  C_10
REMARK    2  A    between atoms: C_14  and  O_18
REMARK    3  A    between atoms: C_15  and  O_20
REMARK    4  A    between atoms: N_17  and  C_22
REMARK    5  A    between atoms: C_22  and  C_25
REMARK                            x       y       z     vdW  Elec       q    Type
REMARK                         _______ _______ _______ _____ _____    ______ ____
ROOT
ATOM      1  C   UNL     1     -10.648  55.786  50.744  0.00  0.00    +0.000 A 
ATOM      2  C   UNL     1     -10.108  56.180  49.414  0.00  0.00    +0.000 A 
ATOM      3  C   UNL     1     -11.989  55.824  50.869  0.00  0.00    +0.000 A 
ATOM      4  O   UNL     1      -9.074  56.827  49.313  0.00  0.00    +0.000 OA
ATOM      5  N   UNL     1     -10.850  55.630  48.348  0.00  0.00    +0.000 N 
ATOM      6  C   UNL     1     -12.760  56.295  49.714  0.00  0.00    +0.000 A 
ATOM      7  C   UNL     1     -12.216  56.084  48.429  0.00  0.00    +0.000 A 
ATOM      8  C   UNL     1     -13.963  56.982  49.841  0.00  0.00    +0.000 A 
ATOM      9  N   UNL     1     -12.807  56.538  47.306  0.00  0.00    +0.000 NA
ATOM     10  C   UNL     1     -14.550  57.506  48.698  0.00  0.00    +0.000 A 
ATOM     11  C   UNL     1     -13.945  57.258  47.471  0.00  0.00    +0.000 A 
ENDROOT
BRANCH   1  17
ATOM     12  S   UNL     1      -9.531  52.702  52.711  0.00  0.00    +0.000 S 
ATOM     13  O   UNL     1     -10.347  52.302  53.836  0.00  0.00    +0.000 OA
ATOM     14  O   UNL     1      -9.082  51.721  51.746  0.00  0.00    +0.000 OA
ATOM     15  N   UNL     1     -10.331  53.842  51.918  0.00  0.00    +0.000 N 
ATOM     16  C   UNL     1      -8.089  53.433  53.373  0.00  0.00    +0.000 A 
ATOM     17  C   UNL     1      -9.798  54.998  51.671  0.00  0.00    +0.000 C 
ATOM     18  C   UNL     1      -7.759  54.731  52.985  0.00  0.00    +0.000 A 
ATOM     19  C   UNL     1      -7.330  52.691  54.278  0.00  0.00    +0.000 A 
ATOM     20  N   UNL     1      -8.581  55.456  52.114  0.00  0.00    +0.000 N 
ATOM     21  C   UNL     1      -6.611  55.306  53.554  0.00  0.00    +0.000 A 
ATOM     22  C   UNL     1      -6.197  53.265  54.829  0.00  0.00    +0.000 A 
ATOM     23  C   UNL     1      -5.846  54.562  54.467  0.00  0.00    +0.000 A 
ATOM     24  H   UNL     1     -11.249  53.660  51.611  0.00  0.00    +0.000 HD
ATOM     25  H   UNL     1      -8.272  56.339  51.805  0.00  0.00    +0.000 HD
BRANCH  23  26
ATOM     26  O   UNL     1      -4.729  55.080  55.051  0.00  0.00    +0.000 OA
ATOM     27  H   UNL     1      -4.227  54.559  55.647  0.00  0.00    +0.000 HD
ENDBRANCH  23  26
ENDBRANCH   1  17
BRANCH   3  28
ATOM     28  O   UNL     1     -12.721  55.301  51.910  0.00  0.00    +0.000 OA
ATOM     29  H   UNL     1     -13.595  54.998  51.762  0.00  0.00    +0.000 HD
ENDBRANCH   3  28
BRANCH   5  30
ATOM     30  C   UNL     1     -10.708  54.158  48.335  0.00  0.00    +0.000 C 
BRANCH  30  31
ATOM     31  C   UNL     1     -11.197  53.426  47.118  0.00  0.00    +0.000 A 
ATOM     32  C   UNL     1     -10.728  53.777  45.847  0.00  0.00    +0.000 A 
ATOM     33  C   UNL     1     -12.024  52.300  47.253  0.00  0.00    +0.000 A 
ATOM     34  C   UNL     1     -11.118  53.046  44.726  0.00  0.00    +0.000 A 
ATOM     35  C   UNL     1     -12.415  51.571  46.129  0.00  0.00    +0.000 A 
ATOM     36  C   UNL     1     -11.971  51.952  44.865  0.00  0.00    +0.000 A 
ENDBRANCH  30  31
ENDBRANCH   5  30
TORSDOF 5
ENDMDL
MODEL 3
REMARK VINA RESULT:      -8.8      3.456      7.690
REMARK  Name = 352867
REMARK  5 active torsions:
REMARK  status: ('A' for Active; 'I' for Inactive)
REMARK    1  A    between atoms: C_6  and  C_10
REMARK    2  A    between atoms: C_14  and  O_18
REMARK    3  A    between atoms: C_15  and  O_20
REMARK    4  A    between atoms: N_17  and  C_22
REMARK    5  A    between atoms: C_22  and  C_25
REMARK                            x       y       z     vdW  Elec       q    Type
REMARK                         _______ _______ _______ _____ _____    ______ ____
ROOT
ATOM      1  C   UNL     1     -11.949  54.571  50.190  0.00  0.00    +0.000 A 
ATOM      2  C   UNL     1     -10.642  54.737  49.498  0.00  0.00    +0.000 A 
ATOM      3  C   UNL     1     -12.113  53.418  50.867  0.00  0.00    +0.000 A 
ATOM      4  O   UNL     1     -10.566  55.274  48.400  0.00  0.00    +0.000 OA
ATOM      5  N   UNL     1      -9.555  54.321  50.294  0.00  0.00    +0.000 N 
ATOM      6  C   UNL     1     -11.023  52.440  50.806  0.00  0.00    +0.000 A 
ATOM      7  C   UNL     1      -9.710  52.928  50.629  0.00  0.00    +0.000 A 
ATOM      8  C   UNL     1     -11.239  51.066  50.861  0.00  0.00    +0.000 A 
ATOM      9  N   UNL     1      -8.646  52.113  50.490  0.00  0.00    +0.000 NA
ATOM     10  C   UNL     1     -10.159  50.218  50.658  0.00  0.00    +0.000 A 
ATOM     11  C   UNL     1      -8.900  50.781  50.484  0.00  0.00    +0.000 A 
ENDROOT
BRANCH   1  17
ATOM     12  S   UNL     1     -14.221  56.863  52.244  0.00  0.00    +0.000 S 
ATOM     13  O   UNL     1     -15.577  56.417  52.475  0.00  0.00    +0.000 OA
ATOM     14  O   UNL     1     -13.424  57.384  53.335  0.00  0.00    +0.000 OA
ATOM     15  N   UNL     1     -13.417  55.639  51.591  0.00  0.00    +0.000 N 
ATOM     16  C   UNL     1     -14.308  58.133  51.050  0.00  0.00    +0.000 A 
ATOM     17  C   UNL     1     -12.784  55.766  50.466  0.00  0.00    +0.000 C 
ATOM     18  C   UNL     1     -13.562  58.004  49.879  0.00  0.00    +0.000 A 
ATOM     19  C   UNL     1     -15.135  59.226  51.309  0.00  0.00    +0.000 A 
ATOM     20  N   UNL     1     -12.786  56.863  49.639  0.00  0.00    +0.000 N 
ATOM     21  C   UNL     1     -13.673  59.026  48.922  0.00  0.00    +0.000 A 
ATOM     22  C   UNL     1     -15.233  60.231  50.362  0.00  0.00    +0.000 A 
ATOM     23  C   UNL     1     -14.506  60.126  49.180  0.00  0.00    +0.000 A 
ATOM     24  H   UNL     1     -13.404  54.770  52.054  0.00  0.00    +0.000 HD
ATOM     25  H   UNL     1     -12.216  56.846  48.836  0.00  0.00    +0.000 HD
BRANCH  23  26
ATOM     26  O   UNL     1     -14.653  61.138  48.279  0.00  0.00    +0.000 OA
ATOM     27  H   UNL     1     -14.343  61.032  47.401  0.00  0.00    +0.000 HD
ENDBRANCH  23  26
ENDBRANCH   1  17
BRANCH   3  28
ATOM     28  O   UNL     1     -13.127  53.136  51.753  0.00  0.00    +0.000 OA
ATOM     29  H   UNL     1     -13.585  53.834  52.179  0.00  0.00    +0.000 HD
ENDBRANCH   3  28
BRANCH   5  30
ATOM     30  C   UNL     1      -9.417  55.207  51.471  0.00  0.00    +0.000 C 
BRANCH  30  31
ATOM     31  C   UNL     1      -8.191  55.041  52.322  0.00  0.00    +0.000 A 
ATOM     32  C   UNL     1      -6.925  54.959  51.729  0.00  0.00    +0.000 A 
ATOM     33  C   UNL     1      -8.287  55.101  53.722  0.00  0.00    +0.000 A 
ATOM     34  C   UNL     1      -5.781  54.887  52.523  0.00  0.00    +0.000 A 
ATOM     35  C   UNL     1      -7.140  55.026  54.513  0.00  0.00    +0.000 A 
ATOM     36  C   UNL     1      -5.888  54.908  53.912  0.00  0.00    +0.000 A 
ENDBRANCH  30  31
ENDBRANCH   5  30
TORSDOF 5
ENDMDL
MODEL 4
REMARK VINA RESULT:      -8.6      3.256      6.711
REMARK  Name = 352867
REMARK  5 active torsions:
REMARK  status: ('A' for Active; 'I' for Inactive)
REMARK    1  A    between atoms: C_6  and  C_10
REMARK    2  A    between atoms: C_14  and  O_18
REMARK    3  A    between atoms: C_15  and  O_20
REMARK    4  A    between atoms: N_17  and  C_22
REMARK    5  A    between atoms: C_22  and  C_25
REMARK                            x       y       z     vdW  Elec       q    Type
REMARK                         _______ _______ _______ _____ _____    ______ ____
ROOT
ATOM      1  C   UNL     1     -11.415  54.962  50.714  0.00  0.00    +0.000 A 
ATOM      2  C   UNL     1     -11.873  53.549  50.614  0.00  0.00    +0.000 A 
ATOM      3  C   UNL     1     -10.156  55.202  50.299  0.00  0.00    +0.000 A 
ATOM      4  O   UNL     1     -12.586  53.048  51.475  0.00  0.00    +0.000 OA
ATOM      5  N   UNL     1     -11.491  52.944  49.399  0.00  0.00    +0.000 N 
ATOM      6  C   UNL     1      -9.364  54.053  49.849  0.00  0.00    +0.000 A 
ATOM      7  C   UNL     1     -10.054  52.957  49.287  0.00  0.00    +0.000 A 
ATOM      8  C   UNL     1      -7.983  53.982  50.006  0.00  0.00    +0.000 A 
ATOM      9  N   UNL     1      -9.430  51.824  48.907  0.00  0.00    +0.000 NA
ATOM     10  C   UNL     1      -7.340  52.798  49.675  0.00  0.00    +0.000 A 
ATOM     11  C   UNL     1      -8.094  51.764  49.133  0.00  0.00    +0.000 A 
ENDROOT
BRANCH   1  17
ATOM     12  S   UNL     1     -14.204  56.993  52.367  0.00  0.00    +0.000 S 
ATOM     13  O   UNL     1     -15.513  56.383  52.439  0.00  0.00    +0.000 OA
ATOM     14  O   UNL     1     -13.629  57.636  53.529  0.00  0.00    +0.000 OA
ATOM     15  N   UNL     1     -13.176  55.866  51.871  0.00  0.00    +0.000 N 
ATOM     16  C   UNL     1     -14.287  58.214  51.122  0.00  0.00    +0.000 A 
ATOM     17  C   UNL     1     -12.420  56.047  50.832  0.00  0.00    +0.000 C 
ATOM     18  C   UNL     1     -13.383  58.153  50.062  0.00  0.00    +0.000 A 
ATOM     19  C   UNL     1     -15.270  59.198  51.229  0.00  0.00    +0.000 A 
ATOM     20  N   UNL     1     -12.448  57.115  49.969  0.00  0.00    +0.000 N 
ATOM     21  C   UNL     1     -13.491  59.130  49.059  0.00  0.00    +0.000 A 
ATOM     22  C   UNL     1     -15.365  60.160  50.237  0.00  0.00    +0.000 A 
ATOM     23  C   UNL     1     -14.481  60.121  49.164  0.00  0.00    +0.000 A 
ATOM     24  H   UNL     1     -13.118  55.017  52.366  0.00  0.00    +0.000 HD
ATOM     25  H   UNL     1     -11.778  57.152  49.248  0.00  0.00    +0.000 HD
BRANCH  23  26
ATOM     26  O   UNL     1     -14.630  61.084  48.212  0.00  0.00    +0.000 OA
ATOM     27  H   UNL     1     -15.412  61.117  47.696  0.00  0.00    +0.000 HD
ENDBRANCH  23  26
ENDBRANCH   1  17
BRANCH   3  28
ATOM     28  O   UNL     1      -9.595  56.440  50.088  0.00  0.00    +0.000 OA
ATOM     29  H   UNL     1      -8.708  56.509  49.792  0.00  0.00    +0.000 HD
ENDBRANCH   3  28
BRANCH   5  30
ATOM     30  C   UNL     1     -12.185  53.594  48.266  0.00  0.00    +0.000 C 
BRANCH  30  31
ATOM     31  C   UNL     1     -11.968  53.014  46.898  0.00  0.00    +0.000 A 
ATOM     32  C   UNL     1     -11.399  53.793  45.882  0.00  0.00    +0.000 A 
ATOM     33  C   UNL     1     -12.207  51.651  46.659  0.00  0.00    +0.000 A 
ATOM     34  C   UNL     1     -11.122  53.231  44.636  0.00  0.00    +0.000 A 
ATOM     35  C   UNL     1     -11.930  51.092  45.411  0.00  0.00    +0.000 A 
ATOM     36  C   UNL     1     -11.398  51.886  44.397  0.00  0.00    +0.000 A 
ENDBRANCH  30  31
ENDBRANCH   5  30
TORSDOF 5
ENDMDL
MODEL 5
REMARK VINA RESULT:      -8.6      2.098      4.799
REMARK  Name = 352867
REMARK  5 active torsions:
REMARK  status: ('A' for Active; 'I' for Inactive)
REMARK    1  A    between atoms: C_6  and  C_10
REMARK    2  A    between atoms: C_14  and  O_18
REMARK    3  A    between atoms: C_15  and  O_20
REMARK    4  A    between atoms: N_17  and  C_22
REMARK    5  A    between atoms: C_22  and  C_25
REMARK                            x       y       z     vdW  Elec       q    Type
REMARK                         _______ _______ _______ _____ _____    ______ ____
ROOT
ATOM      1  C   UNL     1      -9.381  53.615  49.562  0.00  0.00    +0.000 A 
ATOM      2  C   UNL     1     -10.861  53.462  49.549  0.00  0.00    +0.000 A 
ATOM      3  C   UNL     1      -8.809  53.894  48.374  0.00  0.00    +0.000 A 
ATOM      4  O   UNL     1     -11.420  52.619  50.240  0.00  0.00    +0.000 OA
ATOM      5  N   UNL     1     -11.497  54.448  48.767  0.00  0.00    +0.000 N 
ATOM      6  C   UNL     1      -9.688  53.963  47.203  0.00  0.00    +0.000 A 
ATOM      7  C   UNL     1     -11.027  54.360  47.407  0.00  0.00    +0.000 A 
ATOM      8  C   UNL     1      -9.270  53.604  45.925  0.00  0.00    +0.000 A 
ATOM      9  N   UNL     1     -11.935  54.388  46.411  0.00  0.00    +0.000 NA
ATOM     10  C   UNL     1     -10.211  53.572  44.905  0.00  0.00    +0.000 A 
ATOM     11  C   UNL     1     -11.511  53.972  45.192  0.00  0.00    +0.000 A 
ENDROOT
BRANCH   1  17
ATOM     12  S   UNL     1      -9.042  53.980  53.354  0.00  0.00    +0.000 S 
ATOM     13  O   UNL     1      -9.661  55.134  53.967  0.00  0.00    +0.000 OA
ATOM     14  O   UNL     1      -9.223  52.662  53.926  0.00  0.00    +0.000 OA
ATOM     15  N   UNL     1      -9.532  53.925  51.829  0.00  0.00    +0.000 N 
ATOM     16  C   UNL     1      -7.322  54.278  53.345  0.00  0.00    +0.000 A 
ATOM     17  C   UNL     1      -8.687  53.881  50.846  0.00  0.00    +0.000 C 
ATOM     18  C   UNL     1      -6.640  54.227  52.130  0.00  0.00    +0.000 A 
ATOM     19  C   UNL     1      -6.698  54.571  54.557  0.00  0.00    +0.000 A 
ATOM     20  N   UNL     1      -7.319  53.982  50.930  0.00  0.00    +0.000 N 
ATOM     21  C   UNL     1      -5.262  54.500  52.146  0.00  0.00    +0.000 A 
ATOM     22  C   UNL     1      -5.338  54.834  54.564  0.00  0.00    +0.000 A 
ATOM     23  C   UNL     1      -4.632  54.798  53.366  0.00  0.00    +0.000 A 
ATOM     24  H   UNL     1     -10.497  53.924  51.633  0.00  0.00    +0.000 HD
ATOM     25  H   UNL     1      -6.790  53.877  50.106  0.00  0.00    +0.000 HD
BRANCH  23  26
ATOM     26  O   UNL     1      -3.300  55.077  53.431  0.00  0.00    +0.000 OA
ATOM     27  H   UNL     1      -2.727  54.521  53.921  0.00  0.00    +0.000 HD
ENDBRANCH  23  26
ENDBRANCH   1  17
BRANCH   3  28
ATOM     28  O   UNL     1      -7.507  54.295  48.175  0.00  0.00    +0.000 OA
ATOM     29  H   UNL     1      -6.925  54.372  48.905  0.00  0.00    +0.000 HD
ENDBRANCH   3  28
BRANCH   5  30
ATOM     30  C   UNL     1     -11.312  55.782  49.378  0.00  0.00    +0.000 C 
BRANCH  30  31
ATOM     31  C   UNL     1     -12.494  56.395  50.073  0.00  0.00    +0.000 A 
ATOM     32  C   UNL     1     -12.792  56.050  51.397  0.00  0.00    +0.000 A 
ATOM     33  C   UNL     1     -13.230  57.416  49.451  0.00  0.00    +0.000 A 
ATOM     34  C   UNL     1     -13.840  56.680  52.068  0.00  0.00    +0.000 A 
ATOM     35  C   UNL     1     -14.279  58.042  50.124  0.00  0.00    +0.000 A 
ATOM     36  C   UNL     1     -14.590  57.666  51.429  0.00  0.00    +0.000 A 
ENDBRANCH  30  31
ENDBRANCH   5  30
TORSDOF 5
ENDMDL
MODEL 6
REMARK VINA RESULT:      -8.5      2.879      6.793
REMARK  Name = 352867
REMARK  5 active torsions:
REMARK  status: ('A' for Active; 'I' for Inactive)
REMARK    1  A    between atoms: C_6  and  C_10
REMARK    2  A    between atoms: C_14  and  O_18
REMARK    3  A    between atoms: C_15  and  O_20
REMARK    4  A    between atoms: N_17  and  C_22
REMARK    5  A    between atoms: C_22  and  C_25
REMARK                            x       y       z     vdW  Elec       q    Type
REMARK                         _______ _______ _______ _____ _____    ______ ____
ROOT
ATOM      1  C   UNL     1     -12.439  54.894  48.828  0.00  0.00    +0.000 A 
ATOM      2  C   UNL     1     -12.267  54.310  50.186  0.00  0.00    +0.000 A 
ATOM      3  C   UNL     1     -13.131  56.049  48.768  0.00  0.00    +0.000 A 
ATOM      4  O   UNL     1     -12.315  53.100  50.370  0.00  0.00    +0.000 OA
ATOM      5  N   UNL     1     -11.942  55.284  51.153  0.00  0.00    +0.000 N 
ATOM      6  C   UNL     1     -13.680  56.571  50.023  0.00  0.00    +0.000 A 
ATOM      7  C   UNL     1     -12.994  56.267  51.219  0.00  0.00    +0.000 A 
ATOM      8  C   UNL     1     -14.864  57.299  50.082  0.00  0.00    +0.000 A 
ATOM      9  N   UNL     1     -13.450  56.637  52.432  0.00  0.00    +0.000 NA
ATOM     10  C   UNL     1     -15.374  57.633  51.330  0.00  0.00    +0.000 A 
ATOM     11  C   UNL     1     -14.639  57.290  52.458  0.00  0.00    +0.000 A 
ENDROOT
BRANCH   1  17
ATOM     12  S   UNL     1      -9.154  54.648  46.883  0.00  0.00    +0.000 S 
ATOM     13  O   UNL     1      -8.711  55.831  46.181  0.00  0.00    +0.000 OA
ATOM     14  O   UNL     1      -8.231  53.892  47.703  0.00  0.00    +0.000 OA
ATOM     15  N   UNL     1     -10.394  55.074  47.806  0.00  0.00    +0.000 N 
ATOM     16  C   UNL     1      -9.754  53.541  45.673  0.00  0.00    +0.000 A 
ATOM     17  C   UNL     1     -11.537  54.465  47.731  0.00  0.00    +0.000 C 
ATOM     18  C   UNL     1     -11.060  53.066  45.789  0.00  0.00    +0.000 A 
ATOM     19  C   UNL     1      -8.905  53.188  44.625  0.00  0.00    +0.000 A 
ATOM     20  N   UNL     1     -11.894  53.491  46.830  0.00  0.00    +0.000 N 
ATOM     21  C   UNL     1     -11.527  52.200  44.787  0.00  0.00    +0.000 A 
ATOM     22  C   UNL     1      -9.373  52.329  43.644  0.00  0.00    +0.000 A 
ATOM     23  C   UNL     1     -10.674  51.844  43.730  0.00  0.00    +0.000 A 
ATOM     24  H   UNL     1     -10.286  55.816  48.445  0.00  0.00    +0.000 HD
ATOM     25  H   UNL     1     -12.781  53.073  46.920  0.00  0.00    +0.000 HD
BRANCH  23  26
ATOM     26  O   UNL     1     -11.085  51.014  42.730  0.00  0.00    +0.000 OA
ATOM     27  H   UNL     1     -11.568  51.358  42.004  0.00  0.00    +0.000 HD
ENDBRANCH  23  26
ENDBRANCH   1  17
BRANCH   3  28
ATOM     28  O   UNL     1     -13.228  56.880  47.676  0.00  0.00    +0.000 OA
ATOM     29  H   UNL     1     -13.001  56.562  46.824  0.00  0.00    +0.000 HD
ENDBRANCH   3  28
BRANCH   5  30
ATOM     30  C   UNL     1     -10.607  55.855  50.872  0.00  0.00    +0.000 C 
BRANCH  30  31
ATOM     31  C   UNL     1      -9.460  55.384  51.720  0.00  0.00    +0.000 A 
ATOM     32  C   UNL     1      -8.160  55.837  51.465  0.00  0.00    +0.000 A 
ATOM     33  C   UNL     1      -9.697  54.595  52.856  0.00  0.00    +0.000 A 
ATOM     34  C   UNL     1      -7.109  55.465  52.303  0.00  0.00    +0.000 A 
ATOM     35  C   UNL     1      -8.643  54.222  53.691  0.00  0.00    +0.000 A 
ATOM     36  C   UNL     1      -7.347  54.649  53.407  0.00  0.00    +0.000 A 
ENDBRANCH  30  31
ENDBRANCH   5  30
TORSDOF 5
ENDMDL
MODEL 7
REMARK VINA RESULT:      -8.5      3.407      7.374
REMARK  Name = 352867
REMARK  5 active torsions:
REMARK  status: ('A' for Active; 'I' for Inactive)
REMARK    1  A    between atoms: C_6  and  C_10
REMARK    2  A    between atoms: C_14  and  O_18
REMARK    3  A    between atoms: C_15  and  O_20
REMARK    4  A    between atoms: N_17  and  C_22
REMARK    5  A    between atoms: C_22  and  C_25
REMARK                            x       y       z     vdW  Elec       q    Type
REMARK                         _______ _______ _______ _____ _____    ______ ____
ROOT
ATOM      1  C   UNL     1     -11.547  54.187  50.330  0.00  0.00    +0.000 A 
ATOM      2  C   UNL     1     -10.213  54.277  49.678  0.00  0.00    +0.000 A 
ATOM      3  C   UNL     1     -11.752  53.102  51.102  0.00  0.00    +0.000 A 
ATOM      4  O   UNL     1     -10.089  54.711  48.539  0.00  0.00    +0.000 OA
ATOM      5  N   UNL     1      -9.163  53.925  50.550  0.00  0.00    +0.000 N 
ATOM      6  C   UNL     1     -10.672  52.112  51.173  0.00  0.00    +0.000 A 
ATOM      7  C   UNL     1      -9.347  52.570  51.003  0.00  0.00    +0.000 A 
ATOM      8  C   UNL     1     -10.908  50.751  51.343  0.00  0.00    +0.000 A 
ATOM      9  N   UNL     1      -8.289  51.736  50.980  0.00  0.00    +0.000 NA
ATOM     10  C   UNL     1      -9.832  49.878  51.260  0.00  0.00    +0.000 A 
ATOM     11  C   UNL     1      -8.560  50.411  51.085  0.00  0.00    +0.000 A 
ENDROOT
BRANCH   1  17
ATOM     12  S   UNL     1     -13.412  57.307  49.138  0.00  0.00    +0.000 S 
ATOM     13  O   UNL     1     -12.613  58.437  48.721  0.00  0.00    +0.000 OA
ATOM     14  O   UNL     1     -14.522  56.854  48.326  0.00  0.00    +0.000 OA
ATOM     15  N   UNL     1     -12.418  56.066  49.346  0.00  0.00    +0.000 N 
ATOM     16  C   UNL     1     -14.081  57.714  50.699  0.00  0.00    +0.000 A 
ATOM     17  C   UNL     1     -12.377  55.410  50.464  0.00  0.00    +0.000 C 
ATOM     18  C   UNL     1     -13.842  56.858  51.773  0.00  0.00    +0.000 A 
ATOM     19  C   UNL     1     -14.819  58.892  50.812  0.00  0.00    +0.000 A 
ATOM     20  N   UNL     1     -13.050  55.713  51.623  0.00  0.00    +0.000 N 
ATOM     21  C   UNL     1     -14.366  57.224  53.024  0.00  0.00    +0.000 A 
ATOM     22  C   UNL     1     -15.336  59.241  52.049  0.00  0.00    +0.000 A 
ATOM     23  C   UNL     1     -15.108  58.411  53.141  0.00  0.00    +0.000 A 
ATOM     24  H   UNL     1     -11.825  55.796  48.608  0.00  0.00    +0.000 HD
ATOM     25  H   UNL     1     -12.969  55.096  52.386  0.00  0.00    +0.000 HD
BRANCH  23  26
ATOM     26  O   UNL     1     -15.629  58.811  54.335  0.00  0.00    +0.000 OA
ATOM     27  H   UNL     1     -15.633  59.720  54.563  0.00  0.00    +0.000 HD
ENDBRANCH  23  26
ENDBRANCH   1  17
BRANCH   3  28
ATOM     28  O   UNL     1     -12.802  52.911  51.971  0.00  0.00    +0.000 OA
ATOM     29  H   UNL     1     -13.266  53.649  52.313  0.00  0.00    +0.000 HD
ENDBRANCH   3  28
BRANCH   5  30
ATOM     30  C   UNL     1      -9.058  54.914  51.646  0.00  0.00    +0.000 C 
BRANCH  30  31
ATOM     31  C   UNL     1      -7.804  54.899  52.473  0.00  0.00    +0.000 A 
ATOM     32  C   UNL     1      -7.880  54.883  53.871  0.00  0.00    +0.000 A 
ATOM     33  C   UNL     1      -6.550  54.765  51.856  0.00  0.00    +0.000 A 
ATOM     34  C   UNL     1      -6.719  54.786  54.637  0.00  0.00    +0.000 A 
ATOM     35  C   UNL     1      -5.390  54.671  52.626  0.00  0.00    +0.000 A 
ATOM     36  C   UNL     1      -5.475  54.693  54.016  0.00  0.00    +0.000 A 
ENDBRANCH  30  31
ENDBRANCH   5  30
TORSDOF 5
ENDMDL
MODEL 8
REMARK VINA RESULT:      -8.5      2.877      6.585
REMARK  Name = 352867
REMARK  5 active torsions:
REMARK  status: ('A' for Active; 'I' for Inactive)
REMARK    1  A    between atoms: C_6  and  C_10
REMARK    2  A    between atoms: C_14  and  O_18
REMARK    3  A    between atoms: C_15  and  O_20
REMARK    4  A    between atoms: N_17  and  C_22
REMARK    5  A    between atoms: C_22  and  C_25
REMARK                            x       y       z     vdW  Elec       q    Type
REMARK                         _______ _______ _______ _____ _____    ______ ____
ROOT
ATOM      1  C   UNL     1     -11.021  54.090  51.620  0.00  0.00    +0.000 A 
ATOM      2  C   UNL     1     -10.683  53.139  50.527  0.00  0.00    +0.000 A 
ATOM      3  C   UNL     1     -10.222  54.046  52.705  0.00  0.00    +0.000 A 
ATOM      4  O   UNL     1     -11.557  52.576  49.879  0.00  0.00    +0.000 OA
ATOM      5  N   UNL     1      -9.296  53.076  50.278  0.00  0.00    +0.000 N 
ATOM      6  C   UNL     1      -9.153  53.043  52.714  0.00  0.00    +0.000 A 
ATOM      7  C   UNL     1      -8.613  52.645  51.472  0.00  0.00    +0.000 A 
ATOM      8  C   UNL     1      -8.697  52.439  53.882  0.00  0.00    +0.000 A 
ATOM      9  N   UNL     1      -7.677  51.681  51.363  0.00  0.00    +0.000 NA
ATOM     10  C   UNL     1      -7.779  51.403  53.776  0.00  0.00    +0.000 A 
ATOM     11  C   UNL     1      -7.302  51.069  52.514  0.00  0.00    +0.000 A 
ENDROOT
BRANCH   1  17
ATOM     12  S   UNL     1     -12.792  56.673  49.424  0.00  0.00    +0.000 S 
ATOM     13  O   UNL     1     -11.968  57.673  48.783  0.00  0.00    +0.000 OA
ATOM     14  O   UNL     1     -13.808  55.967  48.673  0.00  0.00    +0.000 OA
ATOM     15  N   UNL     1     -11.809  55.582  50.067  0.00  0.00    +0.000 N 
ATOM     16  C   UNL     1     -13.622  57.473  50.736  0.00  0.00    +0.000 A 
ATOM     17  C   UNL     1     -11.875  55.267  51.324  0.00  0.00    +0.000 C 
ATOM     18  C   UNL     1     -13.483  56.963  52.026  0.00  0.00    +0.000 A 
ATOM     19  C   UNL     1     -14.382  58.605  50.442  0.00  0.00    +0.000 A 
ATOM     20  N   UNL     1     -12.666  55.855  52.281  0.00  0.00    +0.000 N 
ATOM     21  C   UNL     1     -14.137  57.642  53.068  0.00  0.00    +0.000 A 
ATOM     22  C   UNL     1     -15.027  59.265  51.475  0.00  0.00    +0.000 A 
ATOM     23  C   UNL     1     -14.901  58.783  52.774  0.00  0.00    +0.000 A 
ATOM     24  H   UNL     1     -11.140  55.140  49.495  0.00  0.00    +0.000 HD
ATOM     25  H   UNL     1     -12.657  55.479  53.192  0.00  0.00    +0.000 HD
BRANCH  23  26
ATOM     26  O   UNL     1     -15.547  59.480  53.751  0.00  0.00    +0.000 OA
ATOM     27  H   UNL     1     -16.151  60.159  53.522  0.00  0.00    +0.000 HD
ENDBRANCH  23  26
ENDBRANCH   1  17
BRANCH   3  28
ATOM     28  O   UNL     1     -10.198  54.963  53.730  0.00  0.00    +0.000 OA
ATOM     29  H   UNL     1     -10.501  55.838  53.584  0.00  0.00    +0.000 HD
ENDBRANCH   3  28
BRANCH   5  30
ATOM     30  C   UNL     1      -8.814  54.369  49.747  0.00  0.00    +0.000 C 
BRANCH  30  31
ATOM     31  C   UNL     1      -8.520  54.447  48.276  0.00  0.00    +0.000 A 
ATOM     32  C   UNL     1      -9.477  54.957  47.390  0.00  0.00    +0.000 A 
ATOM     33  C   UNL     1      -7.239  54.136  47.792  0.00  0.00    +0.000 A 
ATOM     34  C   UNL     1      -9.174  55.105  46.037  0.00  0.00    +0.000 A 
ATOM     35  C   UNL     1      -6.940  54.284  46.438  0.00  0.00    +0.000 A 
ATOM     36  C   UNL     1      -7.912  54.758  45.559  0.00  0.00    +0.000 A 
ENDBRANCH  30  31
ENDBRANCH   5  30
TORSDOF 5
ENDMDL
MODEL 9
REMARK VINA RESULT:      -8.4      2.948      6.635
REMARK  Name = 352867
REMARK  5 active torsions:
REMARK  status: ('A' for Active; 'I' for Inactive)
REMARK    1  A    between atoms: C_6  and  C_10
REMARK    2  A    between atoms: C_14  and  O_18
REMARK    3  A    between atoms: C_15  and  O_20
REMARK    4  A    between atoms: N_17  and  C_22
REMARK    5  A    between atoms: C_22  and  C_25
REMARK                            x       y       z     vdW  Elec       q    Type
REMARK                         _______ _______ _______ _____ _____    ______ ____
ROOT
ATOM      1  C   UNL     1     -10.030  53.932  51.923  0.00  0.00    +0.000 A 
ATOM      2  C   UNL     1      -9.440  53.011  50.914  0.00  0.00    +0.000 A 
ATOM      3  C   UNL     1      -9.306  54.115  53.045  0.00  0.00    +0.000 A 
ATOM      4  O   UNL     1     -10.142  52.244  50.265  0.00  0.00    +0.000 OA
ATOM      5  N   UNL     1      -8.058  53.221  50.736  0.00  0.00    +0.000 N 
ATOM      6  C   UNL     1      -8.058  53.356  53.173  0.00  0.00    +0.000 A 
ATOM      7  C   UNL     1      -7.375  53.008  51.988  0.00  0.00    +0.000 A 
ATOM      8  C   UNL     1      -7.561  52.925  54.399  0.00  0.00    +0.000 A 
ATOM      9  N   UNL     1      -6.259  52.253  51.989  0.00  0.00    +0.000 NA
ATOM     10  C   UNL     1      -6.447  52.097  54.407  0.00  0.00    +0.000 A 
ATOM     11  C   UNL     1      -5.837  51.797  53.195  0.00  0.00    +0.000 A 
ENDROOT
BRANCH   1  17
ATOM     12  S   UNL     1     -12.363  55.741  49.490  0.00  0.00    +0.000 S 
ATOM     13  O   UNL     1     -11.765  56.702  48.591  0.00  0.00    +0.000 OA
ATOM     14  O   UNL     1     -13.304  54.759  48.995  0.00  0.00    +0.000 OA
ATOM     15  N   UNL     1     -11.168  54.954  50.215  0.00  0.00    +0.000 N 
ATOM     16  C   UNL     1     -13.209  56.657  50.713  0.00  0.00    +0.000 A 
ATOM     17  C   UNL     1     -11.085  54.890  51.508  0.00  0.00    +0.000 C 
ATOM     18  C   UNL     1     -12.890  56.439  52.052  0.00  0.00    +0.000 A 
ATOM     19  C   UNL     1     -14.164  57.584  50.298  0.00  0.00    +0.000 A 
ATOM     20  N   UNL     1     -11.886  55.535  52.419  0.00  0.00    +0.000 N 
ATOM     21  C   UNL     1     -13.564  57.210  53.014  0.00  0.00    +0.000 A 
ATOM     22  C   UNL     1     -14.827  58.336  51.254  0.00  0.00    +0.000 A 
ATOM     23  C   UNL     1     -14.525  58.146  52.598  0.00  0.00    +0.000 A 
ATOM     24  H   UNL     1     -10.482  54.510  49.666  0.00  0.00    +0.000 HD
ATOM     25  H   UNL     1     -11.745  55.354  53.377  0.00  0.00    +0.000 HD
BRANCH  23  26
ATOM     26  O   UNL     1     -15.198  58.922  53.493  0.00  0.00    +0.000 OA
ATOM     27  H   UNL     1     -16.124  58.819  53.601  0.00  0.00    +0.000 HD
ENDBRANCH  23  26
ENDBRANCH   1  17
BRANCH   3  28
ATOM     28  O   UNL     1      -9.529  55.075  54.006  0.00  0.00    +0.000 OA
ATOM     29  H   UNL     1     -10.388  55.432  54.120  0.00  0.00    +0.000 HD
ENDBRANCH   3  28
BRANCH   5  30
ATOM     30  C   UNL     1      -7.816  54.554  50.142  0.00  0.00    +0.000 C 
BRANCH  30  31
ATOM     31  C   UNL     1      -7.691  54.633  48.648  0.00  0.00    +0.000 A 
ATOM     32  C   UNL     1      -6.684  53.921  47.985  0.00  0.00    +0.000 A 
ATOM     33  C   UNL     1      -8.660  55.310  47.890  0.00  0.00    +0.000 A 
ATOM     34  C   UNL     1      -6.618  53.928  46.592  0.00  0.00    +0.000 A 
ATOM     35  C   UNL     1      -8.590  55.317  46.497  0.00  0.00    +0.000 A 
ATOM     36  C   UNL     1      -7.562  54.636  45.849  0.00  0.00    +0.000 A 
ENDBRANCH  30  31
ENDBRANCH   5  30
TORSDOF 5
ENDMDL
