MODEL 1
REMARK VINA RESULT:      -7.2      0.000      0.000
REMARK  Name = 353080
REMARK  13 active torsions:
REMARK  status: ('A' for Active; 'I' for Inactive)
REMARK    1  A    between atoms: C_6  and  C_10
REMARK    2  A    between atoms: C_12  and  N_16
REMARK    3  A    between atoms: C_14  and  O_19
REMARK    4  A    between atoms: N_16  and  S_21
REMARK    5  A    between atoms: N_18  and  C_23
REMARK    6  A    between atoms: S_21  and  C_27
REMARK    7  A    between atoms: C_23  and  C_29
REMARK    8  A    between atoms: C_27  and  C_31
REMARK    9  A    between atoms: C_29  and  C_33
REMARK   10  A    between atoms: C_31  and  C_34
REMARK   11  A    between atoms: C_33  and  C_35
REMARK   12  A    between atoms: C_33  and  C_36
REMARK   13  A    between atoms: C_34  and  C_37
REMARK                            x       y       z     vdW  Elec       q    Type
REMARK                         _______ _______ _______ _____ _____    ______ ____
ROOT
ATOM      1  S   UNL     1     -10.957  53.097  52.036  0.00  0.00    +0.000 S 
ATOM      2  O   UNL     1     -10.399  53.519  53.301  0.00  0.00    +0.000 OA
ATOM      3  O   UNL     1     -11.991  52.090  51.949  0.00  0.00    +0.000 OA
ATOM      4  N   UNL     1      -9.718  52.586  51.074  0.00  0.00    +0.000 N 
ATOM      5  C   UNL     1     -11.503  54.513  51.179  0.00  0.00    +0.000 A 
ATOM      6  C   UNL     1      -8.909  53.475  50.372  0.00  0.00    +0.000 C 
ATOM      7  C   UNL     1     -10.604  55.102  50.292  0.00  0.00    +0.000 A 
ATOM      8  C   UNL     1     -12.798  55.004  51.369  0.00  0.00    +0.000 A 
ATOM      9  N   UNL     1      -9.291  54.673  50.059  0.00  0.00    +0.000 N 
ATOM     10  C   UNL     1     -11.033  56.214  49.565  0.00  0.00    +0.000 A 
ATOM     11  C   UNL     1     -13.190  56.123  50.641  0.00  0.00    +0.000 A 
ATOM     12  C   UNL     1     -12.316  56.726  49.740  0.00  0.00    +0.000 A 
ATOM     13  H   UNL     1      -9.547  51.620  50.993  0.00  0.00    +0.000 HD
ATOM     14  H   UNL     1      -8.646  55.294  49.652  0.00  0.00    +0.000 HD
ENDROOT
BRANCH   6  15
ATOM     15  C   UNL     1      -7.557  52.987  50.017  0.00  0.00    +0.000 A 
ATOM     16  C   UNL     1      -6.338  53.565  50.656  0.00  0.00    +0.000 A 
ATOM     17  C   UNL     1      -7.438  52.032  49.078  0.00  0.00    +0.000 A 
ATOM     18  O   UNL     1      -6.476  54.495  51.452  0.00  0.00    +0.000 OA
ATOM     19  N   UNL     1      -5.108  53.011  50.340  0.00  0.00    +0.000 N 
ATOM     20  C   UNL     1      -6.113  51.590  48.645  0.00  0.00    +0.000 A 
ATOM     21  C   UNL     1      -4.968  52.073  49.284  0.00  0.00    +0.000 A 
ATOM     22  C   UNL     1      -5.950  50.701  47.574  0.00  0.00    +0.000 A 
ATOM     23  N   UNL     1      -3.723  51.699  48.905  0.00  0.00    +0.000 NA
ATOM     24  C   UNL     1      -4.675  50.328  47.169  0.00  0.00    +0.000 A 
ATOM     25  C   UNL     1      -3.602  50.850  47.862  0.00  0.00    +0.000 A 
BRANCH  17  26
ATOM     26  O   UNL     1      -8.500  51.416  48.434  0.00  0.00    +0.000 OA
ATOM     27  H   UNL     1      -9.068  50.842  48.909  0.00  0.00    +0.000 HD
ENDBRANCH  17  26
BRANCH  19  28
ATOM     28  C   UNL     1      -3.900  53.568  50.955  0.00  0.00    +0.000 C 
BRANCH  28  29
ATOM     29  C   UNL     1      -3.300  52.728  52.097  0.00  0.00    +0.000 C 
BRANCH  29  30
ATOM     30  C   UNL     1      -3.630  53.190  53.528  0.00  0.00    +0.000 C 
ATOM     31  C   UNL     1      -3.629  54.712  53.663  0.00  0.00    +0.000 C 
ATOM     32  C   UNL     1      -5.004  52.639  53.923  0.00  0.00    +0.000 C 
ENDBRANCH  29  30
ENDBRANCH  28  29
ENDBRANCH  19  28
ENDBRANCH   6  15
BRANCH  11  33
ATOM     33  N   UNL     1     -14.454  56.737  50.828  0.00  0.00    +0.000 N 
ATOM     34  H   UNL     1     -15.148  56.706  50.129  0.00  0.00    +0.000 HD
BRANCH  33  35
ATOM     35  S   UNL     1     -14.721  57.524  52.300  0.00  0.00    +0.000 S 
ATOM     36  O   UNL     1     -15.987  57.012  52.782  0.00  0.00    +0.000 OA
ATOM     37  O   UNL     1     -13.526  57.479  53.107  0.00  0.00    +0.000 OA
BRANCH  35  38
ATOM     38  C   UNL     1     -14.988  59.202  51.729  0.00  0.00    +0.000 C 
BRANCH  38  39
ATOM     39  C   UNL     1     -15.248  59.213  50.229  0.00  0.00    +0.000 C 
BRANCH  39  40
ATOM     40  C   UNL     1     -14.545  60.369  49.523  0.00  0.00    +0.000 C 
ATOM     41  C   UNL     1     -13.059  60.366  49.852  0.00  0.00    +0.000 C 
ENDBRANCH  39  40
ENDBRANCH  38  39
ENDBRANCH  35  38
ENDBRANCH  33  35
ENDBRANCH  11  33
TORSDOF 10
ENDMDL
MODEL 2
REMARK VINA RESULT:      -7.2      3.010      5.053
REMARK  Name = 353080
REMARK  13 active torsions:
REMARK  status: ('A' for Active; 'I' for Inactive)
REMARK    1  A    between atoms: C_6  and  C_10
REMARK    2  A    between atoms: C_12  and  N_16
REMARK    3  A    between atoms: C_14  and  O_19
REMARK    4  A    between atoms: N_16  and  S_21
REMARK    5  A    between atoms: N_18  and  C_23
REMARK    6  A    between atoms: S_21  and  C_27
REMARK    7  A    between atoms: C_23  and  C_29
REMARK    8  A    between atoms: C_27  and  C_31
REMARK    9  A    between atoms: C_29  and  C_33
REMARK   10  A    between atoms: C_31  and  C_34
REMARK   11  A    between atoms: C_33  and  C_35
REMARK   12  A    between atoms: C_33  and  C_36
REMARK   13  A    between atoms: C_34  and  C_37
REMARK                            x       y       z     vdW  Elec       q    Type
REMARK                         _______ _______ _______ _____ _____    ______ ____
ROOT
ATOM      1  S   UNL     1     -10.794  55.082  50.619  0.00  0.00    +0.000 S 
ATOM      2  O   UNL     1      -9.713  55.980  50.956  0.00  0.00    +0.000 OA
ATOM      3  O   UNL     1     -11.657  54.506  51.625  0.00  0.00    +0.000 OA
ATOM      4  N   UNL     1     -10.165  53.822  49.759  0.00  0.00    +0.000 N 
ATOM      5  C   UNL     1     -11.796  55.855  49.421  0.00  0.00    +0.000 A 
ATOM      6  C   UNL     1      -9.880  53.921  48.400  0.00  0.00    +0.000 C 
ATOM      7  C   UNL     1     -11.503  55.592  48.084  0.00  0.00    +0.000 A 
ATOM      8  C   UNL     1     -12.856  56.681  49.806  0.00  0.00    +0.000 A 
ATOM      9  N   UNL     1     -10.453  54.786  47.625  0.00  0.00    +0.000 N 
ATOM     10  C   UNL     1     -12.317  56.169  47.108  0.00  0.00    +0.000 A 
ATOM     11  C   UNL     1     -13.639  57.254  48.809  0.00  0.00    +0.000 A 
ATOM     12  C   UNL     1     -13.376  56.999  47.465  0.00  0.00    +0.000 A 
ATOM     13  H   UNL     1      -9.986  52.972  50.223  0.00  0.00    +0.000 HD
ATOM     14  H   UNL     1     -10.144  54.881  46.696  0.00  0.00    +0.000 HD
ENDROOT
BRANCH   6  15
ATOM     15  C   UNL     1      -8.852  52.991  47.879  0.00  0.00    +0.000 A 
ATOM     16  C   UNL     1      -9.157  52.060  46.753  0.00  0.00    +0.000 A 
ATOM     17  C   UNL     1      -7.640  52.970  48.462  0.00  0.00    +0.000 A 
ATOM     18  O   UNL     1     -10.301  52.046  46.295  0.00  0.00    +0.000 OA
ATOM     19  N   UNL     1      -8.131  51.271  46.259  0.00  0.00    +0.000 N 
ATOM     20  C   UNL     1      -6.633  52.005  48.026  0.00  0.00    +0.000 A 
ATOM     21  C   UNL     1      -6.882  51.176  46.928  0.00  0.00    +0.000 A 
ATOM     22  C   UNL     1      -5.414  51.861  48.701  0.00  0.00    +0.000 A 
ATOM     23  N   UNL     1      -5.981  50.260  46.502  0.00  0.00    +0.000 NA
ATOM     24  C   UNL     1      -4.494  50.911  48.280  0.00  0.00    +0.000 A 
ATOM     25  C   UNL     1      -4.822  50.141  47.183  0.00  0.00    +0.000 A 
BRANCH  17  26
ATOM     26  O   UNL     1      -7.246  53.800  49.500  0.00  0.00    +0.000 OA
ATOM     27  H   UNL     1      -6.644  54.499  49.340  0.00  0.00    +0.000 HD
ENDBRANCH  17  26
BRANCH  19  28
ATOM     28  C   UNL     1      -8.412  50.349  45.156  0.00  0.00    +0.000 C 
BRANCH  28  29
ATOM     29  C   UNL     1      -7.838  50.767  43.790  0.00  0.00    +0.000 C 
BRANCH  29  30
ATOM     30  C   UNL     1      -8.774  51.581  42.878  0.00  0.00    +0.000 C 
ATOM     31  C   UNL     1     -10.234  51.148  43.007  0.00  0.00    +0.000 C 
ATOM     32  C   UNL     1      -8.644  53.067  43.231  0.00  0.00    +0.000 C 
ENDBRANCH  29  30
ENDBRANCH  28  29
ENDBRANCH  19  28
ENDBRANCH   6  15
BRANCH  11  33
ATOM     33  N   UNL     1     -14.683  58.166  49.104  0.00  0.00    +0.000 N 
ATOM     34  H   UNL     1     -15.630  57.914  49.000  0.00  0.00    +0.000 HD
BRANCH  33  35
ATOM     35  S   UNL     1     -14.236  59.705  49.640  0.00  0.00    +0.000 S 
ATOM     36  O   UNL     1     -12.803  59.638  49.843  0.00  0.00    +0.000 OA
ATOM     37  O   UNL     1     -14.838  60.713  48.802  0.00  0.00    +0.000 OA
BRANCH  35  38
ATOM     38  C   UNL     1     -15.019  59.730  51.252  0.00  0.00    +0.000 C 
BRANCH  38  39
ATOM     39  C   UNL     1     -14.230  58.876  52.235  0.00  0.00    +0.000 C 
BRANCH  39  40
ATOM     40  C   UNL     1     -15.131  58.028  53.127  0.00  0.00    +0.000 C 
ATOM     41  C   UNL     1     -15.604  56.790  52.379  0.00  0.00    +0.000 C 
ENDBRANCH  39  40
ENDBRANCH  38  39
ENDBRANCH  35  38
ENDBRANCH  33  35
ENDBRANCH  11  33
TORSDOF 10
ENDMDL
MODEL 3
REMARK VINA RESULT:      -7.0      2.852      3.744
REMARK  Name = 353080
REMARK  13 active torsions:
REMARK  status: ('A' for Active; 'I' for Inactive)
REMARK    1  A    between atoms: C_6  and  C_10
REMARK    2  A    between atoms: C_12  and  N_16
REMARK    3  A    between atoms: C_14  and  O_19
REMARK    4  A    between atoms: N_16  and  S_21
REMARK    5  A    between atoms: N_18  and  C_23
REMARK    6  A    between atoms: S_21  and  C_27
REMARK    7  A    between atoms: C_23  and  C_29
REMARK    8  A    between atoms: C_27  and  C_31
REMARK    9  A    between atoms: C_29  and  C_33
REMARK   10  A    between atoms: C_31  and  C_34
REMARK   11  A    between atoms: C_33  and  C_35
REMARK   12  A    between atoms: C_33  and  C_36
REMARK   13  A    between atoms: C_34  and  C_37
REMARK                            x       y       z     vdW  Elec       q    Type
REMARK                         _______ _______ _______ _____ _____    ______ ____
ROOT
ATOM      1  S   UNL     1     -11.392  54.246  50.243  0.00  0.00    +0.000 S 
ATOM      2  O   UNL     1     -10.250  54.944  50.790  0.00  0.00    +0.000 OA
ATOM      3  O   UNL     1     -12.388  53.622  51.085  0.00  0.00    +0.000 OA
ATOM      4  N   UNL     1     -10.837  53.076  49.221  0.00  0.00    +0.000 N 
ATOM      5  C   UNL     1     -12.209  55.316  49.137  0.00  0.00    +0.000 A 
ATOM      6  C   UNL     1     -10.438  53.359  47.917  0.00  0.00    +0.000 C 
ATOM      7  C   UNL     1     -11.843  55.240  47.794  0.00  0.00    +0.000 A 
ATOM      8  C   UNL     1     -13.202  56.189  49.593  0.00  0.00    +0.000 A 
ATOM      9  N   UNL     1     -10.853  54.400  47.268  0.00  0.00    +0.000 N 
ATOM     10  C   UNL     1     -12.512  56.059  46.884  0.00  0.00    +0.000 A 
ATOM     11  C   UNL     1     -13.838  57.005  48.663  0.00  0.00    +0.000 A 
ATOM     12  C   UNL     1     -13.501  56.940  47.314  0.00  0.00    +0.000 A 
ATOM     13  H   UNL     1     -10.787  52.148  49.544  0.00  0.00    +0.000 HD
ATOM     14  H   UNL     1     -10.464  54.606  46.388  0.00  0.00    +0.000 HD
ENDROOT
BRANCH   6  15
ATOM     15  C   UNL     1      -9.479  52.410  47.307  0.00  0.00    +0.000 A 
ATOM     16  C   UNL     1      -8.172  52.110  47.962  0.00  0.00    +0.000 A 
ATOM     17  C   UNL     1      -9.788  51.842  46.128  0.00  0.00    +0.000 A 
ATOM     18  O   UNL     1      -7.883  52.709  49.000  0.00  0.00    +0.000 OA
ATOM     19  N   UNL     1      -7.352  51.155  47.383  0.00  0.00    +0.000 N 
ATOM     20  C   UNL     1      -8.826  50.967  45.460  0.00  0.00    +0.000 A 
ATOM     21  C   UNL     1      -7.629  50.625  46.095  0.00  0.00    +0.000 A 
ATOM     22  C   UNL     1      -9.057  50.473  44.170  0.00  0.00    +0.000 A 
ATOM     23  N   UNL     1      -6.705  49.829  45.505  0.00  0.00    +0.000 NA
ATOM     24  C   UNL     1      -8.106  49.672  43.553  0.00  0.00    +0.000 A 
ATOM     25  C   UNL     1      -6.956  49.380  44.257  0.00  0.00    +0.000 A 
BRANCH  17  26
ATOM     26  O   UNL     1     -10.978  52.037  45.443  0.00  0.00    +0.000 OA
ATOM     27  H   UNL     1     -11.384  52.880  45.437  0.00  0.00    +0.000 HD
ENDBRANCH  17  26
BRANCH  19  28
ATOM     28  C   UNL     1      -6.064  50.850  48.010  0.00  0.00    +0.000 C 
BRANCH  28  29
ATOM     29  C   UNL     1      -4.917  51.814  47.653  0.00  0.00    +0.000 C 
BRANCH  29  30
ATOM     30  C   UNL     1      -4.235  52.527  48.833  0.00  0.00    +0.000 C 
ATOM     31  C   UNL     1      -4.565  54.019  48.882  0.00  0.00    +0.000 C 
ATOM     32  C   UNL     1      -4.677  51.859  50.140  0.00  0.00    +0.000 C 
ENDBRANCH  29  30
ENDBRANCH  28  29
ENDBRANCH  19  28
ENDBRANCH   6  15
BRANCH  11  33
ATOM     33  N   UNL     1     -14.798  57.975  49.047  0.00  0.00    +0.000 N 
ATOM     34  H   UNL     1     -15.764  57.813  48.936  0.00  0.00    +0.000 HD
BRANCH  33  35
ATOM     35  S   UNL     1     -14.217  59.421  49.701  0.00  0.00    +0.000 S 
ATOM     36  O   UNL     1     -12.800  59.202  49.912  0.00  0.00    +0.000 OA
ATOM     37  O   UNL     1     -14.707  60.540  48.935  0.00  0.00    +0.000 OA
BRANCH  35  38
ATOM     38  C   UNL     1     -15.021  59.401  51.303  0.00  0.00    +0.000 C 
BRANCH  38  39
ATOM     39  C   UNL     1     -14.021  59.030  52.389  0.00  0.00    +0.000 C 
BRANCH  39  40
ATOM     40  C   UNL     1     -14.154  57.576  52.834  0.00  0.00    +0.000 C 
ATOM     41  C   UNL     1     -15.555  57.059  52.542  0.00  0.00    +0.000 C 
ENDBRANCH  39  40
ENDBRANCH  38  39
ENDBRANCH  35  38
ENDBRANCH  33  35
ENDBRANCH  11  33
TORSDOF 10
ENDMDL
MODEL 4
REMARK VINA RESULT:      -6.8      3.249      9.000
REMARK  Name = 353080
REMARK  13 active torsions:
REMARK  status: ('A' for Active; 'I' for Inactive)
REMARK    1  A    between atoms: C_6  and  C_10
REMARK    2  A    between atoms: C_12  and  N_16
REMARK    3  A    between atoms: C_14  and  O_19
REMARK    4  A    between atoms: N_16  and  S_21
REMARK    5  A    between atoms: N_18  and  C_23
REMARK    6  A    between atoms: S_21  and  C_27
REMARK    7  A    between atoms: C_23  and  C_29
REMARK    8  A    between atoms: C_27  and  C_31
REMARK    9  A    between atoms: C_29  and  C_33
REMARK   10  A    between atoms: C_31  and  C_34
REMARK   11  A    between atoms: C_33  and  C_35
REMARK   12  A    between atoms: C_33  and  C_36
REMARK   13  A    between atoms: C_34  and  C_37
REMARK                            x       y       z     vdW  Elec       q    Type
REMARK                         _______ _______ _______ _____ _____    ______ ____
ROOT
ATOM      1  S   UNL     1      -8.451  55.088  53.001  0.00  0.00    +0.000 S 
ATOM      2  O   UNL     1      -9.570  55.032  53.914  0.00  0.00    +0.000 OA
ATOM      3  O   UNL     1      -7.304  55.935  53.241  0.00  0.00    +0.000 OA
ATOM      4  N   UNL     1      -9.028  55.486  51.508  0.00  0.00    +0.000 N 
ATOM      5  C   UNL     1      -7.881  53.464  52.733  0.00  0.00    +0.000 A 
ATOM      6  C   UNL     1      -9.615  54.546  50.664  0.00  0.00    +0.000 C 
ATOM      7  C   UNL     1      -8.408  52.780  51.639  0.00  0.00    +0.000 A 
ATOM      8  C   UNL     1      -6.919  52.900  53.576  0.00  0.00    +0.000 A 
ATOM      9  N   UNL     1      -9.380  53.276  50.761  0.00  0.00    +0.000 N 
ATOM     10  C   UNL     1      -7.937  51.492  51.382  0.00  0.00    +0.000 A 
ATOM     11  C   UNL     1      -6.482  51.607  53.302  0.00  0.00    +0.000 A 
ATOM     12  C   UNL     1      -6.983  50.905  52.209  0.00  0.00    +0.000 A 
ATOM     13  H   UNL     1      -8.954  56.420  51.202  0.00  0.00    +0.000 HD
ATOM     14  H   UNL     1      -9.895  52.647  50.207  0.00  0.00    +0.000 HD
ENDROOT
BRANCH   6  15
ATOM     15  C   UNL     1     -10.557  55.075  49.652  0.00  0.00    +0.000 A 
ATOM     16  C   UNL     1     -10.376  54.774  48.201  0.00  0.00    +0.000 A 
ATOM     17  C   UNL     1     -11.567  55.866  50.056  0.00  0.00    +0.000 A 
ATOM     18  O   UNL     1      -9.394  54.114  47.855  0.00  0.00    +0.000 OA
ATOM     19  N   UNL     1     -11.335  55.232  47.313  0.00  0.00    +0.000 N 
ATOM     20  C   UNL     1     -12.462  56.472  49.072  0.00  0.00    +0.000 A 
ATOM     21  C   UNL     1     -12.346  56.143  47.719  0.00  0.00    +0.000 A 
ATOM     22  C   UNL     1     -13.435  57.409  49.445  0.00  0.00    +0.000 A 
ATOM     23  N   UNL     1     -13.147  56.692  46.775  0.00  0.00    +0.000 NA
ATOM     24  C   UNL     1     -14.246  57.990  48.480  0.00  0.00    +0.000 A 
ATOM     25  C   UNL     1     -14.065  57.600  47.168  0.00  0.00    +0.000 A 
BRANCH  17  26
ATOM     26  O   UNL     1     -11.836  56.196  51.375  0.00  0.00    +0.000 OA
ATOM     27  H   UNL     1     -11.143  56.471  51.942  0.00  0.00    +0.000 HD
ENDBRANCH  17  26
BRANCH  19  28
ATOM     28  C   UNL     1     -11.173  54.949  45.884  0.00  0.00    +0.000 C 
BRANCH  28  29
ATOM     29  C   UNL     1     -11.851  53.658  45.391  0.00  0.00    +0.000 C 
BRANCH  29  30
ATOM     30  C   UNL     1     -10.913  52.527  44.934  0.00  0.00    +0.000 C 
ATOM     31  C   UNL     1      -9.534  53.044  44.525  0.00  0.00    +0.000 C 
ATOM     32  C   UNL     1     -10.765  51.512  46.073  0.00  0.00    +0.000 C 
ENDBRANCH  29  30
ENDBRANCH  28  29
ENDBRANCH  19  28
ENDBRANCH   6  15
BRANCH  11  33
ATOM     33  N   UNL     1      -5.570  50.927  54.147  0.00  0.00    +0.000 N 
ATOM     34  H   UNL     1      -5.827  50.640  55.055  0.00  0.00    +0.000 HD
BRANCH  33  35
ATOM     35  S   UNL     1      -4.023  50.630  53.536  0.00  0.00    +0.000 S 
ATOM     36  O   UNL     1      -3.301  49.992  54.619  0.00  0.00    +0.000 OA
ATOM     37  O   UNL     1      -4.116  50.029  52.229  0.00  0.00    +0.000 OA
BRANCH  35  38
ATOM     38  C   UNL     1      -3.407  52.306  53.376  0.00  0.00    +0.000 C 
BRANCH  38  39
ATOM     39  C   UNL     1      -3.300  52.690  51.907  0.00  0.00    +0.000 C 
BRANCH  39  40
ATOM     40  C   UNL     1      -4.023  53.996  51.591  0.00  0.00    +0.000 C 
ATOM     41  C   UNL     1      -4.965  53.808  50.410  0.00  0.00    +0.000 C 
ENDBRANCH  39  40
ENDBRANCH  38  39
ENDBRANCH  35  38
ENDBRANCH  33  35
ENDBRANCH  11  33
TORSDOF 10
ENDMDL
MODEL 5
REMARK VINA RESULT:      -6.8      2.152      2.920
REMARK  Name = 353080
REMARK  13 active torsions:
REMARK  status: ('A' for Active; 'I' for Inactive)
REMARK    1  A    between atoms: C_6  and  C_10
REMARK    2  A    between atoms: C_12  and  N_16
REMARK    3  A    between atoms: C_14  and  O_19
REMARK    4  A    between atoms: N_16  and  S_21
REMARK    5  A    between atoms: N_18  and  C_23
REMARK    6  A    between atoms: S_21  and  C_27
REMARK    7  A    between atoms: C_23  and  C_29
REMARK    8  A    between atoms: C_27  and  C_31
REMARK    9  A    between atoms: C_29  and  C_33
REMARK   10  A    between atoms: C_31  and  C_34
REMARK   11  A    between atoms: C_33  and  C_35
REMARK   12  A    between atoms: C_33  and  C_36
REMARK   13  A    between atoms: C_34  and  C_37
REMARK                            x       y       z     vdW  Elec       q    Type
REMARK                         _______ _______ _______ _____ _____    ______ ____
ROOT
ATOM      1  S   UNL     1     -10.236  54.462  47.426  0.00  0.00    +0.000 S 
ATOM      2  O   UNL     1     -10.812  53.190  47.051  0.00  0.00    +0.000 OA
ATOM      3  O   UNL     1     -10.010  55.518  46.464  0.00  0.00    +0.000 OA
ATOM      4  N   UNL     1      -8.786  54.173  48.157  0.00  0.00    +0.000 N 
ATOM      5  C   UNL     1     -11.167  55.118  48.744  0.00  0.00    +0.000 A 
ATOM      6  C   UNL     1      -8.693  53.786  49.491  0.00  0.00    +0.000 C 
ATOM      7  C   UNL     1     -10.728  54.830  50.035  0.00  0.00    +0.000 A 
ATOM      8  C   UNL     1     -12.288  55.916  48.496  0.00  0.00    +0.000 A 
ATOM      9  N   UNL     1      -9.623  54.033  50.359  0.00  0.00    +0.000 N 
ATOM     10  C   UNL     1     -11.435  55.378  51.106  0.00  0.00    +0.000 A 
ATOM     11  C   UNL     1     -12.981  56.433  49.586  0.00  0.00    +0.000 A 
ATOM     12  C   UNL     1     -12.558  56.171  50.886  0.00  0.00    +0.000 A 
ATOM     13  H   UNL     1      -7.959  54.278  47.633  0.00  0.00    +0.000 HD
ATOM     14  H   UNL     1      -9.553  53.651  51.263  0.00  0.00    +0.000 HD
ENDROOT
BRANCH   6  15
ATOM     15  C   UNL     1      -7.470  53.041  49.872  0.00  0.00    +0.000 A 
ATOM     16  C   UNL     1      -6.693  53.411  51.091  0.00  0.00    +0.000 A 
ATOM     17  C   UNL     1      -7.047  52.041  49.078  0.00  0.00    +0.000 A 
ATOM     18  O   UNL     1      -7.061  54.384  51.751  0.00  0.00    +0.000 OA
ATOM     19  N   UNL     1      -5.604  52.627  51.436  0.00  0.00    +0.000 N 
ATOM     20  C   UNL     1      -5.798  51.344  49.382  0.00  0.00    +0.000 A 
ATOM     21  C   UNL     1      -5.098  51.634  50.556  0.00  0.00    +0.000 A 
ATOM     22  C   UNL     1      -5.256  50.395  48.504  0.00  0.00    +0.000 A 
ATOM     23  N   UNL     1      -3.931  51.021  50.866  0.00  0.00    +0.000 NA
ATOM     24  C   UNL     1      -4.051  49.777  48.808  0.00  0.00    +0.000 A 
ATOM     25  C   UNL     1      -3.432  50.120  49.992  0.00  0.00    +0.000 A 
BRANCH  17  26
ATOM     26  O   UNL     1      -7.699  51.605  47.936  0.00  0.00    +0.000 OA
ATOM     27  H   UNL     1      -8.616  51.416  47.962  0.00  0.00    +0.000 HD
ENDBRANCH  17  26
BRANCH  19  28
ATOM     28  C   UNL     1      -4.826  52.976  52.627  0.00  0.00    +0.000 C 
BRANCH  28  29
ATOM     29  C   UNL     1      -5.085  52.092  53.861  0.00  0.00    +0.000 C 
BRANCH  29  30
ATOM     30  C   UNL     1      -6.174  52.581  54.833  0.00  0.00    +0.000 C 
ATOM     31  C   UNL     1      -6.225  54.105  54.932  0.00  0.00    +0.000 C 
ATOM     32  C   UNL     1      -7.534  52.051  54.363  0.00  0.00    +0.000 C 
ENDBRANCH  29  30
ENDBRANCH  28  29
ENDBRANCH  19  28
ENDBRANCH   6  15
BRANCH  11  33
ATOM     33  N   UNL     1     -14.173  57.184  49.430  0.00  0.00    +0.000 N 
ATOM     34  H   UNL     1     -15.055  56.745  49.394  0.00  0.00    +0.000 HD
BRANCH  33  35
ATOM     35  S   UNL     1     -14.020  58.862  49.309  0.00  0.00    +0.000 S 
ATOM     36  O   UNL     1     -12.639  59.145  49.646  0.00  0.00    +0.000 OA
ATOM     37  O   UNL     1     -14.610  59.324  48.077  0.00  0.00    +0.000 OA
BRANCH  35  38
ATOM     38  C   UNL     1     -15.040  59.384  50.688  0.00  0.00    +0.000 C 
BRANCH  38  39
ATOM     39  C   UNL     1     -14.342  59.077  52.006  0.00  0.00    +0.000 C 
BRANCH  39  40
ATOM     40  C   UNL     1     -15.281  58.448  53.031  0.00  0.00    +0.000 C 
ATOM     41  C   UNL     1     -15.629  57.023  52.626  0.00  0.00    +0.000 C 
ENDBRANCH  39  40
ENDBRANCH  38  39
ENDBRANCH  35  38
ENDBRANCH  33  35
ENDBRANCH  11  33
TORSDOF 10
ENDMDL
MODEL 6
REMARK VINA RESULT:      -6.3      1.636      2.177
REMARK  Name = 353080
REMARK  13 active torsions:
REMARK  status: ('A' for Active; 'I' for Inactive)
REMARK    1  A    between atoms: C_6  and  C_10
REMARK    2  A    between atoms: C_12  and  N_16
REMARK    3  A    between atoms: C_14  and  O_19
REMARK    4  A    between atoms: N_16  and  S_21
REMARK    5  A    between atoms: N_18  and  C_23
REMARK    6  A    between atoms: S_21  and  C_27
REMARK    7  A    between atoms: C_23  and  C_29
REMARK    8  A    between atoms: C_27  and  C_31
REMARK    9  A    between atoms: C_29  and  C_33
REMARK   10  A    between atoms: C_31  and  C_34
REMARK   11  A    between atoms: C_33  and  C_35
REMARK   12  A    between atoms: C_33  and  C_36
REMARK   13  A    between atoms: C_34  and  C_37
REMARK                            x       y       z     vdW  Elec       q    Type
REMARK                         _______ _______ _______ _____ _____    ______ ____
ROOT
ATOM      1  S   UNL     1     -10.988  54.376  47.671  0.00  0.00    +0.000 S 
ATOM      2  O   UNL     1     -11.439  53.092  47.184  0.00  0.00    +0.000 OA
ATOM      3  O   UNL     1     -11.154  55.591  46.905  0.00  0.00    +0.000 OA
ATOM      4  N   UNL     1      -9.381  54.255  48.022  0.00  0.00    +0.000 N 
ATOM      5  C   UNL     1     -11.671  54.632  49.253  0.00  0.00    +0.000 A 
ATOM      6  C   UNL     1      -8.921  53.691  49.209  0.00  0.00    +0.000 C 
ATOM      7  C   UNL     1     -10.905  54.236  50.347  0.00  0.00    +0.000 A 
ATOM      8  C   UNL     1     -12.926  55.233  49.397  0.00  0.00    +0.000 A 
ATOM      9  N   UNL     1      -9.648  53.621  50.279  0.00  0.00    +0.000 N 
ATOM     10  C   UNL     1     -11.415  54.468  51.625  0.00  0.00    +0.000 A 
ATOM     11  C   UNL     1     -13.414  55.435  50.684  0.00  0.00    +0.000 A 
ATOM     12  C   UNL     1     -12.664  55.060  51.795  0.00  0.00    +0.000 A 
ATOM     13  H   UNL     1      -8.725  54.595  47.371  0.00  0.00    +0.000 HD
ATOM     14  H   UNL     1      -9.312  53.124  51.059  0.00  0.00    +0.000 HD
ENDROOT
BRANCH   6  15
ATOM     15  C   UNL     1      -7.546  53.141  49.182  0.00  0.00    +0.000 A 
ATOM     16  C   UNL     1      -6.483  53.683  50.078  0.00  0.00    +0.000 A 
ATOM     17  C   UNL     1      -7.257  52.162  48.307  0.00  0.00    +0.000 A 
ATOM     18  O   UNL     1      -6.759  54.635  50.810  0.00  0.00    +0.000 OA
ATOM     19  N   UNL     1      -5.239  53.074  50.061  0.00  0.00    +0.000 N 
ATOM     20  C   UNL     1      -5.889  51.657  48.197  0.00  0.00    +0.000 A 
ATOM     21  C   UNL     1      -4.901  52.107  49.077  0.00  0.00    +0.000 A 
ATOM     22  C   UNL     1      -5.524  50.740  47.203  0.00  0.00    +0.000 A 
ATOM     23  N   UNL     1      -3.620  51.675  49.000  0.00  0.00    +0.000 NA
ATOM     24  C   UNL     1      -4.208  50.307  47.107  0.00  0.00    +0.000 A 
ATOM     25  C   UNL     1      -3.300  50.800  48.023  0.00  0.00    +0.000 A 
BRANCH  17  26
ATOM     26  O   UNL     1      -8.169  51.576  47.443  0.00  0.00    +0.000 OA
ATOM     27  H   UNL     1      -8.058  51.658  46.517  0.00  0.00    +0.000 HD
ENDBRANCH  17  26
BRANCH  19  28
ATOM     28  C   UNL     1      -4.181  53.594  50.932  0.00  0.00    +0.000 C 
BRANCH  28  29
ATOM     29  C   UNL     1      -4.253  53.131  52.398  0.00  0.00    +0.000 C 
BRANCH  29  30
ATOM     30  C   UNL     1      -4.661  51.665  52.630  0.00  0.00    +0.000 C 
ATOM     31  C   UNL     1      -3.650  50.908  53.490  0.00  0.00    +0.000 C 
ATOM     32  C   UNL     1      -6.037  51.633  53.306  0.00  0.00    +0.000 C 
ENDBRANCH  29  30
ENDBRANCH  28  29
ENDBRANCH  19  28
ENDBRANCH   6  15
BRANCH  11  33
ATOM     33  N   UNL     1     -14.708  55.963  50.922  0.00  0.00    +0.000 N 
ATOM     34  H   UNL     1     -15.499  55.621  50.442  0.00  0.00    +0.000 HD
BRANCH  33  35
ATOM     35  S   UNL     1     -14.840  57.203  52.063  0.00  0.00    +0.000 S 
ATOM     36  O   UNL     1     -16.002  56.865  52.861  0.00  0.00    +0.000 OA
ATOM     37  O   UNL     1     -13.554  57.459  52.664  0.00  0.00    +0.000 OA
BRANCH  35  38
ATOM     38  C   UNL     1     -15.283  58.577  51.001  0.00  0.00    +0.000 C 
BRANCH  38  39
ATOM     39  C   UNL     1     -14.122  59.556  50.894  0.00  0.00    +0.000 C 
BRANCH  39  40
ATOM     40  C   UNL     1     -13.335  59.389  49.598  0.00  0.00    +0.000 C 
ATOM     41  C   UNL     1     -14.142  58.588  48.587  0.00  0.00    +0.000 C 
ENDBRANCH  39  40
ENDBRANCH  38  39
ENDBRANCH  35  38
ENDBRANCH  33  35
ENDBRANCH  11  33
TORSDOF 10
ENDMDL
MODEL 7
REMARK VINA RESULT:      -6.0      3.169      4.323
REMARK  Name = 353080
REMARK  13 active torsions:
REMARK  status: ('A' for Active; 'I' for Inactive)
REMARK    1  A    between atoms: C_6  and  C_10
REMARK    2  A    between atoms: C_12  and  N_16
REMARK    3  A    between atoms: C_14  and  O_19
REMARK    4  A    between atoms: N_16  and  S_21
REMARK    5  A    between atoms: N_18  and  C_23
REMARK    6  A    between atoms: S_21  and  C_27
REMARK    7  A    between atoms: C_23  and  C_29
REMARK    8  A    between atoms: C_27  and  C_31
REMARK    9  A    between atoms: C_29  and  C_33
REMARK   10  A    between atoms: C_31  and  C_34
REMARK   11  A    between atoms: C_33  and  C_35
REMARK   12  A    between atoms: C_33  and  C_36
REMARK   13  A    between atoms: C_34  and  C_37
REMARK                            x       y       z     vdW  Elec       q    Type
REMARK                         _______ _______ _______ _____ _____    ______ ____
ROOT
ATOM      1  S   UNL     1     -11.025  54.582  50.495  0.00  0.00    +0.000 S 
ATOM      2  O   UNL     1      -9.786  55.281  50.754  0.00  0.00    +0.000 OA
ATOM      3  O   UNL     1     -11.734  53.863  51.529  0.00  0.00    +0.000 OA
ATOM      4  N   UNL     1     -10.762  53.509  49.270  0.00  0.00    +0.000 N 
ATOM      5  C   UNL     1     -12.137  55.697  49.748  0.00  0.00    +0.000 A 
ATOM      6  C   UNL     1     -10.750  53.898  47.933  0.00  0.00    +0.000 C 
ATOM      7  C   UNL     1     -12.162  55.730  48.355  0.00  0.00    +0.000 A 
ATOM      8  C   UNL     1     -12.974  56.498  50.531  0.00  0.00    +0.000 A 
ATOM      9  N   UNL     1     -11.348  54.967  47.509  0.00  0.00    +0.000 N 
ATOM     10  C   UNL     1     -13.073  56.586  47.735  0.00  0.00    +0.000 A 
ATOM     11  C   UNL     1     -13.860  57.353  49.882  0.00  0.00    +0.000 A 
ATOM     12  C   UNL     1     -13.915  57.397  48.492  0.00  0.00    +0.000 A 
ATOM     13  H   UNL     1     -10.608  52.562  49.492  0.00  0.00    +0.000 HD
ATOM     14  H   UNL     1     -11.225  55.249  46.575  0.00  0.00    +0.000 HD
ENDROOT
BRANCH   6  15
ATOM     15  C   UNL     1      -9.987  53.031  47.007  0.00  0.00    +0.000 A 
ATOM     16  C   UNL     1      -8.575  52.645  47.302  0.00  0.00    +0.000 A 
ATOM     17  C   UNL     1     -10.575  52.619  45.870  0.00  0.00    +0.000 A 
ATOM     18  O   UNL     1      -8.039  53.105  48.311  0.00  0.00    +0.000 OA
ATOM     19  N   UNL     1      -7.941  51.768  46.437  0.00  0.00    +0.000 N 
ATOM     20  C   UNL     1      -9.819  51.833  44.896  0.00  0.00    +0.000 A 
ATOM     21  C   UNL     1      -8.521  51.408  45.192  0.00  0.00    +0.000 A 
ATOM     22  C   UNL     1     -10.353  51.508  43.643  0.00  0.00    +0.000 A 
ATOM     23  N   UNL     1      -7.782  50.690  44.312  0.00  0.00    +0.000 NA
ATOM     24  C   UNL     1      -9.595  50.788  42.729  0.00  0.00    +0.000 A 
ATOM     25  C   UNL     1      -8.325  50.405  43.109  0.00  0.00    +0.000 A 
BRANCH  17  26
ATOM     26  O   UNL     1     -11.882  52.904  45.505  0.00  0.00    +0.000 OA
ATOM     27  H   UNL     1     -12.590  52.424  45.886  0.00  0.00    +0.000 HD
ENDBRANCH  17  26
BRANCH  19  28
ATOM     28  C   UNL     1      -6.555  51.381  46.709  0.00  0.00    +0.000 C 
BRANCH  28  29
ATOM     29  C   UNL     1      -6.384  50.154  47.623  0.00  0.00    +0.000 C 
BRANCH  29  30
ATOM     30  C   UNL     1      -5.174  50.176  48.573  0.00  0.00    +0.000 C 
ATOM     31  C   UNL     1      -3.850  50.343  47.828  0.00  0.00    +0.000 C 
ATOM     32  C   UNL     1      -5.349  51.323  49.575  0.00  0.00    +0.000 C 
ENDBRANCH  29  30
ENDBRANCH  28  29
ENDBRANCH  19  28
ENDBRANCH   6  15
BRANCH  11  33
ATOM     33  N   UNL     1     -14.688  58.258  50.593  0.00  0.00    +0.000 N 
ATOM     34  H   UNL     1     -15.076  59.051  50.156  0.00  0.00    +0.000 HD
BRANCH  33  35
ATOM     35  S   UNL     1     -14.981  57.920  52.223  0.00  0.00    +0.000 S 
ATOM     36  O   UNL     1     -16.041  56.932  52.224  0.00  0.00    +0.000 OA
ATOM     37  O   UNL     1     -13.734  57.696  52.912  0.00  0.00    +0.000 OA
BRANCH  35  38
ATOM     38  C   UNL     1     -15.683  59.480  52.759  0.00  0.00    +0.000 C 
BRANCH  38  39
ATOM     39  C   UNL     1     -15.920  59.462  54.263  0.00  0.00    +0.000 C 
BRANCH  39  40
ATOM     40  C   UNL     1     -16.808  60.612  54.728  0.00  0.00    +0.000 C 
ATOM     41  C   UNL     1     -16.856  60.664  56.248  0.00  0.00    +0.000 C 
ENDBRANCH  39  40
ENDBRANCH  38  39
ENDBRANCH  35  38
ENDBRANCH  33  35
ENDBRANCH  11  33
TORSDOF 10
ENDMDL
MODEL 8
REMARK VINA RESULT:      -6.0      2.927      3.988
REMARK  Name = 353080
REMARK  13 active torsions:
REMARK  status: ('A' for Active; 'I' for Inactive)
REMARK    1  A    between atoms: C_6  and  C_10
REMARK    2  A    between atoms: C_12  and  N_16
REMARK    3  A    between atoms: C_14  and  O_19
REMARK    4  A    between atoms: N_16  and  S_21
REMARK    5  A    between atoms: N_18  and  C_23
REMARK    6  A    between atoms: S_21  and  C_27
REMARK    7  A    between atoms: C_23  and  C_29
REMARK    8  A    between atoms: C_27  and  C_31
REMARK    9  A    between atoms: C_29  and  C_33
REMARK   10  A    between atoms: C_31  and  C_34
REMARK   11  A    between atoms: C_33  and  C_35
REMARK   12  A    between atoms: C_33  and  C_36
REMARK   13  A    between atoms: C_34  and  C_37
REMARK                            x       y       z     vdW  Elec       q    Type
REMARK                         _______ _______ _______ _____ _____    ______ ____
ROOT
ATOM      1  S   UNL     1     -11.772  53.371  51.034  0.00  0.00    +0.000 S 
ATOM      2  O   UNL     1     -10.580  53.985  51.574  0.00  0.00    +0.000 OA
ATOM      3  O   UNL     1     -12.558  52.421  51.790  0.00  0.00    +0.000 OA
ATOM      4  N   UNL     1     -11.369  52.628  49.617  0.00  0.00    +0.000 N 
ATOM      5  C   UNL     1     -12.834  54.634  50.476  0.00  0.00    +0.000 A 
ATOM      6  C   UNL     1     -11.241  53.330  48.422  0.00  0.00    +0.000 C 
ATOM      7  C   UNL     1     -12.730  55.004  49.137  0.00  0.00    +0.000 A 
ATOM      8  C   UNL     1     -13.761  55.220  51.344  0.00  0.00    +0.000 A 
ATOM      9  N   UNL     1     -11.821  54.470  48.214  0.00  0.00    +0.000 N 
ATOM     10  C   UNL     1     -13.598  55.986  48.657  0.00  0.00    +0.000 A 
ATOM     11  C   UNL     1     -14.601  56.207  50.840  0.00  0.00    +0.000 A 
ATOM     12  C   UNL     1     -14.526  56.589  49.503  0.00  0.00    +0.000 A 
ATOM     13  H   UNL     1     -11.215  51.655  49.617  0.00  0.00    +0.000 HD
ATOM     14  H   UNL     1     -11.618  54.972  47.392  0.00  0.00    +0.000 HD
ENDROOT
BRANCH   6  15
ATOM     15  C   UNL     1     -10.374  52.715  47.392  0.00  0.00    +0.000 A 
ATOM     16  C   UNL     1      -9.093  52.047  47.765  0.00  0.00    +0.000 A 
ATOM     17  C   UNL     1     -10.741  52.796  46.101  0.00  0.00    +0.000 A 
ATOM     18  O   UNL     1      -8.744  52.061  48.947  0.00  0.00    +0.000 OA
ATOM     19  N   UNL     1      -8.365  51.421  46.766  0.00  0.00    +0.000 N 
ATOM     20  C   UNL     1      -9.865  52.273  45.054  0.00  0.00    +0.000 A 
ATOM     21  C   UNL     1      -8.697  51.585  45.395  0.00  0.00    +0.000 A 
ATOM     22  C   UNL     1     -10.149  52.465  43.696  0.00  0.00    +0.000 A 
ATOM     23  N   UNL     1      -7.852  51.097  44.456  0.00  0.00    +0.000 NA
ATOM     24  C   UNL     1      -9.277  51.983  42.729  0.00  0.00    +0.000 A 
ATOM     25  C   UNL     1      -8.150  51.310  43.157  0.00  0.00    +0.000 A 
BRANCH  17  26
ATOM     26  O   UNL     1     -11.915  53.378  45.646  0.00  0.00    +0.000 OA
ATOM     27  H   UNL     1     -11.883  54.065  45.011  0.00  0.00    +0.000 HD
ENDBRANCH  17  26
BRANCH  19  28
ATOM     28  C   UNL     1      -7.103  50.763  47.112  0.00  0.00    +0.000 C 
BRANCH  28  29
ATOM     29  C   UNL     1      -6.160  51.585  48.009  0.00  0.00    +0.000 C 
BRANCH  29  30
ATOM     30  C   UNL     1      -5.370  52.710  47.317  0.00  0.00    +0.000 C 
ATOM     31  C   UNL     1      -6.192  53.990  47.165  0.00  0.00    +0.000 C 
ATOM     32  C   UNL     1      -4.106  53.004  48.131  0.00  0.00    +0.000 C 
ENDBRANCH  29  30
ENDBRANCH  28  29
ENDBRANCH  19  28
ENDBRANCH   6  15
BRANCH  11  33
ATOM     33  N   UNL     1     -15.513  56.911  51.665  0.00  0.00    +0.000 N 
ATOM     34  H   UNL     1     -16.488  56.810  51.557  0.00  0.00    +0.000 HD
BRANCH  33  35
ATOM     35  S   UNL     1     -14.861  57.933  52.843  0.00  0.00    +0.000 S 
ATOM     36  O   UNL     1     -15.900  58.073  53.844  0.00  0.00    +0.000 OA
ATOM     37  O   UNL     1     -13.528  57.502  53.186  0.00  0.00    +0.000 OA
BRANCH  35  38
ATOM     38  C   UNL     1     -14.770  59.471  51.926  0.00  0.00    +0.000 C 
BRANCH  38  39
ATOM     39  C   UNL     1     -13.405  59.611  51.266  0.00  0.00    +0.000 C 
BRANCH  39  40
ATOM     40  C   UNL     1     -13.503  60.087  49.819  0.00  0.00    +0.000 C 
ATOM     41  C   UNL     1     -14.954  60.345  49.442  0.00  0.00    +0.000 C 
ENDBRANCH  39  40
ENDBRANCH  38  39
ENDBRANCH  35  38
ENDBRANCH  33  35
ENDBRANCH  11  33
TORSDOF 10
ENDMDL
MODEL 9
REMARK VINA RESULT:      -6.0      2.762      9.279
REMARK  Name = 353080
REMARK  13 active torsions:
REMARK  status: ('A' for Active; 'I' for Inactive)
REMARK    1  A    between atoms: C_6  and  C_10
REMARK    2  A    between atoms: C_12  and  N_16
REMARK    3  A    between atoms: C_14  and  O_19
REMARK    4  A    between atoms: N_16  and  S_21
REMARK    5  A    between atoms: N_18  and  C_23
REMARK    6  A    between atoms: S_21  and  C_27
REMARK    7  A    between atoms: C_23  and  C_29
REMARK    8  A    between atoms: C_27  and  C_31
REMARK    9  A    between atoms: C_29  and  C_33
REMARK   10  A    between atoms: C_31  and  C_34
REMARK   11  A    between atoms: C_33  and  C_35
REMARK   12  A    between atoms: C_33  and  C_36
REMARK   13  A    between atoms: C_34  and  C_37
REMARK                            x       y       z     vdW  Elec       q    Type
REMARK                         _______ _______ _______ _____ _____    ______ ____
ROOT
ATOM      1  S   UNL     1      -8.889  52.860  52.975  0.00  0.00    +0.000 S 
ATOM      2  O   UNL     1      -9.935  52.157  53.683  0.00  0.00    +0.000 OA
ATOM      3  O   UNL     1      -7.818  53.543  53.665  0.00  0.00    +0.000 OA
ATOM      4  N   UNL     1      -9.598  53.972  51.985  0.00  0.00    +0.000 N 
ATOM      5  C   UNL     1      -8.181  51.766  51.819  0.00  0.00    +0.000 A 
ATOM      6  C   UNL     1     -10.143  53.627  50.751  0.00  0.00    +0.000 C 
ATOM      7  C   UNL     1      -8.708  51.778  50.529  0.00  0.00    +0.000 A 
ATOM      8  C   UNL     1      -7.115  50.938  52.184  0.00  0.00    +0.000 A 
ATOM      9  N   UNL     1      -9.779  52.570  50.096  0.00  0.00    +0.000 N 
ATOM     10  C   UNL     1      -8.130  50.938  49.576  0.00  0.00    +0.000 A 
ATOM     11  C   UNL     1      -6.571  50.100  51.214  0.00  0.00    +0.000 A 
ATOM     12  C   UNL     1      -7.071  50.100  49.915  0.00  0.00    +0.000 A 
ATOM     13  H   UNL     1      -9.636  54.912  52.276  0.00  0.00    +0.000 HD
ATOM     14  H   UNL     1     -10.265  52.318  49.279  0.00  0.00    +0.000 HD
ENDROOT
BRANCH   6  15
ATOM     15  C   UNL     1     -11.197  54.526  50.227  0.00  0.00    +0.000 A 
ATOM     16  C   UNL     1     -12.408  54.845  51.038  0.00  0.00    +0.000 A 
ATOM     17  C   UNL     1     -11.063  55.028  48.987  0.00  0.00    +0.000 A 
ATOM     18  O   UNL     1     -12.540  54.303  52.137  0.00  0.00    +0.000 OA
ATOM     19  N   UNL     1     -13.319  55.754  50.525  0.00  0.00    +0.000 N 
ATOM     20  C   UNL     1     -12.126  55.850  48.411  0.00  0.00    +0.000 A 
ATOM     21  C   UNL     1     -13.233  56.212  49.184  0.00  0.00    +0.000 A 
ATOM     22  C   UNL     1     -12.084  56.272  47.075  0.00  0.00    +0.000 A 
ATOM     23  N   UNL     1     -14.245  56.959  48.683  0.00  0.00    +0.000 NA
ATOM     24  C   UNL     1     -13.127  57.023  46.551  0.00  0.00    +0.000 A 
ATOM     25  C   UNL     1     -14.177  57.339  47.389  0.00  0.00    +0.000 A 
BRANCH  17  26
ATOM     26  O   UNL     1      -9.975  54.811  48.157  0.00  0.00    +0.000 OA
ATOM     27  H   UNL     1      -9.296  55.453  48.095  0.00  0.00    +0.000 HD
ENDBRANCH  17  26
BRANCH  19  28
ATOM     28  C   UNL     1     -14.517  56.077  51.305  0.00  0.00    +0.000 C 
BRANCH  28  29
ATOM     29  C   UNL     1     -14.339  57.199  52.344  0.00  0.00    +0.000 C 
BRANCH  29  30
ATOM     30  C   UNL     1     -15.359  58.350  52.283  0.00  0.00    +0.000 C 
ATOM     31  C   UNL     1     -15.384  59.175  53.570  0.00  0.00    +0.000 C 
ATOM     32  C   UNL     1     -15.015  59.258  51.097  0.00  0.00    +0.000 C 
ENDBRANCH  29  30
ENDBRANCH  28  29
ENDBRANCH  19  28
ENDBRANCH   6  15
BRANCH  11  33
ATOM     33  N   UNL     1      -5.544  49.171  51.514  0.00  0.00    +0.000 N 
ATOM     34  H   UNL     1      -5.749  48.233  51.736  0.00  0.00    +0.000 HD
BRANCH  33  35
ATOM     35  S   UNL     1      -3.952  49.739  51.477  0.00  0.00    +0.000 S 
ATOM     36  O   UNL     1      -3.301  49.123  52.616  0.00  0.00    +0.000 OA
ATOM     37  O   UNL     1      -3.419  49.623  50.142  0.00  0.00    +0.000 OA
BRANCH  35  38
ATOM     38  C   UNL     1      -4.214  51.470  51.864  0.00  0.00    +0.000 C 
BRANCH  38  39
ATOM     39  C   UNL     1      -3.816  52.340  50.680  0.00  0.00    +0.000 C 
BRANCH  39  40
ATOM     40  C   UNL     1      -4.810  53.469  50.424  0.00  0.00    +0.000 C 
ATOM     41  C   UNL     1      -4.909  53.762  48.934  0.00  0.00    +0.000 C 
ENDBRANCH  39  40
ENDBRANCH  38  39
ENDBRANCH  35  38
ENDBRANCH  33  35
ENDBRANCH  11  33
TORSDOF 10
ENDMDL
