MODEL 1
REMARK VINA RESULT:      -8.2      0.000      0.000
REMARK  Name = 352769
REMARK  10 active torsions:
REMARK  status: ('A' for Active; 'I' for Inactive)
REMARK    1  A    between atoms: C_6  and  C_10
REMARK    2  A    between atoms: C_12  and  O_16
REMARK    3  A    between atoms: C_14  and  O_19
REMARK    4  A    between atoms: O_16  and  C_21
REMARK    5  A    between atoms: N_18  and  C_23
REMARK    6  A    between atoms: C_21  and  C_25
REMARK    7  A    between atoms: C_23  and  C_27
REMARK    8  A    between atoms: C_27  and  C_32
REMARK    9  A    between atoms: C_32  and  C_33
REMARK   10  A    between atoms: C_32  and  C_34
REMARK                            x       y       z     vdW  Elec       q    Type
REMARK                         _______ _______ _______ _____ _____    ______ ____
ROOT
ATOM      1  S   UNL     1     -11.725  55.318  49.543  0.00  0.00    +0.000 S 
ATOM      2  O   UNL     1     -12.555  54.286  48.953  0.00  0.00    +0.000 OA
ATOM      3  O   UNL     1     -10.976  56.230  48.701  0.00  0.00    +0.000 OA
ATOM      4  N   UNL     1     -10.687  54.597  50.551  0.00  0.00    +0.000 N 
ATOM      5  C   UNL     1     -12.804  56.321  50.494  0.00  0.00    +0.000 A 
ATOM      6  C   UNL     1     -10.809  54.714  51.841  0.00  0.00    +0.000 C 
ATOM      7  C   UNL     1     -12.704  56.253  51.873  0.00  0.00    +0.000 A 
ATOM      8  C   UNL     1     -13.717  57.157  49.851  0.00  0.00    +0.000 A 
ATOM      9  N   UNL     1     -11.809  55.392  52.497  0.00  0.00    +0.000 N 
ATOM     10  C   UNL     1     -13.584  57.019  52.639  0.00  0.00    +0.000 A 
ATOM     11  C   UNL     1     -14.590  57.913  50.630  0.00  0.00    +0.000 A 
ATOM     12  C   UNL     1     -14.511  57.856  52.018  0.00  0.00    +0.000 A 
ATOM     13  H   UNL     1      -9.948  54.061  50.184  0.00  0.00    +0.000 HD
ATOM     14  H   UNL     1     -11.897  55.260  53.469  0.00  0.00    +0.000 HD
ENDROOT
BRANCH   6  15
ATOM     15  C   UNL     1      -9.728  54.067  52.676  0.00  0.00    +0.000 A 
ATOM     16  C   UNL     1      -8.338  54.618  52.627  0.00  0.00    +0.000 A 
ATOM     17  C   UNL     1     -10.008  53.017  53.467  0.00  0.00    +0.000 A 
ATOM     18  O   UNL     1      -8.130  55.637  51.962  0.00  0.00    +0.000 OA
ATOM     19  N   UNL     1      -7.351  53.969  53.335  0.00  0.00    +0.000 N 
ATOM     20  C   UNL     1      -8.934  52.350  54.206  0.00  0.00    +0.000 A 
ATOM     21  C   UNL     1      -7.619  52.814  54.112  0.00  0.00    +0.000 A 
ATOM     22  C   UNL     1      -9.173  51.207  54.977  0.00  0.00    +0.000 A 
ATOM     23  N   UNL     1      -6.583  52.200  54.730  0.00  0.00    +0.000 NA
ATOM     24  C   UNL     1      -8.117  50.559  55.603  0.00  0.00    +0.000 A 
ATOM     25  C   UNL     1      -6.850  51.088  55.449  0.00  0.00    +0.000 A 
BRANCH  17  26
ATOM     26  O   UNL     1     -11.264  52.463  53.632  0.00  0.00    +0.000 OA
ATOM     27  H   UNL     1     -12.026  52.950  53.387  0.00  0.00    +0.000 HD
ENDBRANCH  17  26
BRANCH  19  28
ATOM     28  C   UNL     1      -5.965  54.434  53.232  0.00  0.00    +0.000 C 
BRANCH  28  29
ATOM     29  C   UNL     1      -5.293  53.924  51.951  0.00  0.00    +0.000 C 
BRANCH  29  30
ATOM     30  C   UNL     1      -3.915  53.277  52.173  0.00  0.00    +0.000 C 
ATOM     31  C   UNL     1      -3.301  53.644  53.525  0.00  0.00    +0.000 C 
ATOM     32  C   UNL     1      -4.044  51.754  52.069  0.00  0.00    +0.000 C 
ENDBRANCH  29  30
ENDBRANCH  28  29
ENDBRANCH  19  28
ENDBRANCH   6  15
BRANCH  11  33
ATOM     33  O   UNL     1     -15.542  58.754  50.134  0.00  0.00    +0.000 OA
BRANCH  33  34
ATOM     34  C   UNL     1     -15.339  60.140  50.412  0.00  0.00    +0.000 C 
BRANCH  34  35
ATOM     35  C   UNL     1     -14.301  60.709  49.451  0.00  0.00    +0.000 C 
ATOM     36  O   UNL     1     -13.103  60.756  49.709  0.00  0.00    +0.000 OA
ATOM     37  N   UNL     1     -14.781  61.146  48.249  0.00  0.00    +0.000 N 
ATOM     38  H   UNL     1     -15.746  61.101  48.058  0.00  0.00    +0.000 HD
ATOM     39  H   UNL     1     -14.162  61.506  47.573  0.00  0.00    +0.000 HD
ENDBRANCH  34  35
ENDBRANCH  33  34
ENDBRANCH  11  33
TORSDOF 8
ENDMDL
MODEL 2
REMARK VINA RESULT:      -7.3      4.107      5.606
REMARK  Name = 352769
REMARK  10 active torsions:
REMARK  status: ('A' for Active; 'I' for Inactive)
REMARK    1  A    between atoms: C_6  and  C_10
REMARK    2  A    between atoms: C_12  and  O_16
REMARK    3  A    between atoms: C_14  and  O_19
REMARK    4  A    between atoms: O_16  and  C_21
REMARK    5  A    between atoms: N_18  and  C_23
REMARK    6  A    between atoms: C_21  and  C_25
REMARK    7  A    between atoms: C_23  and  C_27
REMARK    8  A    between atoms: C_27  and  C_32
REMARK    9  A    between atoms: C_32  and  C_33
REMARK   10  A    between atoms: C_32  and  C_34
REMARK                            x       y       z     vdW  Elec       q    Type
REMARK                         _______ _______ _______ _____ _____    ______ ____
ROOT
ATOM      1  S   UNL     1     -13.296  58.684  49.319  0.00  0.00    +0.000 S 
ATOM      2  O   UNL     1     -14.381  58.670  48.357  0.00  0.00    +0.000 OA
ATOM      3  O   UNL     1     -12.469  59.864  49.479  0.00  0.00    +0.000 OA
ATOM      4  N   UNL     1     -12.327  57.433  48.986  0.00  0.00    +0.000 N 
ATOM      5  C   UNL     1     -14.035  58.401  50.884  0.00  0.00    +0.000 A 
ATOM      6  C   UNL     1     -12.283  56.389  49.762  0.00  0.00    +0.000 C 
ATOM      7  C   UNL     1     -13.803  57.183  51.499  0.00  0.00    +0.000 A 
ATOM      8  C   UNL     1     -14.819  59.397  51.468  0.00  0.00    +0.000 A 
ATOM      9  N   UNL     1     -13.045  56.191  50.889  0.00  0.00    +0.000 N 
ATOM     10  C   UNL     1     -14.418  56.934  52.727  0.00  0.00    +0.000 A 
ATOM     11  C   UNL     1     -15.427  59.132  52.693  0.00  0.00    +0.000 A 
ATOM     12  C   UNL     1     -15.213  57.910  53.326  0.00  0.00    +0.000 A 
ATOM     13  H   UNL     1     -11.759  57.461  48.182  0.00  0.00    +0.000 HD
ATOM     14  H   UNL     1     -13.053  55.291  51.289  0.00  0.00    +0.000 HD
ENDROOT
BRANCH   6  15
ATOM     15  C   UNL     1     -11.277  55.324  49.392  0.00  0.00    +0.000 A 
ATOM     16  C   UNL     1     -11.393  54.638  48.067  0.00  0.00    +0.000 A 
ATOM     17  C   UNL     1     -10.277  55.002  50.231  0.00  0.00    +0.000 A 
ATOM     18  O   UNL     1     -12.265  55.016  47.280  0.00  0.00    +0.000 OA
ATOM     19  N   UNL     1     -10.513  53.618  47.779  0.00  0.00    +0.000 N 
ATOM     20  C   UNL     1      -9.360  53.912  49.893  0.00  0.00    +0.000 A 
ATOM     21  C   UNL     1      -9.503  53.217  48.689  0.00  0.00    +0.000 A 
ATOM     22  C   UNL     1      -8.357  53.496  50.776  0.00  0.00    +0.000 A 
ATOM     23  N   UNL     1      -8.717  52.166  48.356  0.00  0.00    +0.000 NA
ATOM     24  C   UNL     1      -7.555  52.410  50.454  0.00  0.00    +0.000 A 
ATOM     25  C   UNL     1      -7.773  51.782  49.243  0.00  0.00    +0.000 A 
BRANCH  17  26
ATOM     26  O   UNL     1     -10.042  55.609  51.451  0.00  0.00    +0.000 OA
ATOM     27  H   UNL     1      -9.333  56.214  51.545  0.00  0.00    +0.000 HD
ENDBRANCH  17  26
BRANCH  19  28
ATOM     28  C   UNL     1     -10.662  52.869  46.528  0.00  0.00    +0.000 C 
BRANCH  28  29
ATOM     29  C   UNL     1     -10.176  53.683  45.322  0.00  0.00    +0.000 C 
BRANCH  29  30
ATOM     30  C   UNL     1      -8.709  53.428  44.935  0.00  0.00    +0.000 C 
ATOM     31  C   UNL     1      -8.538  53.110  43.448  0.00  0.00    +0.000 C 
ATOM     32  C   UNL     1      -7.866  54.657  45.293  0.00  0.00    +0.000 C 
ENDBRANCH  29  30
ENDBRANCH  28  29
ENDBRANCH  19  28
ENDBRANCH   6  15
BRANCH  11  33
ATOM     33  O   UNL     1     -16.232  60.003  53.364  0.00  0.00    +0.000 OA
BRANCH  33  34
ATOM     34  C   UNL     1     -16.098  59.989  54.786  0.00  0.00    +0.000 C 
BRANCH  34  35
ATOM     35  C   UNL     1     -17.124  60.931  55.407  0.00  0.00    +0.000 C 
ATOM     36  O   UNL     1     -17.620  61.875  54.802  0.00  0.00    +0.000 OA
ATOM     37  N   UNL     1     -17.494  60.644  56.690  0.00  0.00    +0.000 N 
ATOM     38  H   UNL     1     -17.087  59.881  57.161  0.00  0.00    +0.000 HD
ATOM     39  H   UNL     1     -18.168  61.199  57.144  0.00  0.00    +0.000 HD
ENDBRANCH  34  35
ENDBRANCH  33  34
ENDBRANCH  11  33
TORSDOF 8
ENDMDL
MODEL 3
REMARK VINA RESULT:      -7.2      3.593      5.289
REMARK  Name = 352769
REMARK  10 active torsions:
REMARK  status: ('A' for Active; 'I' for Inactive)
REMARK    1  A    between atoms: C_6  and  C_10
REMARK    2  A    between atoms: C_12  and  O_16
REMARK    3  A    between atoms: C_14  and  O_19
REMARK    4  A    between atoms: O_16  and  C_21
REMARK    5  A    between atoms: N_18  and  C_23
REMARK    6  A    between atoms: C_21  and  C_25
REMARK    7  A    between atoms: C_23  and  C_27
REMARK    8  A    between atoms: C_27  and  C_32
REMARK    9  A    between atoms: C_32  and  C_33
REMARK   10  A    between atoms: C_32  and  C_34
REMARK                            x       y       z     vdW  Elec       q    Type
REMARK                         _______ _______ _______ _____ _____    ______ ____
ROOT
ATOM      1  S   UNL     1     -13.403  59.050  49.316  0.00  0.00    +0.000 S 
ATOM      2  O   UNL     1     -14.507  59.011  48.377  0.00  0.00    +0.000 OA
ATOM      3  O   UNL     1     -12.653  60.274  49.521  0.00  0.00    +0.000 OA
ATOM      4  N   UNL     1     -12.360  57.887  48.898  0.00  0.00    +0.000 N 
ATOM      5  C   UNL     1     -14.083  58.638  50.879  0.00  0.00    +0.000 A 
ATOM      6  C   UNL     1     -12.227  56.810  49.616  0.00  0.00    +0.000 C 
ATOM      7  C   UNL     1     -13.755  57.408  51.424  0.00  0.00    +0.000 A 
ATOM      8  C   UNL     1     -14.918  59.546  51.531  0.00  0.00    +0.000 A 
ATOM      9  N   UNL     1     -12.946  56.503  50.747  0.00  0.00    +0.000 N 
ATOM     10  C   UNL     1     -14.321  57.055  52.650  0.00  0.00    +0.000 A 
ATOM     11  C   UNL     1     -15.477  59.177  52.752  0.00  0.00    +0.000 A 
ATOM     12  C   UNL     1     -15.165  57.943  53.316  0.00  0.00    +0.000 A 
ATOM     13  H   UNL     1     -11.815  57.995  48.085  0.00  0.00    +0.000 HD
ATOM     14  H   UNL     1     -12.883  55.586  51.099  0.00  0.00    +0.000 HD
ENDROOT
BRANCH   6  15
ATOM     15  C   UNL     1     -11.160  55.837  49.170  0.00  0.00    +0.000 A 
ATOM     16  C   UNL     1     -10.213  55.276  50.184  0.00  0.00    +0.000 A 
ATOM     17  C   UNL     1     -11.066  55.464  47.883  0.00  0.00    +0.000 A 
ATOM     18  O   UNL     1     -10.380  55.566  51.372  0.00  0.00    +0.000 OA
ATOM     19  N   UNL     1      -9.201  54.450  49.748  0.00  0.00    +0.000 N 
ATOM     20  C   UNL     1      -9.977  54.585  47.453  0.00  0.00    +0.000 A 
ATOM     21  C   UNL     1      -9.045  54.111  48.380  0.00  0.00    +0.000 A 
ATOM     22  C   UNL     1      -9.800  54.238  46.109  0.00  0.00    +0.000 A 
ATOM     23  N   UNL     1      -7.988  53.342  48.025  0.00  0.00    +0.000 NA
ATOM     24  C   UNL     1      -8.712  53.464  45.729  0.00  0.00    +0.000 A 
ATOM     25  C   UNL     1      -7.840  53.046  46.715  0.00  0.00    +0.000 A 
BRANCH  17  26
ATOM     26  O   UNL     1     -11.920  55.875  46.876  0.00  0.00    +0.000 OA
ATOM     27  H   UNL     1     -12.688  56.369  47.085  0.00  0.00    +0.000 HD
ENDBRANCH  17  26
BRANCH  19  28
ATOM     28  C   UNL     1      -8.207  53.960  50.706  0.00  0.00    +0.000 C 
BRANCH  28  29
ATOM     29  C   UNL     1      -7.154  55.029  51.023  0.00  0.00    +0.000 C 
BRANCH  29  30
ATOM     30  C   UNL     1      -5.702  54.583  50.772  0.00  0.00    +0.000 C 
ATOM     31  C   UNL     1      -5.538  53.063  50.808  0.00  0.00    +0.000 C 
ATOM     32  C   UNL     1      -5.233  55.115  49.414  0.00  0.00    +0.000 C 
ENDBRANCH  29  30
ENDBRANCH  28  29
ENDBRANCH  19  28
ENDBRANCH   6  15
BRANCH  11  33
ATOM     33  O   UNL     1     -16.322  59.956  53.485  0.00  0.00    +0.000 OA
BRANCH  33  34
ATOM     34  C   UNL     1     -16.125  59.911  54.899  0.00  0.00    +0.000 C 
BRANCH  34  35
ATOM     35  C   UNL     1     -17.120  60.841  55.585  0.00  0.00    +0.000 C 
ATOM     36  O   UNL     1     -17.609  61.823  55.036  0.00  0.00    +0.000 OA
ATOM     37  N   UNL     1     -17.470  60.500  56.861  0.00  0.00    +0.000 N 
ATOM     38  H   UNL     1     -17.069  59.709  57.287  0.00  0.00    +0.000 HD
ATOM     39  H   UNL     1     -18.124  61.046  57.354  0.00  0.00    +0.000 HD
ENDBRANCH  34  35
ENDBRANCH  33  34
ENDBRANCH  11  33
TORSDOF 8
ENDMDL
MODEL 4
REMARK VINA RESULT:      -7.1      2.729      3.948
REMARK  Name = 352769
REMARK  10 active torsions:
REMARK  status: ('A' for Active; 'I' for Inactive)
REMARK    1  A    between atoms: C_6  and  C_10
REMARK    2  A    between atoms: C_12  and  O_16
REMARK    3  A    between atoms: C_14  and  O_19
REMARK    4  A    between atoms: O_16  and  C_21
REMARK    5  A    between atoms: N_18  and  C_23
REMARK    6  A    between atoms: C_21  and  C_25
REMARK    7  A    between atoms: C_23  and  C_27
REMARK    8  A    between atoms: C_27  and  C_32
REMARK    9  A    between atoms: C_32  and  C_33
REMARK   10  A    between atoms: C_32  and  C_34
REMARK                            x       y       z     vdW  Elec       q    Type
REMARK                         _______ _______ _______ _____ _____    ______ ____
ROOT
ATOM      1  S   UNL     1     -11.360  54.449  47.929  0.00  0.00    +0.000 S 
ATOM      2  O   UNL     1     -12.236  53.355  47.557  0.00  0.00    +0.000 OA
ATOM      3  O   UNL     1     -11.197  55.593  47.052  0.00  0.00    +0.000 OA
ATOM      4  N   UNL     1      -9.896  53.829  48.222  0.00  0.00    +0.000 N 
ATOM      5  C   UNL     1     -11.995  55.086  49.434  0.00  0.00    +0.000 A 
ATOM      6  C   UNL     1      -9.425  53.754  49.433  0.00  0.00    +0.000 C 
ATOM      7  C   UNL     1     -11.266  54.865  50.590  0.00  0.00    +0.000 A 
ATOM      8  C   UNL     1     -13.196  55.798  49.432  0.00  0.00    +0.000 A 
ATOM      9  N   UNL     1     -10.088  54.128  50.578  0.00  0.00    +0.000 N 
ATOM     10  C   UNL     1     -11.782  55.335  51.798  0.00  0.00    +0.000 A 
ATOM     11  C   UNL     1     -13.698  56.258  50.646  0.00  0.00    +0.000 A 
ATOM     12  C   UNL     1     -12.984  56.041  51.822  0.00  0.00    +0.000 A 
ATOM     13  H   UNL     1      -9.349  53.503  47.471  0.00  0.00    +0.000 HD
ATOM     14  H   UNL     1      -9.703  53.859  51.443  0.00  0.00    +0.000 HD
ENDROOT
BRANCH   6  15
ATOM     15  C   UNL     1      -8.013  53.235  49.570  0.00  0.00    +0.000 A 
ATOM     16  C   UNL     1      -7.043  53.976  50.436  0.00  0.00    +0.000 A 
ATOM     17  C   UNL     1      -7.628  52.114  48.937  0.00  0.00    +0.000 A 
ATOM     18  O   UNL     1      -7.449  54.951  51.077  0.00  0.00    +0.000 OA
ATOM     19  N   UNL     1      -5.741  53.532  50.489  0.00  0.00    +0.000 N 
ATOM     20  C   UNL     1      -6.235  51.670  49.015  0.00  0.00    +0.000 A 
ATOM     21  C   UNL     1      -5.305  52.395  49.764  0.00  0.00    +0.000 A 
ATOM     22  C   UNL     1      -5.780  50.553  48.305  0.00  0.00    +0.000 A 
ATOM     23  N   UNL     1      -3.994  52.059  49.822  0.00  0.00    +0.000 NA
ATOM     24  C   UNL     1      -4.436  50.207  48.343  0.00  0.00    +0.000 A 
ATOM     25  C   UNL     1      -3.589  50.986  49.108  0.00  0.00    +0.000 A 
BRANCH  17  26
ATOM     26  O   UNL     1      -8.453  51.322  48.160  0.00  0.00    +0.000 OA
ATOM     27  H   UNL     1      -8.798  51.653  47.354  0.00  0.00    +0.000 HD
ENDBRANCH  17  26
BRANCH  19  28
ATOM     28  C   UNL     1      -4.751  54.291  51.257  0.00  0.00    +0.000 C 
BRANCH  28  29
ATOM     29  C   UNL     1      -4.669  53.804  52.710  0.00  0.00    +0.000 C 
BRANCH  29  30
ATOM     30  C   UNL     1      -5.028  54.872  53.758  0.00  0.00    +0.000 C 
ATOM     31  C   UNL     1      -5.959  54.339  54.848  0.00  0.00    +0.000 C 
ATOM     32  C   UNL     1      -3.744  55.406  54.402  0.00  0.00    +0.000 C 
ENDBRANCH  29  30
ENDBRANCH  28  29
ENDBRANCH  19  28
ENDBRANCH   6  15
BRANCH  11  33
ATOM     33  O   UNL     1     -14.866  56.946  50.791  0.00  0.00    +0.000 OA
BRANCH  33  34
ATOM     34  C   UNL     1     -15.195  57.317  52.131  0.00  0.00    +0.000 C 
BRANCH  34  35
ATOM     35  C   UNL     1     -15.074  58.829  52.289  0.00  0.00    +0.000 C 
ATOM     36  O   UNL     1     -14.843  59.585  51.352  0.00  0.00    +0.000 OA
ATOM     37  N   UNL     1     -15.270  59.312  53.552  0.00  0.00    +0.000 N 
ATOM     38  H   UNL     1     -15.455  58.691  54.294  0.00  0.00    +0.000 HD
ATOM     39  H   UNL     1     -15.227  60.280  53.721  0.00  0.00    +0.000 HD
ENDBRANCH  34  35
ENDBRANCH  33  34
ENDBRANCH  11  33
TORSDOF 8
ENDMDL
MODEL 5
REMARK VINA RESULT:      -7.1      4.648      6.170
REMARK  Name = 352769
REMARK  10 active torsions:
REMARK  status: ('A' for Active; 'I' for Inactive)
REMARK    1  A    between atoms: C_6  and  C_10
REMARK    2  A    between atoms: C_12  and  O_16
REMARK    3  A    between atoms: C_14  and  O_19
REMARK    4  A    between atoms: O_16  and  C_21
REMARK    5  A    between atoms: N_18  and  C_23
REMARK    6  A    between atoms: C_21  and  C_25
REMARK    7  A    between atoms: C_23  and  C_27
REMARK    8  A    between atoms: C_27  and  C_32
REMARK    9  A    between atoms: C_32  and  C_33
REMARK   10  A    between atoms: C_32  and  C_34
REMARK                            x       y       z     vdW  Elec       q    Type
REMARK                         _______ _______ _______ _____ _____    ______ ____
ROOT
ATOM      1  S   UNL     1     -11.615  54.716  50.628  0.00  0.00    +0.000 S 
ATOM      2  O   UNL     1     -10.665  55.457  51.433  0.00  0.00    +0.000 OA
ATOM      3  O   UNL     1     -12.494  53.738  51.239  0.00  0.00    +0.000 OA
ATOM      4  N   UNL     1     -10.791  53.981  49.446  0.00  0.00    +0.000 N 
ATOM      5  C   UNL     1     -12.667  55.914  49.897  0.00  0.00    +0.000 A 
ATOM      6  C   UNL     1     -10.879  54.383  48.212  0.00  0.00    +0.000 C 
ATOM      7  C   UNL     1     -12.552  56.132  48.535  0.00  0.00    +0.000 A 
ATOM      8  C   UNL     1     -13.587  56.602  50.689  0.00  0.00    +0.000 A 
ATOM      9  N   UNL     1     -11.609  55.459  47.766  0.00  0.00    +0.000 N 
ATOM     10  C   UNL     1     -13.358  57.110  47.951  0.00  0.00    +0.000 A 
ATOM     11  C   UNL     1     -14.382  57.576  50.092  0.00  0.00    +0.000 A 
ATOM     12  C   UNL     1     -14.278  57.817  48.724  0.00  0.00    +0.000 A 
ATOM     13  H   UNL     1     -10.212  53.215  49.663  0.00  0.00    +0.000 HD
ATOM     14  H   UNL     1     -11.455  55.772  46.845  0.00  0.00    +0.000 HD
ENDROOT
BRANCH   6  15
ATOM     15  C   UNL     1     -10.129  53.564  47.187  0.00  0.00    +0.000 A 
ATOM     16  C   UNL     1      -8.777  53.023  47.531  0.00  0.00    +0.000 A 
ATOM     17  C   UNL     1     -10.670  53.306  45.984  0.00  0.00    +0.000 A 
ATOM     18  O   UNL     1      -8.344  53.199  48.674  0.00  0.00    +0.000 OA
ATOM     19  N   UNL     1      -8.078  52.343  46.559  0.00  0.00    +0.000 N 
ATOM     20  C   UNL     1      -9.898  52.580  44.974  0.00  0.00    +0.000 A 
ATOM     21  C   UNL     1      -8.606  52.133  45.261  0.00  0.00    +0.000 A 
ATOM     22  C   UNL     1     -10.397  52.363  43.685  0.00  0.00    +0.000 A 
ATOM     23  N   UNL     1      -7.830  51.507  44.344  0.00  0.00    +0.000 NA
ATOM     24  C   UNL     1      -9.607  51.737  42.731  0.00  0.00    +0.000 A 
ATOM     25  C   UNL     1      -8.340  51.333  43.105  0.00  0.00    +0.000 A 
BRANCH  17  26
ATOM     26  O   UNL     1     -11.932  53.707  45.582  0.00  0.00    +0.000 OA
ATOM     27  H   UNL     1     -12.689  53.246  45.886  0.00  0.00    +0.000 HD
ENDBRANCH  17  26
BRANCH  19  28
ATOM     28  C   UNL     1      -6.715  51.882  46.841  0.00  0.00    +0.000 C 
BRANCH  28  29
ATOM     29  C   UNL     1      -5.735  53.057  46.954  0.00  0.00    +0.000 C 
BRANCH  29  30
ATOM     30  C   UNL     1      -4.763  52.958  48.143  0.00  0.00    +0.000 C 
ATOM     31  C   UNL     1      -4.832  54.176  49.065  0.00  0.00    +0.000 C 
ATOM     32  C   UNL     1      -5.070  51.691  48.949  0.00  0.00    +0.000 C 
ENDBRANCH  29  30
ENDBRANCH  28  29
ENDBRANCH  19  28
ENDBRANCH   6  15
BRANCH  11  33
ATOM     33  O   UNL     1     -15.304  58.335  50.749  0.00  0.00    +0.000 OA
BRANCH  33  34
ATOM     34  C   UNL     1     -14.769  59.390  51.550  0.00  0.00    +0.000 C 
BRANCH  34  35
ATOM     35  C   UNL     1     -15.205  59.203  53.000  0.00  0.00    +0.000 C 
ATOM     36  O   UNL     1     -15.991  59.954  53.566  0.00  0.00    +0.000 OA
ATOM     37  N   UNL     1     -14.685  58.114  53.640  0.00  0.00    +0.000 N 
ATOM     38  H   UNL     1     -14.054  57.521  53.171  0.00  0.00    +0.000 HD
ATOM     39  H   UNL     1     -14.940  57.923  54.571  0.00  0.00    +0.000 HD
ENDBRANCH  34  35
ENDBRANCH  33  34
ENDBRANCH  11  33
TORSDOF 8
ENDMDL
MODEL 6
REMARK VINA RESULT:      -6.9      3.658      9.252
REMARK  Name = 352769
REMARK  10 active torsions:
REMARK  status: ('A' for Active; 'I' for Inactive)
REMARK    1  A    between atoms: C_6  and  C_10
REMARK    2  A    between atoms: C_12  and  O_16
REMARK    3  A    between atoms: C_14  and  O_19
REMARK    4  A    between atoms: O_16  and  C_21
REMARK    5  A    between atoms: N_18  and  C_23
REMARK    6  A    between atoms: C_21  and  C_25
REMARK    7  A    between atoms: C_23  and  C_27
REMARK    8  A    between atoms: C_27  and  C_32
REMARK    9  A    between atoms: C_32  and  C_33
REMARK   10  A    between atoms: C_32  and  C_34
REMARK                            x       y       z     vdW  Elec       q    Type
REMARK                         _______ _______ _______ _____ _____    ______ ____
ROOT
ATOM      1  S   UNL     1      -9.396  52.658  52.875  0.00  0.00    +0.000 S 
ATOM      2  O   UNL     1      -9.360  51.241  52.571  0.00  0.00    +0.000 OA
ATOM      3  O   UNL     1      -9.829  53.120  54.180  0.00  0.00    +0.000 OA
ATOM      4  N   UNL     1     -10.315  53.378  51.757  0.00  0.00    +0.000 N 
ATOM      5  C   UNL     1      -7.751  53.235  52.685  0.00  0.00    +0.000 A 
ATOM      6  C   UNL     1      -9.791  54.139  50.841  0.00  0.00    +0.000 C 
ATOM      7  C   UNL     1      -7.474  54.057  51.606  0.00  0.00    +0.000 A 
ATOM      8  C   UNL     1      -6.777  52.867  53.614  0.00  0.00    +0.000 A 
ATOM      9  N   UNL     1      -8.450  54.389  50.674  0.00  0.00    +0.000 N 
ATOM     10  C   UNL     1      -6.160  54.491  51.424  0.00  0.00    +0.000 A 
ATOM     11  C   UNL     1      -5.470  53.306  53.417  0.00  0.00    +0.000 A 
ATOM     12  C   UNL     1      -5.168  54.129  52.335  0.00  0.00    +0.000 A 
ATOM     13  H   UNL     1     -11.290  53.240  51.769  0.00  0.00    +0.000 HD
ATOM     14  H   UNL     1      -8.163  54.833  49.842  0.00  0.00    +0.000 HD
ENDROOT
BRANCH   6  15
ATOM     15  C   UNL     1     -10.761  54.824  49.906  0.00  0.00    +0.000 A 
ATOM     16  C   UNL     1     -10.681  54.545  48.438  0.00  0.00    +0.000 A 
ATOM     17  C   UNL     1     -11.696  55.664  50.381  0.00  0.00    +0.000 A 
ATOM     18  O   UNL     1      -9.872  53.702  48.040  0.00  0.00    +0.000 OA
ATOM     19  N   UNL     1     -11.522  55.235  47.594  0.00  0.00    +0.000 N 
ATOM     20  C   UNL     1     -12.574  56.381  49.455  0.00  0.00    +0.000 A 
ATOM     21  C   UNL     1     -12.461  56.181  48.077  0.00  0.00    +0.000 A 
ATOM     22  C   UNL     1     -13.506  57.322  49.907  0.00  0.00    +0.000 A 
ATOM     23  N   UNL     1     -13.209  56.862  47.177  0.00  0.00    +0.000 NA
ATOM     24  C   UNL     1     -14.269  58.038  48.994  0.00  0.00    +0.000 A 
ATOM     25  C   UNL     1     -14.084  57.776  47.651  0.00  0.00    +0.000 A 
BRANCH  17  26
ATOM     26  O   UNL     1     -11.896  55.950  51.719  0.00  0.00    +0.000 OA
ATOM     27  H   UNL     1     -11.382  55.518  52.373  0.00  0.00    +0.000 HD
ENDBRANCH  17  26
BRANCH  19  28
ATOM     28  C   UNL     1     -11.403  55.048  46.145  0.00  0.00    +0.000 C 
BRANCH  28  29
ATOM     29  C   UNL     1     -11.892  53.659  45.714  0.00  0.00    +0.000 C 
BRANCH  29  30
ATOM     30  C   UNL     1     -11.116  53.053  44.531  0.00  0.00    +0.000 C 
ATOM     31  C   UNL     1      -9.606  53.264  44.645  0.00  0.00    +0.000 C 
ATOM     32  C   UNL     1     -11.416  51.553  44.440  0.00  0.00    +0.000 C 
ENDBRANCH  29  30
ENDBRANCH  28  29
ENDBRANCH  19  28
ENDBRANCH   6  15
BRANCH  11  33
ATOM     33  O   UNL     1      -4.420  53.006  54.232  0.00  0.00    +0.000 OA
BRANCH  33  34
ATOM     34  C   UNL     1      -3.300  52.396  53.588  0.00  0.00    +0.000 C 
BRANCH  34  35
ATOM     35  C   UNL     1      -3.544  50.897  53.447  0.00  0.00    +0.000 C 
ATOM     36  O   UNL     1      -3.549  50.126  54.399  0.00  0.00    +0.000 OA
ATOM     37  N   UNL     1      -3.794  50.453  52.179  0.00  0.00    +0.000 N 
ATOM     38  H   UNL     1      -3.786  51.086  51.425  0.00  0.00    +0.000 HD
ATOM     39  H   UNL     1      -3.980  49.500  52.019  0.00  0.00    +0.000 HD
ENDBRANCH  34  35
ENDBRANCH  33  34
ENDBRANCH  11  33
TORSDOF 8
ENDMDL
MODEL 7
REMARK VINA RESULT:      -6.9      3.085      9.656
REMARK  Name = 352769
REMARK  10 active torsions:
REMARK  status: ('A' for Active; 'I' for Inactive)
REMARK    1  A    between atoms: C_6  and  C_10
REMARK    2  A    between atoms: C_12  and  O_16
REMARK    3  A    between atoms: C_14  and  O_19
REMARK    4  A    between atoms: O_16  and  C_21
REMARK    5  A    between atoms: N_18  and  C_23
REMARK    6  A    between atoms: C_21  and  C_25
REMARK    7  A    between atoms: C_23  and  C_27
REMARK    8  A    between atoms: C_27  and  C_32
REMARK    9  A    between atoms: C_32  and  C_33
REMARK   10  A    between atoms: C_32  and  C_34
REMARK                            x       y       z     vdW  Elec       q    Type
REMARK                         _______ _______ _______ _____ _____    ______ ____
ROOT
ATOM      1  S   UNL     1      -7.489  54.843  52.925  0.00  0.00    +0.000 S 
ATOM      2  O   UNL     1      -7.768  53.920  54.007  0.00  0.00    +0.000 OA
ATOM      3  O   UNL     1      -6.677  56.022  53.153  0.00  0.00    +0.000 OA
ATOM      4  N   UNL     1      -8.906  55.322  52.310  0.00  0.00    +0.000 N 
ATOM      5  C   UNL     1      -6.649  53.912  51.700  0.00  0.00    +0.000 A 
ATOM      6  C   UNL     1      -9.305  54.916  51.140  0.00  0.00    +0.000 C 
ATOM      7  C   UNL     1      -7.322  53.631  50.523  0.00  0.00    +0.000 A 
ATOM      8  C   UNL     1      -5.339  53.490  51.930  0.00  0.00    +0.000 A 
ATOM      9  N   UNL     1      -8.638  54.034  50.323  0.00  0.00    +0.000 N 
ATOM     10  C   UNL     1      -6.675  52.859  49.558  0.00  0.00    +0.000 A 
ATOM     11  C   UNL     1      -4.708  52.718  50.957  0.00  0.00    +0.000 A 
ATOM     12  C   UNL     1      -5.370  52.418  49.769  0.00  0.00    +0.000 A 
ATOM     13  H   UNL     1      -9.478  55.933  52.829  0.00  0.00    +0.000 HD
ATOM     14  H   UNL     1      -9.121  53.665  49.548  0.00  0.00    +0.000 HD
ENDROOT
BRANCH   6  15
ATOM     15  C   UNL     1     -10.606  55.499  50.637  0.00  0.00    +0.000 A 
ATOM     16  C   UNL     1     -11.731  55.711  51.599  0.00  0.00    +0.000 A 
ATOM     17  C   UNL     1     -10.752  55.841  49.346  0.00  0.00    +0.000 A 
ATOM     18  O   UNL     1     -11.539  55.473  52.796  0.00  0.00    +0.000 OA
ATOM     19  N   UNL     1     -12.933  56.173  51.110  0.00  0.00    +0.000 N 
ATOM     20  C   UNL     1     -12.043  56.329  48.859  0.00  0.00    +0.000 A 
ATOM     21  C   UNL     1     -13.123  56.463  49.736  0.00  0.00    +0.000 A 
ATOM     22  C   UNL     1     -12.256  56.619  47.506  0.00  0.00    +0.000 A 
ATOM     23  N   UNL     1     -14.352  56.856  49.325  0.00  0.00    +0.000 NA
ATOM     24  C   UNL     1     -13.515  57.007  47.069  0.00  0.00    +0.000 A 
ATOM     25  C   UNL     1     -14.523  57.108  48.009  0.00  0.00    +0.000 A 
BRANCH  17  26
ATOM     26  O   UNL     1      -9.762  55.742  48.385  0.00  0.00    +0.000 OA
ATOM     27  H   UNL     1      -9.890  55.194  47.635  0.00  0.00    +0.000 HD
ENDBRANCH  17  26
BRANCH  19  28
ATOM     28  C   UNL     1     -14.078  56.303  52.015  0.00  0.00    +0.000 C 
BRANCH  28  29
ATOM     29  C   UNL     1     -14.056  57.642  52.764  0.00  0.00    +0.000 C 
BRANCH  29  30
ATOM     30  C   UNL     1     -14.982  58.717  52.168  0.00  0.00    +0.000 C 
ATOM     31  C   UNL     1     -15.662  59.570  53.239  0.00  0.00    +0.000 C 
ATOM     32  C   UNL     1     -14.174  59.624  51.233  0.00  0.00    +0.000 C 
ENDBRANCH  29  30
ENDBRANCH  28  29
ENDBRANCH  19  28
ENDBRANCH   6  15
BRANCH  11  33
ATOM     33  O   UNL     1      -3.442  52.224  51.061  0.00  0.00    +0.000 OA
BRANCH  33  34
ATOM     34  C   UNL     1      -3.301  50.835  50.757  0.00  0.00    +0.000 C 
BRANCH  34  35
ATOM     35  C   UNL     1      -3.949  50.001  51.857  0.00  0.00    +0.000 C 
ATOM     36  O   UNL     1      -3.673  50.127  53.044  0.00  0.00    +0.000 OA
ATOM     37  N   UNL     1      -4.897  49.108  51.444  0.00  0.00    +0.000 N 
ATOM     38  H   UNL     1      -5.107  49.019  50.486  0.00  0.00    +0.000 HD
ATOM     39  H   UNL     1      -5.370  48.552  52.105  0.00  0.00    +0.000 HD
ENDBRANCH  34  35
ENDBRANCH  33  34
ENDBRANCH  11  33
TORSDOF 8
ENDMDL
MODEL 8
REMARK VINA RESULT:      -6.8      3.208      9.602
REMARK  Name = 352769
REMARK  10 active torsions:
REMARK  status: ('A' for Active; 'I' for Inactive)
REMARK    1  A    between atoms: C_6  and  C_10
REMARK    2  A    between atoms: C_12  and  O_16
REMARK    3  A    between atoms: C_14  and  O_19
REMARK    4  A    between atoms: O_16  and  C_21
REMARK    5  A    between atoms: N_18  and  C_23
REMARK    6  A    between atoms: C_21  and  C_25
REMARK    7  A    between atoms: C_23  and  C_27
REMARK    8  A    between atoms: C_27  and  C_32
REMARK    9  A    between atoms: C_32  and  C_33
REMARK   10  A    between atoms: C_32  and  C_34
REMARK                            x       y       z     vdW  Elec       q    Type
REMARK                         _______ _______ _______ _____ _____    ______ ____
ROOT
ATOM      1  S   UNL     1      -7.414  52.499  49.256  0.00  0.00    +0.000 S 
ATOM      2  O   UNL     1      -6.651  52.709  48.041  0.00  0.00    +0.000 OA
ATOM      3  O   UNL     1      -7.774  51.159  49.676  0.00  0.00    +0.000 OA
ATOM      4  N   UNL     1      -8.771  53.371  49.142  0.00  0.00    +0.000 N 
ATOM      5  C   UNL     1      -6.444  53.164  50.556  0.00  0.00    +0.000 A 
ATOM      6  C   UNL     1      -8.946  54.442  49.860  0.00  0.00    +0.000 C 
ATOM      7  C   UNL     1      -6.884  54.328  51.162  0.00  0.00    +0.000 A 
ATOM      8  C   UNL     1      -5.275  52.511  50.951  0.00  0.00    +0.000 A 
ATOM      9  N   UNL     1      -8.034  54.982  50.736  0.00  0.00    +0.000 N 
ATOM     10  C   UNL     1      -6.099  54.886  52.173  0.00  0.00    +0.000 A 
ATOM     11  C   UNL     1      -4.503  53.082  51.959  0.00  0.00    +0.000 A 
ATOM     12  C   UNL     1      -4.923  54.256  52.578  0.00  0.00    +0.000 A 
ATOM     13  H   UNL     1      -9.478  53.087  48.520  0.00  0.00    +0.000 HD
ATOM     14  H   UNL     1      -8.207  55.887  51.084  0.00  0.00    +0.000 HD
ENDROOT
BRANCH   6  15
ATOM     15  C   UNL     1     -10.289  55.122  49.729  0.00  0.00    +0.000 A 
ATOM     16  C   UNL     1     -11.174  55.231  50.930  0.00  0.00    +0.000 A 
ATOM     17  C   UNL     1     -10.685  55.640  48.553  0.00  0.00    +0.000 A 
ATOM     18  O   UNL     1     -10.747  54.827  52.016  0.00  0.00    +0.000 OA
ATOM     19  N   UNL     1     -12.424  55.786  50.774  0.00  0.00    +0.000 N 
ATOM     20  C   UNL     1     -12.021  56.223  48.423  0.00  0.00    +0.000 A 
ATOM     21  C   UNL     1     -12.883  56.265  49.522  0.00  0.00    +0.000 A 
ATOM     22  C   UNL     1     -12.497  56.700  47.196  0.00  0.00    +0.000 A 
ATOM     23  N   UNL     1     -14.148  56.741  49.439  0.00  0.00    +0.000 NA
ATOM     24  C   UNL     1     -13.797  57.176  47.094  0.00  0.00    +0.000 A 
ATOM     25  C   UNL     1     -14.578  57.174  48.234  0.00  0.00    +0.000 A 
BRANCH  17  26
ATOM     26  O   UNL     1      -9.926  55.647  47.397  0.00  0.00    +0.000 OA
ATOM     27  H   UNL     1     -10.279  56.007  46.607  0.00  0.00    +0.000 HD
ENDBRANCH  17  26
BRANCH  19  28
ATOM     28  C   UNL     1     -13.345  55.821  51.914  0.00  0.00    +0.000 C 
BRANCH  28  29
ATOM     29  C   UNL     1     -13.246  57.148  52.677  0.00  0.00    +0.000 C 
BRANCH  29  30
ATOM     30  C   UNL     1     -14.599  57.841  52.922  0.00  0.00    +0.000 C 
ATOM     31  C   UNL     1     -14.768  59.115  52.092  0.00  0.00    +0.000 C 
ATOM     32  C   UNL     1     -15.736  56.867  52.597  0.00  0.00    +0.000 C 
ENDBRANCH  29  30
ENDBRANCH  28  29
ENDBRANCH  19  28
ENDBRANCH   6  15
BRANCH  11  33
ATOM     33  O   UNL     1      -3.332  52.563  52.427  0.00  0.00    +0.000 OA
BRANCH  33  34
ATOM     34  C   UNL     1      -3.402  51.962  53.721  0.00  0.00    +0.000 C 
BRANCH  34  35
ATOM     35  C   UNL     1      -3.433  50.444  53.579  0.00  0.00    +0.000 C 
ATOM     36  O   UNL     1      -3.309  49.679  54.528  0.00  0.00    +0.000 OA
ATOM     37  N   UNL     1      -3.642  49.970  52.314  0.00  0.00    +0.000 N 
ATOM     38  H   UNL     1      -3.740  50.598  51.563  0.00  0.00    +0.000 HD
ATOM     39  H   UNL     1      -3.693  49.000  52.155  0.00  0.00    +0.000 HD
ENDBRANCH  34  35
ENDBRANCH  33  34
ENDBRANCH  11  33
TORSDOF 8
ENDMDL
MODEL 9
REMARK VINA RESULT:      -6.7      4.902      9.485
REMARK  Name = 352769
REMARK  10 active torsions:
REMARK  status: ('A' for Active; 'I' for Inactive)
REMARK    1  A    between atoms: C_6  and  C_10
REMARK    2  A    between atoms: C_12  and  O_16
REMARK    3  A    between atoms: C_14  and  O_19
REMARK    4  A    between atoms: O_16  and  C_21
REMARK    5  A    between atoms: N_18  and  C_23
REMARK    6  A    between atoms: C_21  and  C_25
REMARK    7  A    between atoms: C_23  and  C_27
REMARK    8  A    between atoms: C_27  and  C_32
REMARK    9  A    between atoms: C_32  and  C_33
REMARK   10  A    between atoms: C_32  and  C_34
REMARK                            x       y       z     vdW  Elec       q    Type
REMARK                         _______ _______ _______ _____ _____    ______ ____
ROOT
ATOM      1  S   UNL     1      -7.739  51.363  51.163  0.00  0.00    +0.000 S 
ATOM      2  O   UNL     1      -7.233  50.005  51.226  0.00  0.00    +0.000 OA
ATOM      3  O   UNL     1      -8.704  51.834  52.137  0.00  0.00    +0.000 OA
ATOM      4  N   UNL     1      -8.363  51.586  49.688  0.00  0.00    +0.000 N 
ATOM      5  C   UNL     1      -6.341  52.407  51.329  0.00  0.00    +0.000 A 
ATOM      6  C   UNL     1      -7.768  52.342  48.812  0.00  0.00    +0.000 C 
ATOM      7  C   UNL     1      -5.928  53.119  50.215  0.00  0.00    +0.000 A 
ATOM      8  C   UNL     1      -5.693  52.505  52.561  0.00  0.00    +0.000 A 
ATOM      9  N   UNL     1      -6.567  52.987  48.988  0.00  0.00    +0.000 N 
ATOM     10  C   UNL     1      -4.794  53.924  50.327  0.00  0.00    +0.000 A 
ATOM     11  C   UNL     1      -4.561  53.311  52.655  0.00  0.00    +0.000 A 
ATOM     12  C   UNL     1      -4.124  54.030  51.546  0.00  0.00    +0.000 A 
ATOM     13  H   UNL     1      -9.209  51.144  49.448  0.00  0.00    +0.000 HD
ATOM     14  H   UNL     1      -6.133  53.380  48.196  0.00  0.00    +0.000 HD
ENDROOT
BRANCH   6  15
ATOM     15  C   UNL     1      -8.493  52.542  47.501  0.00  0.00    +0.000 A 
ATOM     16  C   UNL     1      -9.828  53.217  47.499  0.00  0.00    +0.000 A 
ATOM     17  C   UNL     1      -7.944  52.135  46.343  0.00  0.00    +0.000 A 
ATOM     18  O   UNL     1     -10.267  53.661  48.565  0.00  0.00    +0.000 OA
ATOM     19  N   UNL     1     -10.507  53.323  46.306  0.00  0.00    +0.000 N 
ATOM     20  C   UNL     1      -8.694  52.263  45.092  0.00  0.00    +0.000 A 
ATOM     21  C   UNL     1      -9.972  52.827  45.091  0.00  0.00    +0.000 A 
ATOM     22  C   UNL     1      -8.189  51.778  43.881  0.00  0.00    +0.000 A 
ATOM     23  N   UNL     1     -10.729  52.916  43.971  0.00  0.00    +0.000 NA
ATOM     24  C   UNL     1      -8.960  51.849  42.729  0.00  0.00    +0.000 A 
ATOM     25  C   UNL     1     -10.214  52.420  42.825  0.00  0.00    +0.000 A 
BRANCH  17  26
ATOM     26  O   UNL     1      -6.696  51.553  46.222  0.00  0.00    +0.000 OA
ATOM     27  H   UNL     1      -6.621  50.646  46.002  0.00  0.00    +0.000 HD
ENDBRANCH  17  26
BRANCH  19  28
ATOM     28  C   UNL     1     -11.855  53.898  46.292  0.00  0.00    +0.000 C 
BRANCH  28  29
ATOM     29  C   UNL     1     -11.820  55.423  46.456  0.00  0.00    +0.000 C 
BRANCH  29  30
ATOM     30  C   UNL     1     -12.625  55.950  47.657  0.00  0.00    +0.000 C 
ATOM     31  C   UNL     1     -11.732  56.510  48.766  0.00  0.00    +0.000 C 
ATOM     32  C   UNL     1     -13.593  57.039  47.183  0.00  0.00    +0.000 C 
ENDBRANCH  29  30
ENDBRANCH  28  29
ENDBRANCH  19  28
ENDBRANCH   6  15
BRANCH  11  33
ATOM     33  O   UNL     1      -3.822  53.480  53.788  0.00  0.00    +0.000 OA
BRANCH  33  34
ATOM     34  C   UNL     1      -3.937  54.762  54.408  0.00  0.00    +0.000 C 
BRANCH  34  35
ATOM     35  C   UNL     1      -5.410  55.131  54.550  0.00  0.00    +0.000 C 
ATOM     36  O   UNL     1      -5.949  56.008  53.885  0.00  0.00    +0.000 OA
ATOM     37  N   UNL     1      -6.121  54.397  55.457  0.00  0.00    +0.000 N 
ATOM     38  H   UNL     1      -5.673  53.696  55.983  0.00  0.00    +0.000 HD
ATOM     39  H   UNL     1      -7.082  54.569  55.585  0.00  0.00    +0.000 HD
ENDBRANCH  34  35
ENDBRANCH  33  34
ENDBRANCH  11  33
TORSDOF 8
ENDMDL
