MODEL 1
REMARK VINA RESULT:      -8.2      0.000      0.000
REMARK  Name = 353134
REMARK  8 active torsions:
REMARK  status: ('A' for Active; 'I' for Inactive)
REMARK    1  A    between atoms: C_6  and  C_10
REMARK    2  A    between atoms: C_12  and  N_16
REMARK    3  A    between atoms: C_14  and  O_19
REMARK    4  A    between atoms: N_18  and  C_22
REMARK    5  A    between atoms: C_22  and  C_25
REMARK    6  A    between atoms: C_25  and  C_28
REMARK    7  A    between atoms: C_28  and  C_29
REMARK    8  A    between atoms: C_28  and  C_30
REMARK                            x       y       z     vdW  Elec       q    Type
REMARK                         _______ _______ _______ _____ _____    ______ ____
ROOT
ATOM      1  C   UNL     1     -12.356  55.764  50.609  0.00  0.00    +0.000 A 
ATOM      2  C   UNL     1     -11.670  56.719  49.687  0.00  0.00    +0.000 A 
ATOM      3  C   UNL     1     -13.598  56.114  51.001  0.00  0.00    +0.000 A 
ATOM      4  O   UNL     1     -10.451  56.822  49.645  0.00  0.00    +0.000 OA
ATOM      5  N   UNL     1     -12.554  57.268  48.731  0.00  0.00    +0.000 N 
ATOM      6  C   UNL     1     -14.093  57.431  50.603  0.00  0.00    +0.000 A 
ATOM      7  C   UNL     1     -13.623  57.974  49.394  0.00  0.00    +0.000 A 
ATOM      8  C   UNL     1     -14.901  58.203  51.433  0.00  0.00    +0.000 A 
ATOM      9  N   UNL     1     -13.925  59.225  48.995  0.00  0.00    +0.000 NA
ATOM     10  C   UNL     1     -15.165  59.515  51.071  0.00  0.00    +0.000 A 
ATOM     11  C   UNL     1     -14.668  59.972  49.855  0.00  0.00    +0.000 A 
ENDROOT
BRANCH   1  17
ATOM     12  S   UNL     1     -10.984  52.232  49.894  0.00  0.00    +0.000 S 
ATOM     13  O   UNL     1     -12.007  51.258  49.586  0.00  0.00    +0.000 OA
ATOM     14  O   UNL     1      -9.748  52.284  49.119  0.00  0.00    +0.000 OA
ATOM     15  N   UNL     1     -11.622  53.700  49.845  0.00  0.00    +0.000 N 
ATOM     16  C   UNL     1     -10.495  51.930  51.546  0.00  0.00    +0.000 A 
ATOM     17  C   UNL     1     -11.818  54.409  50.902  0.00  0.00    +0.000 C 
ATOM     18  C   UNL     1     -10.813  52.870  52.514  0.00  0.00    +0.000 A 
ATOM     19  C   UNL     1      -9.785  50.762  51.818  0.00  0.00    +0.000 A 
ATOM     20  N   UNL     1     -11.498  54.044  52.194  0.00  0.00    +0.000 N 
ATOM     21  C   UNL     1     -10.328  52.638  53.805  0.00  0.00    +0.000 A 
ATOM     22  C   UNL     1      -9.386  50.494  53.119  0.00  0.00    +0.000 A 
ATOM     23  C   UNL     1      -9.609  51.468  54.097  0.00  0.00    +0.000 A 
ATOM     24  H   UNL     1     -11.874  54.076  48.970  0.00  0.00    +0.000 HD
ATOM     25  H   UNL     1     -11.767  54.642  52.928  0.00  0.00    +0.000 HD
BRANCH  22  26
ATOM     26  N   UNL     1      -8.572  49.388  53.375  0.00  0.00    +0.000 N 
ATOM     27  H   UNL     1      -8.876  48.685  53.992  0.00  0.00    +0.000 HD
ATOM     28  H   UNL     1      -7.693  49.312  52.937  0.00  0.00    +0.000 HD
ENDBRANCH  22  26
ENDBRANCH   1  17
BRANCH   3  29
ATOM     29  O   UNL     1     -14.501  55.322  51.674  0.00  0.00    +0.000 OA
ATOM     30  H   UNL     1     -14.344  55.088  52.567  0.00  0.00    +0.000 HD
ENDBRANCH   3  29
BRANCH   5  31
ATOM     31  C   UNL     1     -13.007  56.196  47.824  0.00  0.00    +0.000 C 
BRANCH  31  32
ATOM     32  C   UNL     1     -12.223  55.979  46.544  0.00  0.00    +0.000 C 
BRANCH  32  33
ATOM     33  C   UNL     1     -11.359  54.709  46.535  0.00  0.00    +0.000 C 
ATOM     34  C   UNL     1     -11.521  53.874  45.260  0.00  0.00    +0.000 C 
ATOM     35  C   UNL     1      -9.892  55.102  46.706  0.00  0.00    +0.000 C 
ENDBRANCH  32  33
ENDBRANCH  31  32
ENDBRANCH   5  31
TORSDOF 6
ENDMDL
MODEL 2
REMARK VINA RESULT:      -8.0      2.522      5.506
REMARK  Name = 353134
REMARK  8 active torsions:
REMARK  status: ('A' for Active; 'I' for Inactive)
REMARK    1  A    between atoms: C_6  and  C_10
REMARK    2  A    between atoms: C_12  and  N_16
REMARK    3  A    between atoms: C_14  and  O_19
REMARK    4  A    between atoms: N_18  and  C_22
REMARK    5  A    between atoms: C_22  and  C_25
REMARK    6  A    between atoms: C_25  and  C_28
REMARK    7  A    between atoms: C_28  and  C_29
REMARK    8  A    between atoms: C_28  and  C_30
REMARK                            x       y       z     vdW  Elec       q    Type
REMARK                         _______ _______ _______ _____ _____    ______ ____
ROOT
ATOM      1  C   UNL     1     -12.670  54.346  49.742  0.00  0.00    +0.000 A 
ATOM      2  C   UNL     1     -12.363  54.098  51.182  0.00  0.00    +0.000 A 
ATOM      3  C   UNL     1     -13.251  55.530  49.460  0.00  0.00    +0.000 A 
ATOM      4  O   UNL     1     -12.319  52.969  51.653  0.00  0.00    +0.000 OA
ATOM      5  N   UNL     1     -11.891  55.258  51.837  0.00  0.00    +0.000 N 
ATOM      6  C   UNL     1     -13.639  56.383  50.582  0.00  0.00    +0.000 A 
ATOM      7  C   UNL     1     -12.880  56.304  51.763  0.00  0.00    +0.000 A 
ATOM      8  C   UNL     1     -14.792  57.163  50.559  0.00  0.00    +0.000 A 
ATOM      9  N   UNL     1     -13.224  56.958  52.890  0.00  0.00    +0.000 NA
ATOM     10  C   UNL     1     -15.197  57.787  51.729  0.00  0.00    +0.000 A 
ATOM     11  C   UNL     1     -14.386  57.663  52.851  0.00  0.00    +0.000 A 
ENDROOT
BRANCH   1  17
ATOM     12  S   UNL     1     -11.901  51.063  47.871  0.00  0.00    +0.000 S 
ATOM     13  O   UNL     1     -10.714  50.386  48.341  0.00  0.00    +0.000 OA
ATOM     14  O   UNL     1     -13.121  50.314  47.582  0.00  0.00    +0.000 OA
ATOM     15  N   UNL     1     -12.302  52.210  48.915  0.00  0.00    +0.000 N 
ATOM     16  C   UNL     1     -11.463  51.850  46.373  0.00  0.00    +0.000 A 
ATOM     17  C   UNL     1     -12.170  53.465  48.653  0.00  0.00    +0.000 C 
ATOM     18  C   UNL     1     -11.409  53.235  46.342  0.00  0.00    +0.000 A 
ATOM     19  C   UNL     1     -11.204  51.050  45.261  0.00  0.00    +0.000 A 
ATOM     20  N   UNL     1     -11.706  54.002  47.470  0.00  0.00    +0.000 N 
ATOM     21  C   UNL     1     -11.142  53.831  45.105  0.00  0.00    +0.000 A 
ATOM     22  C   UNL     1     -10.851  51.645  44.060  0.00  0.00    +0.000 A 
ATOM     23  C   UNL     1     -10.882  53.040  43.973  0.00  0.00    +0.000 A 
ATOM     24  H   UNL     1     -12.663  51.945  49.792  0.00  0.00    +0.000 HD
ATOM     25  H   UNL     1     -11.580  54.977  47.418  0.00  0.00    +0.000 HD
BRANCH  22  26
ATOM     26  N   UNL     1     -10.710  50.855  42.916  0.00  0.00    +0.000 N 
ATOM     27  H   UNL     1     -11.505  50.584  42.403  0.00  0.00    +0.000 HD
ATOM     28  H   UNL     1      -9.814  50.571  42.621  0.00  0.00    +0.000 HD
ENDBRANCH  22  26
ENDBRANCH   1  17
BRANCH   3  29
ATOM     29  O   UNL     1     -13.446  56.074  48.209  0.00  0.00    +0.000 OA
ATOM     30  H   UNL     1     -14.315  56.215  47.891  0.00  0.00    +0.000 HD
ENDBRANCH   3  29
BRANCH   5  31
ATOM     31  C   UNL     1     -10.578  55.627  51.274  0.00  0.00    +0.000 C 
BRANCH  31  32
ATOM     32  C   UNL     1      -9.356  54.899  51.803  0.00  0.00    +0.000 C 
BRANCH  32  33
ATOM     33  C   UNL     1      -9.383  54.626  53.314  0.00  0.00    +0.000 C 
ATOM     34  C   UNL     1      -9.434  53.134  53.660  0.00  0.00    +0.000 C 
ATOM     35  C   UNL     1      -8.148  55.258  53.956  0.00  0.00    +0.000 C 
ENDBRANCH  32  33
ENDBRANCH  31  32
ENDBRANCH   5  31
TORSDOF 6
ENDMDL
MODEL 3
REMARK VINA RESULT:      -7.9      3.285      3.708
REMARK  Name = 353134
REMARK  8 active torsions:
REMARK  status: ('A' for Active; 'I' for Inactive)
REMARK    1  A    between atoms: C_6  and  C_10
REMARK    2  A    between atoms: C_12  and  N_16
REMARK    3  A    between atoms: C_14  and  O_19
REMARK    4  A    between atoms: N_18  and  C_22
REMARK    5  A    between atoms: C_22  and  C_25
REMARK    6  A    between atoms: C_25  and  C_28
REMARK    7  A    between atoms: C_28  and  C_29
REMARK    8  A    between atoms: C_28  and  C_30
REMARK                            x       y       z     vdW  Elec       q    Type
REMARK                         _______ _______ _______ _____ _____    ______ ____
ROOT
ATOM      1  C   UNL     1     -10.397  55.647  50.895  0.00  0.00    +0.000 A 
ATOM      2  C   UNL     1     -10.704  56.241  49.560  0.00  0.00    +0.000 A 
ATOM      3  C   UNL     1     -11.462  55.381  51.680  0.00  0.00    +0.000 A 
ATOM      4  O   UNL     1      -9.913  56.969  48.974  0.00  0.00    +0.000 OA
ATOM      5  N   UNL     1     -11.853  55.669  48.971  0.00  0.00    +0.000 N 
ATOM      6  C   UNL     1     -12.777  55.813  51.212  0.00  0.00    +0.000 A 
ATOM      7  C   UNL     1     -12.998  55.869  49.824  0.00  0.00    +0.000 A 
ATOM      8  C   UNL     1     -13.758  56.284  52.081  0.00  0.00    +0.000 A 
ATOM      9  N   UNL     1     -14.132  56.363  49.289  0.00  0.00    +0.000 NA
ATOM     10  C   UNL     1     -14.901  56.859  51.546  0.00  0.00    +0.000 A 
ATOM     11  C   UNL     1     -15.043  56.868  50.163  0.00  0.00    +0.000 A 
ENDROOT
BRANCH   1  17
ATOM     12  S   UNL     1      -6.775  54.429  50.379  0.00  0.00    +0.000 S 
ATOM     13  O   UNL     1      -6.673  53.034  50.014  0.00  0.00    +0.000 OA
ATOM     14  O   UNL     1      -5.962  55.437  49.704  0.00  0.00    +0.000 OA
ATOM     15  N   UNL     1      -8.300  54.900  50.243  0.00  0.00    +0.000 N 
ATOM     16  C   UNL     1      -6.346  54.530  52.072  0.00  0.00    +0.000 A 
ATOM     17  C   UNL     1      -9.040  55.164  51.264  0.00  0.00    +0.000 C 
ATOM     18  C   UNL     1      -7.334  54.855  52.988  0.00  0.00    +0.000 A 
ATOM     19  C   UNL     1      -5.018  54.300  52.428  0.00  0.00    +0.000 A 
ATOM     20  N   UNL     1      -8.646  55.111  52.586  0.00  0.00    +0.000 N 
ATOM     21  C   UNL     1      -6.936  55.015  54.319  0.00  0.00    +0.000 A 
ATOM     22  C   UNL     1      -4.648  54.370  53.762  0.00  0.00    +0.000 A 
ATOM     23  C   UNL     1      -5.601  54.789  54.696  0.00  0.00    +0.000 A 
ATOM     24  H   UNL     1      -8.687  54.991  49.342  0.00  0.00    +0.000 HD
ATOM     25  H   UNL     1      -9.326  55.262  53.281  0.00  0.00    +0.000 HD
BRANCH  22  26
ATOM     26  N   UNL     1      -3.300  54.260  54.110  0.00  0.00    +0.000 N 
ATOM     27  H   UNL     1      -2.629  54.824  53.664  0.00  0.00    +0.000 HD
ATOM     28  H   UNL     1      -3.021  53.617  54.802  0.00  0.00    +0.000 HD
ENDBRANCH  22  26
ENDBRANCH   1  17
BRANCH   3  29
ATOM     29  O   UNL     1     -11.459  54.659  52.852  0.00  0.00    +0.000 OA
ATOM     30  H   UNL     1     -10.700  54.170  53.098  0.00  0.00    +0.000 HD
ENDBRANCH   3  29
BRANCH   5  31
ATOM     31  C   UNL     1     -11.576  54.254  48.652  0.00  0.00    +0.000 C 
BRANCH  31  32
ATOM     32  C   UNL     1     -11.970  53.753  47.276  0.00  0.00    +0.000 C 
BRANCH  32  33
ATOM     33  C   UNL     1     -11.191  54.393  46.118  0.00  0.00    +0.000 C 
ATOM     34  C   UNL     1      -9.689  54.522  46.394  0.00  0.00    +0.000 C 
ATOM     35  C   UNL     1     -11.409  53.564  44.852  0.00  0.00    +0.000 C 
ENDBRANCH  32  33
ENDBRANCH  31  32
ENDBRANCH   5  31
TORSDOF 6
ENDMDL
MODEL 4
REMARK VINA RESULT:      -7.8      2.508      3.219
REMARK  Name = 353134
REMARK  8 active torsions:
REMARK  status: ('A' for Active; 'I' for Inactive)
REMARK    1  A    between atoms: C_6  and  C_10
REMARK    2  A    between atoms: C_12  and  N_16
REMARK    3  A    between atoms: C_14  and  O_19
REMARK    4  A    between atoms: N_18  and  C_22
REMARK    5  A    between atoms: C_22  and  C_25
REMARK    6  A    between atoms: C_25  and  C_28
REMARK    7  A    between atoms: C_28  and  C_29
REMARK    8  A    between atoms: C_28  and  C_30
REMARK                            x       y       z     vdW  Elec       q    Type
REMARK                         _______ _______ _______ _____ _____    ______ ____
ROOT
ATOM      1  C   UNL     1     -10.377  55.504  50.495  0.00  0.00    +0.000 A 
ATOM      2  C   UNL     1     -10.104  55.765  49.050  0.00  0.00    +0.000 A 
ATOM      3  C   UNL     1     -11.633  55.764  50.912  0.00  0.00    +0.000 A 
ATOM      4  O   UNL     1      -8.989  56.060  48.641  0.00  0.00    +0.000 OA
ATOM      5  N   UNL     1     -11.185  55.384  48.224  0.00  0.00    +0.000 N 
ATOM      6  C   UNL     1     -12.552  56.388  49.962  0.00  0.00    +0.000 A 
ATOM      7  C   UNL     1     -12.372  56.114  48.594  0.00  0.00    +0.000 A 
ATOM      8  C   UNL     1     -13.502  57.328  50.354  0.00  0.00    +0.000 A 
ATOM      9  N   UNL     1     -13.088  56.729  47.632  0.00  0.00    +0.000 NA
ATOM     10  C   UNL     1     -14.198  58.018  49.374  0.00  0.00    +0.000 A 
ATOM     11  C   UNL     1     -13.965  57.683  48.045  0.00  0.00    +0.000 A 
ENDROOT
BRANCH   1  17
ATOM     12  S   UNL     1      -7.263  55.001  52.713  0.00  0.00    +0.000 S 
ATOM     13  O   UNL     1      -6.044  54.777  51.968  0.00  0.00    +0.000 OA
ATOM     14  O   UNL     1      -7.277  55.897  53.866  0.00  0.00    +0.000 OA
ATOM     15  N   UNL     1      -8.403  55.519  51.714  0.00  0.00    +0.000 N 
ATOM     16  C   UNL     1      -7.768  53.441  53.319  0.00  0.00    +0.000 A 
ATOM     17  C   UNL     1      -9.413  54.794  51.376  0.00  0.00    +0.000 C 
ATOM     18  C   UNL     1      -8.919  52.869  52.800  0.00  0.00    +0.000 A 
ATOM     19  C   UNL     1      -7.000  52.844  54.317  0.00  0.00    +0.000 A 
ATOM     20  N   UNL     1      -9.678  53.515  51.823  0.00  0.00    +0.000 N 
ATOM     21  C   UNL     1      -9.341  51.664  53.372  0.00  0.00    +0.000 A 
ATOM     22  C   UNL     1      -7.373  51.605  54.815  0.00  0.00    +0.000 A 
ATOM     23  C   UNL     1      -8.580  51.049  54.381  0.00  0.00    +0.000 A 
ATOM     24  H   UNL     1      -8.329  56.428  51.343  0.00  0.00    +0.000 HD
ATOM     25  H   UNL     1     -10.444  53.034  51.433  0.00  0.00    +0.000 HD
BRANCH  22  26
ATOM     26  N   UNL     1      -6.678  51.060  55.897  0.00  0.00    +0.000 N 
ATOM     27  H   UNL     1      -5.839  50.569  55.746  0.00  0.00    +0.000 HD
ATOM     28  H   UNL     1      -7.027  51.168  56.812  0.00  0.00    +0.000 HD
ENDBRANCH  22  26
ENDBRANCH   1  17
BRANCH   3  29
ATOM     29  O   UNL     1     -12.183  55.422  52.128  0.00  0.00    +0.000 OA
ATOM     30  H   UNL     1     -11.659  55.454  52.904  0.00  0.00    +0.000 HD
ENDBRANCH   3  29
BRANCH   5  31
ATOM     31  C   UNL     1     -11.337  53.917  48.276  0.00  0.00    +0.000 C 
BRANCH  31  32
ATOM     32  C   UNL     1     -10.830  53.115  47.093  0.00  0.00    +0.000 C 
BRANCH  32  33
ATOM     33  C   UNL     1     -10.553  53.946  45.831  0.00  0.00    +0.000 C 
ATOM     34  C   UNL     1      -9.060  54.101  45.522  0.00  0.00    +0.000 C 
ATOM     35  C   UNL     1     -11.258  53.295  44.641  0.00  0.00    +0.000 C 
ENDBRANCH  32  33
ENDBRANCH  31  32
ENDBRANCH   5  31
TORSDOF 6
ENDMDL
MODEL 5
REMARK VINA RESULT:      -7.7      1.978      2.281
REMARK  Name = 353134
REMARK  8 active torsions:
REMARK  status: ('A' for Active; 'I' for Inactive)
REMARK    1  A    between atoms: C_6  and  C_10
REMARK    2  A    between atoms: C_12  and  N_16
REMARK    3  A    between atoms: C_14  and  O_19
REMARK    4  A    between atoms: N_18  and  C_22
REMARK    5  A    between atoms: C_22  and  C_25
REMARK    6  A    between atoms: C_25  and  C_28
REMARK    7  A    between atoms: C_28  and  C_29
REMARK    8  A    between atoms: C_28  and  C_30
REMARK                            x       y       z     vdW  Elec       q    Type
REMARK                         _______ _______ _______ _____ _____    ______ ____
ROOT
ATOM      1  C   UNL     1     -11.595  55.200  50.358  0.00  0.00    +0.000 A 
ATOM      2  C   UNL     1     -11.304  56.464  49.619  0.00  0.00    +0.000 A 
ATOM      3  C   UNL     1     -12.781  55.153  50.999  0.00  0.00    +0.000 A 
ATOM      4  O   UNL     1     -10.161  56.859  49.430  0.00  0.00    +0.000 OA
ATOM      5  N   UNL     1     -12.447  56.980  48.968  0.00  0.00    +0.000 N 
ATOM      6  C   UNL     1     -13.593  56.369  51.020  0.00  0.00    +0.000 A 
ATOM      7  C   UNL     1     -13.484  57.253  49.932  0.00  0.00    +0.000 A 
ATOM      8  C   UNL     1     -14.360  56.732  52.124  0.00  0.00    +0.000 A 
ATOM      9  N   UNL     1     -14.097  58.453  49.909  0.00  0.00    +0.000 NA
ATOM     10  C   UNL     1     -14.941  57.990  52.145  0.00  0.00    +0.000 A 
ATOM     11  C   UNL     1     -14.790  58.801  51.026  0.00  0.00    +0.000 A 
ENDROOT
BRANCH   1  17
ATOM     12  S   UNL     1     -10.701  51.559  49.456  0.00  0.00    +0.000 S 
ATOM     13  O   UNL     1     -11.143  50.589  50.432  0.00  0.00    +0.000 OA
ATOM     14  O   UNL     1     -10.864  51.306  48.027  0.00  0.00    +0.000 OA
ATOM     15  N   UNL     1     -11.402  52.967  49.757  0.00  0.00    +0.000 N 
ATOM     16  C   UNL     1      -8.983  51.766  49.707  0.00  0.00    +0.000 A 
ATOM     17  C   UNL     1     -10.755  53.980  50.221  0.00  0.00    +0.000 C 
ATOM     18  C   UNL     1      -8.527  52.976  50.206  0.00  0.00    +0.000 A 
ATOM     19  C   UNL     1      -8.137  50.709  49.373  0.00  0.00    +0.000 A 
ATOM     20  N   UNL     1      -9.404  54.022  50.498  0.00  0.00    +0.000 N 
ATOM     21  C   UNL     1      -7.141  53.137  50.309  0.00  0.00    +0.000 A 
ATOM     22  C   UNL     1      -6.771  50.842  49.564  0.00  0.00    +0.000 A 
ATOM     23  C   UNL     1      -6.274  52.083  49.975  0.00  0.00    +0.000 A 
ATOM     24  H   UNL     1     -12.366  53.062  49.581  0.00  0.00    +0.000 HD
ATOM     25  H   UNL     1      -9.039  54.833  50.921  0.00  0.00    +0.000 HD
BRANCH  22  26
ATOM     26  N   UNL     1      -5.912  49.834  49.120  0.00  0.00    +0.000 N 
ATOM     27  H   UNL     1      -4.937  49.954  49.183  0.00  0.00    +0.000 HD
ATOM     28  H   UNL     1      -6.282  49.003  48.743  0.00  0.00    +0.000 HD
ENDBRANCH  22  26
ENDBRANCH   1  17
BRANCH   3  29
ATOM     29  O   UNL     1     -13.363  54.044  51.573  0.00  0.00    +0.000 OA
ATOM     30  H   UNL     1     -13.221  53.197  51.202  0.00  0.00    +0.000 HD
ENDBRANCH   3  29
BRANCH   5  31
ATOM     31  C   UNL     1     -12.849  56.050  47.895  0.00  0.00    +0.000 C 
BRANCH  31  32
ATOM     32  C   UNL     1     -11.934  55.928  46.690  0.00  0.00    +0.000 C 
BRANCH  32  33
ATOM     33  C   UNL     1     -11.275  54.550  46.529  0.00  0.00    +0.000 C 
ATOM     34  C   UNL     1     -11.585  53.883  45.184  0.00  0.00    +0.000 C 
ATOM     35  C   UNL     1      -9.762  54.701  46.689  0.00  0.00    +0.000 C 
ENDBRANCH  32  33
ENDBRANCH  31  32
ENDBRANCH   5  31
TORSDOF 6
ENDMDL
MODEL 6
REMARK VINA RESULT:      -7.6      4.145      7.577
REMARK  Name = 353134
REMARK  8 active torsions:
REMARK  status: ('A' for Active; 'I' for Inactive)
REMARK    1  A    between atoms: C_6  and  C_10
REMARK    2  A    between atoms: C_12  and  N_16
REMARK    3  A    between atoms: C_14  and  O_19
REMARK    4  A    between atoms: N_18  and  C_22
REMARK    5  A    between atoms: C_22  and  C_25
REMARK    6  A    between atoms: C_25  and  C_28
REMARK    7  A    between atoms: C_28  and  C_29
REMARK    8  A    between atoms: C_28  and  C_30
REMARK                            x       y       z     vdW  Elec       q    Type
REMARK                         _______ _______ _______ _____ _____    ______ ____
ROOT
ATOM      1  C   UNL     1      -6.899  54.795  50.267  0.00  0.00    +0.000 A 
ATOM      2  C   UNL     1      -7.321  55.850  51.235  0.00  0.00    +0.000 A 
ATOM      3  C   UNL     1      -5.920  53.967  50.689  0.00  0.00    +0.000 A 
ATOM      4  O   UNL     1      -7.785  56.922  50.868  0.00  0.00    +0.000 OA
ATOM      5  N   UNL     1      -7.364  55.373  52.564  0.00  0.00    +0.000 N 
ATOM      6  C   UNL     1      -5.287  54.260  51.973  0.00  0.00    +0.000 A 
ATOM      7  C   UNL     1      -6.062  54.897  52.960  0.00  0.00    +0.000 A 
ATOM      8  C   UNL     1      -3.930  54.046  52.200  0.00  0.00    +0.000 A 
ATOM      9  N   UNL     1      -5.543  55.314  54.131  0.00  0.00    +0.000 NA
ATOM     10  C   UNL     1      -3.367  54.530  53.370  0.00  0.00    +0.000 A 
ATOM     11  C   UNL     1      -4.204  55.142  54.296  0.00  0.00    +0.000 A 
ENDROOT
BRANCH   1  17
ATOM     12  S   UNL     1      -7.462  53.716  46.608  0.00  0.00    +0.000 S 
ATOM     13  O   UNL     1      -7.129  54.736  45.639  0.00  0.00    +0.000 OA
ATOM     14  O   UNL     1      -7.067  52.327  46.393  0.00  0.00    +0.000 OA
ATOM     15  N   UNL     1      -6.887  54.142  48.040  0.00  0.00    +0.000 N 
ATOM     16  C   UNL     1      -9.207  53.699  46.730  0.00  0.00    +0.000 A 
ATOM     17  C   UNL     1      -7.646  54.512  49.013  0.00  0.00    +0.000 C 
ATOM     18  C   UNL     1      -9.794  54.137  47.907  0.00  0.00    +0.000 A 
ATOM     19  C   UNL     1      -9.937  53.224  45.641  0.00  0.00    +0.000 A 
ATOM     20  N   UNL     1      -9.025  54.575  48.986  0.00  0.00    +0.000 N 
ATOM     21  C   UNL     1     -11.185  54.025  48.000  0.00  0.00    +0.000 A 
ATOM     22  C   UNL     1     -11.322  53.201  45.707  0.00  0.00    +0.000 A 
ATOM     23  C   UNL     1     -11.937  53.546  46.914  0.00  0.00    +0.000 A 
ATOM     24  H   UNL     1      -5.913  54.119  48.184  0.00  0.00    +0.000 HD
ATOM     25  H   UNL     1      -9.490  54.948  49.770  0.00  0.00    +0.000 HD
BRANCH  22  26
ATOM     26  N   UNL     1     -12.050  52.615  44.669  0.00  0.00    +0.000 N 
ATOM     27  H   UNL     1     -12.281  53.141  43.871  0.00  0.00    +0.000 HD
ATOM     28  H   UNL     1     -12.333  51.673  44.737  0.00  0.00    +0.000 HD
ENDBRANCH  22  26
ENDBRANCH   1  17
BRANCH   3  29
ATOM     29  O   UNL     1      -5.502  52.808  50.074  0.00  0.00    +0.000 OA
ATOM     30  H   UNL     1      -6.096  52.323  49.537  0.00  0.00    +0.000 HD
ENDBRANCH   3  29
BRANCH   5  31
ATOM     31  C   UNL     1      -8.437  54.366  52.678  0.00  0.00    +0.000 C 
BRANCH  31  32
ATOM     32  C   UNL     1      -9.747  54.802  53.304  0.00  0.00    +0.000 C 
BRANCH  32  33
ATOM     33  C   UNL     1     -10.996  54.427  52.493  0.00  0.00    +0.000 C 
ATOM     34  C   UNL     1     -11.425  55.514  51.501  0.00  0.00    +0.000 C 
ATOM     35  C   UNL     1     -10.728  53.125  51.739  0.00  0.00    +0.000 C 
ENDBRANCH  32  33
ENDBRANCH  31  32
ENDBRANCH   5  31
TORSDOF 6
ENDMDL
MODEL 7
REMARK VINA RESULT:      -7.6      3.103      5.746
REMARK  Name = 353134
REMARK  8 active torsions:
REMARK  status: ('A' for Active; 'I' for Inactive)
REMARK    1  A    between atoms: C_6  and  C_10
REMARK    2  A    between atoms: C_12  and  N_16
REMARK    3  A    between atoms: C_14  and  O_19
REMARK    4  A    between atoms: N_18  and  C_22
REMARK    5  A    between atoms: C_22  and  C_25
REMARK    6  A    between atoms: C_25  and  C_28
REMARK    7  A    between atoms: C_28  and  C_29
REMARK    8  A    between atoms: C_28  and  C_30
REMARK                            x       y       z     vdW  Elec       q    Type
REMARK                         _______ _______ _______ _____ _____    ______ ____
ROOT
ATOM      1  C   UNL     1      -9.741  53.664  48.412  0.00  0.00    +0.000 A 
ATOM      2  C   UNL     1     -11.154  53.405  48.005  0.00  0.00    +0.000 A 
ATOM      3  C   UNL     1      -8.853  53.794  47.405  0.00  0.00    +0.000 A 
ATOM      4  O   UNL     1     -11.936  52.794  48.721  0.00  0.00    +0.000 OA
ATOM      5  N   UNL     1     -11.528  54.149  46.864  0.00  0.00    +0.000 N 
ATOM      6  C   UNL     1      -9.324  53.541  46.044  0.00  0.00    +0.000 A 
ATOM      7  C   UNL     1     -10.673  53.814  45.753  0.00  0.00    +0.000 A 
ATOM      8  C   UNL     1      -8.525  52.931  45.082  0.00  0.00    +0.000 A 
ATOM      9  N   UNL     1     -11.234  53.507  44.567  0.00  0.00    +0.000 NA
ATOM     10  C   UNL     1      -9.104  52.547  43.882  0.00  0.00    +0.000 A 
ATOM     11  C   UNL     1     -10.442  52.859  43.671  0.00  0.00    +0.000 A 
ENDROOT
BRANCH   1  17
ATOM     12  S   UNL     1     -10.141  54.059  52.227  0.00  0.00    +0.000 S 
ATOM     13  O   UNL     1     -10.831  55.266  52.621  0.00  0.00    +0.000 OA
ATOM     14  O   UNL     1     -10.447  52.782  52.868  0.00  0.00    +0.000 OA
ATOM     15  N   UNL     1     -10.323  53.838  50.651  0.00  0.00    +0.000 N 
ATOM     16  C   UNL     1      -8.440  54.340  52.522  0.00  0.00    +0.000 A 
ATOM     17  C   UNL     1      -9.357  53.988  49.812  0.00  0.00    +0.000 C 
ATOM     18  C   UNL     1      -7.588  54.447  51.434  0.00  0.00    +0.000 A 
ATOM     19  C   UNL     1      -8.008  54.426  53.845  0.00  0.00    +0.000 A 
ATOM     20  N   UNL     1      -8.056  54.323  50.125  0.00  0.00    +0.000 N 
ATOM     21  C   UNL     1      -6.223  54.582  51.711  0.00  0.00    +0.000 A 
ATOM     22  C   UNL     1      -6.666  54.652  54.110  0.00  0.00    +0.000 A 
ATOM     23  C   UNL     1      -5.769  54.668  53.038  0.00  0.00    +0.000 A 
ATOM     24  H   UNL     1     -11.209  53.577  50.310  0.00  0.00    +0.000 HD
ATOM     25  H   UNL     1      -7.424  54.483  49.387  0.00  0.00    +0.000 HD
BRANCH  22  26
ATOM     26  N   UNL     1      -6.210  54.617  55.430  0.00  0.00    +0.000 N 
ATOM     27  H   UNL     1      -5.318  54.256  55.633  0.00  0.00    +0.000 HD
ATOM     28  H   UNL     1      -6.782  54.956  56.157  0.00  0.00    +0.000 HD
ENDBRANCH  22  26
ENDBRANCH   1  17
BRANCH   3  29
ATOM     29  O   UNL     1      -7.550  54.229  47.508  0.00  0.00    +0.000 OA
ATOM     30  H   UNL     1      -6.871  53.623  47.726  0.00  0.00    +0.000 HD
ENDBRANCH   3  29
BRANCH   5  31
ATOM     31  C   UNL     1     -11.537  55.584  47.208  0.00  0.00    +0.000 C 
BRANCH  31  32
ATOM     32  C   UNL     1     -12.876  56.298  47.217  0.00  0.00    +0.000 C 
BRANCH  32  33
ATOM     33  C   UNL     1     -13.336  56.770  48.604  0.00  0.00    +0.000 C 
ATOM     34  C   UNL     1     -12.238  56.682  49.670  0.00  0.00    +0.000 C 
ATOM     35  C   UNL     1     -13.835  58.211  48.500  0.00  0.00    +0.000 C 
ENDBRANCH  32  33
ENDBRANCH  31  32
ENDBRANCH   5  31
TORSDOF 6
ENDMDL
MODEL 8
REMARK VINA RESULT:      -7.4      3.414      7.292
REMARK  Name = 353134
REMARK  8 active torsions:
REMARK  status: ('A' for Active; 'I' for Inactive)
REMARK    1  A    between atoms: C_6  and  C_10
REMARK    2  A    between atoms: C_12  and  N_16
REMARK    3  A    between atoms: C_14  and  O_19
REMARK    4  A    between atoms: N_18  and  C_22
REMARK    5  A    between atoms: C_22  and  C_25
REMARK    6  A    between atoms: C_25  and  C_28
REMARK    7  A    between atoms: C_28  and  C_29
REMARK    8  A    between atoms: C_28  and  C_30
REMARK                            x       y       z     vdW  Elec       q    Type
REMARK                         _______ _______ _______ _____ _____    ______ ____
ROOT
ATOM      1  C   UNL     1      -8.584  55.066  50.340  0.00  0.00    +0.000 A 
ATOM      2  C   UNL     1      -7.702  56.009  51.091  0.00  0.00    +0.000 A 
ATOM      3  C   UNL     1      -8.071  53.842  50.103  0.00  0.00    +0.000 A 
ATOM      4  O   UNL     1      -7.780  57.222  50.955  0.00  0.00    +0.000 OA
ATOM      5  N   UNL     1      -6.984  55.363  52.123  0.00  0.00    +0.000 N 
ATOM      6  C   UNL     1      -6.679  53.602  50.479  0.00  0.00    +0.000 A 
ATOM      7  C   UNL     1      -6.158  54.318  51.572  0.00  0.00    +0.000 A 
ATOM      8  C   UNL     1      -5.832  52.796  49.722  0.00  0.00    +0.000 A 
ATOM      9  N   UNL     1      -4.859  54.258  51.925  0.00  0.00    +0.000 NA
ATOM     10  C   UNL     1      -4.480  52.777  50.030  0.00  0.00    +0.000 A 
ATOM     11  C   UNL     1      -4.049  53.508  51.130  0.00  0.00    +0.000 A 
ENDROOT
BRANCH   1  17
ATOM     12  S   UNL     1     -11.911  55.111  48.391  0.00  0.00    +0.000 S 
ATOM     13  O   UNL     1     -11.980  56.135  47.374  0.00  0.00    +0.000 OA
ATOM     14  O   UNL     1     -12.391  53.759  48.120  0.00  0.00    +0.000 OA
ATOM     15  N   UNL     1     -10.398  54.970  48.896  0.00  0.00    +0.000 N 
ATOM     16  C   UNL     1     -12.861  55.689  49.741  0.00  0.00    +0.000 A 
ATOM     17  C   UNL     1     -10.016  55.358  50.064  0.00  0.00    +0.000 C 
ATOM     18  C   UNL     1     -12.207  56.030  50.914  0.00  0.00    +0.000 A 
ATOM     19  C   UNL     1     -14.245  55.762  49.587  0.00  0.00    +0.000 A 
ATOM     20  N   UNL     1     -10.821  55.912  51.038  0.00  0.00    +0.000 N 
ATOM     21  C   UNL     1     -13.007  56.402  52.000  0.00  0.00    +0.000 A 
ATOM     22  C   UNL     1     -15.024  56.219  50.639  0.00  0.00    +0.000 A 
ATOM     23  C   UNL     1     -14.403  56.479  51.864  0.00  0.00    +0.000 A 
ATOM     24  H   UNL     1      -9.733  54.571  48.290  0.00  0.00    +0.000 HD
ATOM     25  H   UNL     1     -10.397  56.239  51.864  0.00  0.00    +0.000 HD
BRANCH  22  26
ATOM     26  N   UNL     1     -16.416  56.180  50.531  0.00  0.00    +0.000 N 
ATOM     27  H   UNL     1     -16.882  55.315  50.470  0.00  0.00    +0.000 HD
ATOM     28  H   UNL     1     -16.933  57.018  50.518  0.00  0.00    +0.000 HD
ENDBRANCH  22  26
ENDBRANCH   1  17
BRANCH   3  29
ATOM     29  O   UNL     1      -8.749  52.746  49.617  0.00  0.00    +0.000 OA
ATOM     30  H   UNL     1      -8.695  51.926  50.067  0.00  0.00    +0.000 HD
ENDBRANCH   3  29
BRANCH   5  31
ATOM     31  C   UNL     1      -7.935  54.903  53.153  0.00  0.00    +0.000 C 
BRANCH  31  32
ATOM     32  C   UNL     1      -7.629  53.596  53.860  0.00  0.00    +0.000 C 
BRANCH  32  33
ATOM     33  C   UNL     1      -8.745  52.545  53.766  0.00  0.00    +0.000 C 
ATOM     34  C   UNL     1     -10.049  53.096  53.180  0.00  0.00    +0.000 C 
ATOM     35  C   UNL     1      -8.256  51.374  52.915  0.00  0.00    +0.000 C 
ENDBRANCH  32  33
ENDBRANCH  31  32
ENDBRANCH   5  31
TORSDOF 6
ENDMDL
MODEL 9
REMARK VINA RESULT:      -7.4      3.684      6.440
REMARK  Name = 353134
REMARK  8 active torsions:
REMARK  status: ('A' for Active; 'I' for Inactive)
REMARK    1  A    between atoms: C_6  and  C_10
REMARK    2  A    between atoms: C_12  and  N_16
REMARK    3  A    between atoms: C_14  and  O_19
REMARK    4  A    between atoms: N_18  and  C_22
REMARK    5  A    between atoms: C_22  and  C_25
REMARK    6  A    between atoms: C_25  and  C_28
REMARK    7  A    between atoms: C_28  and  C_29
REMARK    8  A    between atoms: C_28  and  C_30
REMARK                            x       y       z     vdW  Elec       q    Type
REMARK                         _______ _______ _______ _____ _____    ______ ____
ROOT
ATOM      1  C   UNL     1      -8.658  53.790  47.703  0.00  0.00    +0.000 A 
ATOM      2  C   UNL     1     -10.083  53.344  47.659  0.00  0.00    +0.000 A 
ATOM      3  C   UNL     1      -8.048  53.931  46.508  0.00  0.00    +0.000 A 
ATOM      4  O   UNL     1     -10.596  52.713  48.573  0.00  0.00    +0.000 OA
ATOM      5  N   UNL     1     -10.799  53.943  46.598  0.00  0.00    +0.000 N 
ATOM      6  C   UNL     1      -8.782  53.514  45.315  0.00  0.00    +0.000 A 
ATOM      7  C   UNL     1     -10.185  53.611  45.337  0.00  0.00    +0.000 A 
ATOM      8  C   UNL     1      -8.153  52.916  44.226  0.00  0.00    +0.000 A 
ATOM      9  N   UNL     1     -10.959  53.145  44.337  0.00  0.00    +0.000 NA
ATOM     10  C   UNL     1      -8.938  52.370  43.222  0.00  0.00    +0.000 A 
ATOM     11  C   UNL     1     -10.317  52.515  43.317  0.00  0.00    +0.000 A 
ENDROOT
BRANCH   1  17
ATOM     12  S   UNL     1      -8.263  55.754  50.998  0.00  0.00    +0.000 S 
ATOM     13  O   UNL     1      -7.888  57.138  50.813  0.00  0.00    +0.000 OA
ATOM     14  O   UNL     1      -9.289  55.384  51.968  0.00  0.00    +0.000 OA
ATOM     15  N   UNL     1      -8.716  55.138  49.591  0.00  0.00    +0.000 N 
ATOM     16  C   UNL     1      -6.814  54.911  51.495  0.00  0.00    +0.000 A 
ATOM     17  C   UNL     1      -8.009  54.271  48.951  0.00  0.00    +0.000 C 
ATOM     18  C   UNL     1      -6.245  53.997  50.621  0.00  0.00    +0.000 A 
ATOM     19  C   UNL     1      -6.301  55.177  52.764  0.00  0.00    +0.000 A 
ATOM     20  N   UNL     1      -6.808  53.735  49.372  0.00  0.00    +0.000 N 
ATOM     21  C   UNL     1      -5.141  53.277  51.089  0.00  0.00    +0.000 A 
ATOM     22  C   UNL     1      -5.152  54.526  53.186  0.00  0.00    +0.000 A 
ATOM     23  C   UNL     1      -4.612  53.531  52.365  0.00  0.00    +0.000 A 
ATOM     24  H   UNL     1      -9.569  55.434  49.198  0.00  0.00    +0.000 HD
ATOM     25  H   UNL     1      -6.325  53.136  48.758  0.00  0.00    +0.000 HD
BRANCH  22  26
ATOM     26  N   UNL     1      -4.705  54.699  54.498  0.00  0.00    +0.000 N 
ATOM     27  H   UNL     1      -5.204  55.279  55.116  0.00  0.00    +0.000 HD
ATOM     28  H   UNL     1      -3.889  54.240  54.804  0.00  0.00    +0.000 HD
ENDBRANCH  22  26
ENDBRANCH   1  17
BRANCH   3  29
ATOM     29  O   UNL     1      -6.822  54.514  46.275  0.00  0.00    +0.000 OA
ATOM     30  H   UNL     1      -6.771  55.323  45.807  0.00  0.00    +0.000 HD
ENDBRANCH   3  29
BRANCH   5  31
ATOM     31  C   UNL     1     -10.911  55.392  46.853  0.00  0.00    +0.000 C 
BRANCH  31  32
ATOM     32  C   UNL     1     -12.296  56.009  46.815  0.00  0.00    +0.000 C 
BRANCH  32  33
ATOM     33  C   UNL     1     -12.935  56.225  48.195  0.00  0.00    +0.000 C 
ATOM     34  C   UNL     1     -11.926  56.638  49.272  0.00  0.00    +0.000 C 
ATOM     35  C   UNL     1     -14.024  57.291  48.078  0.00  0.00    +0.000 C 
ENDBRANCH  32  33
ENDBRANCH  31  32
ENDBRANCH   5  31
TORSDOF 6
ENDMDL
