MODEL 1
REMARK VINA RESULT:      -7.8      0.000      0.000
REMARK  Name = 353164
REMARK  10 active torsions:
REMARK  status: ('A' for Active; 'I' for Inactive)
REMARK    1  A    between atoms: C_6  and  C_10
REMARK    2  A    between atoms: C_12  and  N_16
REMARK    3  A    between atoms: C_14  and  O_19
REMARK    4  A    between atoms: N_16  and  C_21
REMARK    5  A    between atoms: N_18  and  C_23
REMARK    6  A    between atoms: C_21  and  C_25
REMARK    7  A    between atoms: C_23  and  C_27
REMARK    8  A    between atoms: C_27  and  C_32
REMARK    9  A    between atoms: C_32  and  C_33
REMARK   10  A    between atoms: C_32  and  C_34
REMARK                            x       y       z     vdW  Elec       q    Type
REMARK                         _______ _______ _______ _____ _____    ______ ____
ROOT
ATOM      1  S   UNL     1     -11.662  55.305  49.687  0.00  0.00    +0.000 S 
ATOM      2  O   UNL     1     -12.499  54.286  49.082  0.00  0.00    +0.000 OA
ATOM      3  O   UNL     1     -10.913  56.225  48.856  0.00  0.00    +0.000 OA
ATOM      4  N   UNL     1     -10.615  54.557  50.670  0.00  0.00    +0.000 N 
ATOM      5  C   UNL     1     -12.726  56.289  50.671  0.00  0.00    +0.000 A 
ATOM      6  C   UNL     1     -10.712  54.658  51.964  0.00  0.00    +0.000 C 
ATOM      7  C   UNL     1     -12.603  56.200  52.045  0.00  0.00    +0.000 A 
ATOM      8  C   UNL     1     -13.657  57.130  50.061  0.00  0.00    +0.000 A 
ATOM      9  N   UNL     1     -11.694  55.336  52.644  0.00  0.00    +0.000 N 
ATOM     10  C   UNL     1     -13.488  56.937  52.829  0.00  0.00    +0.000 A 
ATOM     11  C   UNL     1     -14.502  57.920  50.844  0.00  0.00    +0.000 A 
ATOM     12  C   UNL     1     -14.426  57.787  52.235  0.00  0.00    +0.000 A 
ATOM     13  H   UNL     1      -9.891  54.014  50.281  0.00  0.00    +0.000 HD
ATOM     14  H   UNL     1     -11.757  55.202  53.618  0.00  0.00    +0.000 HD
ENDROOT
BRANCH   6  15
ATOM     15  C   UNL     1      -9.620  53.987  52.769  0.00  0.00    +0.000 A 
ATOM     16  C   UNL     1      -8.218  54.503  52.680  0.00  0.00    +0.000 A 
ATOM     17  C   UNL     1      -9.904  52.950  53.577  0.00  0.00    +0.000 A 
ATOM     18  O   UNL     1      -8.006  55.521  52.019  0.00  0.00    +0.000 OA
ATOM     19  N   UNL     1      -7.225  53.816  53.348  0.00  0.00    +0.000 N 
ATOM     20  C   UNL     1      -8.830  52.264  54.297  0.00  0.00    +0.000 A 
ATOM     21  C   UNL     1      -7.505  52.680  54.149  0.00  0.00    +0.000 A 
ATOM     22  C   UNL     1      -9.082  51.153  55.111  0.00  0.00    +0.000 A 
ATOM     23  N   UNL     1      -6.469  52.045  54.750  0.00  0.00    +0.000 NA
ATOM     24  C   UNL     1      -8.031  50.492  55.729  0.00  0.00    +0.000 A 
ATOM     25  C   UNL     1      -6.753  50.970  55.516  0.00  0.00    +0.000 A 
BRANCH  17  26
ATOM     26  O   UNL     1     -11.171  52.432  53.782  0.00  0.00    +0.000 OA
ATOM     27  H   UNL     1     -11.457  52.221  54.648  0.00  0.00    +0.000 HD
ENDBRANCH  17  26
BRANCH  19  28
ATOM     28  C   UNL     1      -5.829  54.240  53.201  0.00  0.00    +0.000 C 
BRANCH  28  29
ATOM     29  C   UNL     1      -5.222  53.752  51.878  0.00  0.00    +0.000 C 
BRANCH  29  30
ATOM     30  C   UNL     1      -3.739  53.342  51.972  0.00  0.00    +0.000 C 
ATOM     31  C   UNL     1      -3.301  53.031  53.404  0.00  0.00    +0.000 C 
ATOM     32  C   UNL     1      -3.489  52.117  51.086  0.00  0.00    +0.000 C 
ENDBRANCH  29  30
ENDBRANCH  28  29
ENDBRANCH  19  28
ENDBRANCH   6  15
BRANCH  11  33
ATOM     33  N   UNL     1     -15.478  58.674  50.182  0.00  0.00    +0.000 N 
ATOM     34  H   UNL     1     -16.184  58.240  49.650  0.00  0.00    +0.000 HD
BRANCH  33  35
ATOM     35  C   UNL     1     -15.413  60.145  50.312  0.00  0.00    +0.000 C 
BRANCH  35  36
ATOM     36  C   UNL     1     -14.342  60.716  49.378  0.00  0.00    +0.000 C 
ATOM     37  O   UNL     1     -13.157  60.801  49.681  0.00  0.00    +0.000 OA
ATOM     38  N   UNL     1     -14.797  61.128  48.155  0.00  0.00    +0.000 N 
ATOM     39  H   UNL     1     -15.753  61.051  47.935  0.00  0.00    +0.000 HD
ATOM     40  H   UNL     1     -14.168  61.502  47.497  0.00  0.00    +0.000 HD
ENDBRANCH  35  36
ENDBRANCH  33  35
ENDBRANCH  11  33
TORSDOF 8
ENDMDL
MODEL 2
REMARK VINA RESULT:      -7.2      4.686      6.261
REMARK  Name = 353164
REMARK  10 active torsions:
REMARK  status: ('A' for Active; 'I' for Inactive)
REMARK    1  A    between atoms: C_6  and  C_10
REMARK    2  A    between atoms: C_12  and  N_16
REMARK    3  A    between atoms: C_14  and  O_19
REMARK    4  A    between atoms: N_16  and  C_21
REMARK    5  A    between atoms: N_18  and  C_23
REMARK    6  A    between atoms: C_21  and  C_25
REMARK    7  A    between atoms: C_23  and  C_27
REMARK    8  A    between atoms: C_27  and  C_32
REMARK    9  A    between atoms: C_32  and  C_33
REMARK   10  A    between atoms: C_32  and  C_34
REMARK                            x       y       z     vdW  Elec       q    Type
REMARK                         _______ _______ _______ _____ _____    ______ ____
ROOT
ATOM      1  S   UNL     1     -11.631  54.992  50.458  0.00  0.00    +0.000 S 
ATOM      2  O   UNL     1     -10.680  55.734  51.265  0.00  0.00    +0.000 OA
ATOM      3  O   UNL     1     -12.537  54.047  51.079  0.00  0.00    +0.000 OA
ATOM      4  N   UNL     1     -10.795  54.205  49.317  0.00  0.00    +0.000 N 
ATOM      5  C   UNL     1     -12.638  56.189  49.668  0.00  0.00    +0.000 A 
ATOM      6  C   UNL     1     -10.857  54.561  48.066  0.00  0.00    +0.000 C 
ATOM      7  C   UNL     1     -12.496  56.355  48.303  0.00  0.00    +0.000 A 
ATOM      8  C   UNL     1     -13.548  56.935  50.418  0.00  0.00    +0.000 A 
ATOM      9  N   UNL     1     -11.564  55.629  47.571  0.00  0.00    +0.000 N 
ATOM     10  C   UNL     1     -13.253  57.348  47.684  0.00  0.00    +0.000 A 
ATOM     11  C   UNL     1     -14.356  57.885  49.789  0.00  0.00    +0.000 A 
ATOM     12  C   UNL     1     -14.173  58.103  48.419  0.00  0.00    +0.000 A 
ATOM     13  H   UNL     1     -10.227  53.443  49.574  0.00  0.00    +0.000 HD
ATOM     14  H   UNL     1     -11.402  55.898  46.637  0.00  0.00    +0.000 HD
ENDROOT
BRANCH   6  15
ATOM     15  C   UNL     1     -10.102  53.690  47.087  0.00  0.00    +0.000 A 
ATOM     16  C   UNL     1      -8.768  53.132  47.475  0.00  0.00    +0.000 A 
ATOM     17  C   UNL     1     -10.627  53.397  45.884  0.00  0.00    +0.000 A 
ATOM     18  O   UNL     1      -8.360  53.325  48.622  0.00  0.00    +0.000 OA
ATOM     19  N   UNL     1      -8.056  52.422  46.531  0.00  0.00    +0.000 N 
ATOM     20  C   UNL     1      -9.858  52.613  44.917  0.00  0.00    +0.000 A 
ATOM     21  C   UNL     1      -8.573  52.165  45.236  0.00  0.00    +0.000 A 
ATOM     22  C   UNL     1     -10.354  52.327  43.640  0.00  0.00    +0.000 A 
ATOM     23  N   UNL     1      -7.800  51.483  44.356  0.00  0.00    +0.000 NA
ATOM     24  C   UNL     1      -9.570  51.633  42.729  0.00  0.00    +0.000 A 
ATOM     25  C   UNL     1      -8.309  51.239  43.130  0.00  0.00    +0.000 A 
BRANCH  17  26
ATOM     26  O   UNL     1     -11.874  53.807  45.446  0.00  0.00    +0.000 OA
ATOM     27  H   UNL     1     -12.647  53.427  45.812  0.00  0.00    +0.000 HD
ENDBRANCH  17  26
BRANCH  19  28
ATOM     28  C   UNL     1      -6.706  51.947  46.850  0.00  0.00    +0.000 C 
BRANCH  28  29
ATOM     29  C   UNL     1      -5.705  53.105  46.954  0.00  0.00    +0.000 C 
BRANCH  29  30
ATOM     30  C   UNL     1      -4.793  53.047  48.196  0.00  0.00    +0.000 C 
ATOM     31  C   UNL     1      -4.908  54.296  49.072  0.00  0.00    +0.000 C 
ATOM     32  C   UNL     1      -5.140  51.809  49.029  0.00  0.00    +0.000 C 
ENDBRANCH  29  30
ENDBRANCH  28  29
ENDBRANCH  19  28
ENDBRANCH   6  15
BRANCH  11  33
ATOM     33  N   UNL     1     -15.184  58.670  50.602  0.00  0.00    +0.000 N 
ATOM     34  H   UNL     1     -16.123  58.840  50.360  0.00  0.00    +0.000 HD
BRANCH  33  35
ATOM     35  C   UNL     1     -14.598  59.232  51.836  0.00  0.00    +0.000 C 
BRANCH  35  36
ATOM     36  C   UNL     1     -15.300  58.656  53.070  0.00  0.00    +0.000 C 
ATOM     37  O   UNL     1     -15.515  57.459  53.228  0.00  0.00    +0.000 OA
ATOM     38  N   UNL     1     -15.674  59.578  54.009  0.00  0.00    +0.000 N 
ATOM     39  H   UNL     1     -15.492  60.533  53.860  0.00  0.00    +0.000 HD
ATOM     40  H   UNL     1     -16.127  59.285  54.833  0.00  0.00    +0.000 HD
ENDBRANCH  35  36
ENDBRANCH  33  35
ENDBRANCH  11  33
TORSDOF 8
ENDMDL
MODEL 3
REMARK VINA RESULT:      -7.1      2.711      3.949
REMARK  Name = 353164
REMARK  10 active torsions:
REMARK  status: ('A' for Active; 'I' for Inactive)
REMARK    1  A    between atoms: C_6  and  C_10
REMARK    2  A    between atoms: C_12  and  N_16
REMARK    3  A    between atoms: C_14  and  O_19
REMARK    4  A    between atoms: N_16  and  C_21
REMARK    5  A    between atoms: N_18  and  C_23
REMARK    6  A    between atoms: C_21  and  C_25
REMARK    7  A    between atoms: C_23  and  C_27
REMARK    8  A    between atoms: C_27  and  C_32
REMARK    9  A    between atoms: C_32  and  C_33
REMARK   10  A    between atoms: C_32  and  C_34
REMARK                            x       y       z     vdW  Elec       q    Type
REMARK                         _______ _______ _______ _____ _____    ______ ____
ROOT
ATOM      1  S   UNL     1     -11.337  54.331  47.956  0.00  0.00    +0.000 S 
ATOM      2  O   UNL     1     -12.206  53.227  47.593  0.00  0.00    +0.000 OA
ATOM      3  O   UNL     1     -11.169  55.456  47.060  0.00  0.00    +0.000 OA
ATOM      4  N   UNL     1      -9.870  53.717  48.265  0.00  0.00    +0.000 N 
ATOM      5  C   UNL     1     -11.978  54.985  49.449  0.00  0.00    +0.000 A 
ATOM      6  C   UNL     1      -9.396  53.673  49.476  0.00  0.00    +0.000 C 
ATOM      7  C   UNL     1     -11.248  54.793  50.607  0.00  0.00    +0.000 A 
ATOM      8  C   UNL     1     -13.189  55.678  49.441  0.00  0.00    +0.000 A 
ATOM      9  N   UNL     1     -10.058  54.075  50.611  0.00  0.00    +0.000 N 
ATOM     10  C   UNL     1     -11.786  55.261  51.804  0.00  0.00    +0.000 A 
ATOM     11  C   UNL     1     -13.700  56.207  50.628  0.00  0.00    +0.000 A 
ATOM     12  C   UNL     1     -12.997  55.960  51.814  0.00  0.00    +0.000 A 
ATOM     13  H   UNL     1      -9.327  53.368  47.521  0.00  0.00    +0.000 HD
ATOM     14  H   UNL     1      -9.664  53.839  51.482  0.00  0.00    +0.000 HD
ENDROOT
BRANCH   6  15
ATOM     15  C   UNL     1      -7.981  53.160  49.620  0.00  0.00    +0.000 A 
ATOM     16  C   UNL     1      -7.011  53.908  50.482  0.00  0.00    +0.000 A 
ATOM     17  C   UNL     1      -7.595  52.030  49.001  0.00  0.00    +0.000 A 
ATOM     18  O   UNL     1      -7.421  54.877  51.124  0.00  0.00    +0.000 OA
ATOM     19  N   UNL     1      -5.702  53.475  50.522  0.00  0.00    +0.000 N 
ATOM     20  C   UNL     1      -6.205  51.581  49.091  0.00  0.00    +0.000 A 
ATOM     21  C   UNL     1      -5.270  52.323  49.818  0.00  0.00    +0.000 A 
ATOM     22  C   UNL     1      -5.757  50.435  48.423  0.00  0.00    +0.000 A 
ATOM     23  N   UNL     1      -3.961  51.980  49.886  0.00  0.00    +0.000 NA
ATOM     24  C   UNL     1      -4.418  50.075  48.483  0.00  0.00    +0.000 A 
ATOM     25  C   UNL     1      -3.566  50.875  49.217  0.00  0.00    +0.000 A 
BRANCH  17  26
ATOM     26  O   UNL     1      -8.421  51.229  48.233  0.00  0.00    +0.000 OA
ATOM     27  H   UNL     1      -8.459  51.348  47.306  0.00  0.00    +0.000 HD
ENDBRANCH  17  26
BRANCH  19  28
ATOM     28  C   UNL     1      -4.709  54.245  51.279  0.00  0.00    +0.000 C 
BRANCH  28  29
ATOM     29  C   UNL     1      -4.645  53.803  52.747  0.00  0.00    +0.000 C 
BRANCH  29  30
ATOM     30  C   UNL     1      -5.015  54.904  53.759  0.00  0.00    +0.000 C 
ATOM     31  C   UNL     1      -5.975  54.412  54.844  0.00  0.00    +0.000 C 
ATOM     32  C   UNL     1      -3.741  55.447  54.415  0.00  0.00    +0.000 C 
ENDBRANCH  29  30
ENDBRANCH  28  29
ENDBRANCH  19  28
ENDBRANCH   6  15
BRANCH  11  33
ATOM     33  N   UNL     1     -14.962  56.810  50.578  0.00  0.00    +0.000 N 
ATOM     34  H   UNL     1     -15.475  56.851  49.739  0.00  0.00    +0.000 HD
BRANCH  33  35
ATOM     35  C   UNL     1     -15.498  57.382  51.831  0.00  0.00    +0.000 C 
BRANCH  35  36
ATOM     36  C   UNL     1     -15.038  58.834  51.994  0.00  0.00    +0.000 C 
ATOM     37  O   UNL     1     -14.814  59.582  51.048  0.00  0.00    +0.000 OA
ATOM     38  N   UNL     1     -14.895  59.257  53.286  0.00  0.00    +0.000 N 
ATOM     39  H   UNL     1     -15.079  58.639  54.029  0.00  0.00    +0.000 HD
ATOM     40  H   UNL     1     -14.607  60.180  53.473  0.00  0.00    +0.000 HD
ENDBRANCH  35  36
ENDBRANCH  33  35
ENDBRANCH  11  33
TORSDOF 8
ENDMDL
MODEL 4
REMARK VINA RESULT:      -7.1      4.307      5.570
REMARK  Name = 353164
REMARK  10 active torsions:
REMARK  status: ('A' for Active; 'I' for Inactive)
REMARK    1  A    between atoms: C_6  and  C_10
REMARK    2  A    between atoms: C_12  and  N_16
REMARK    3  A    between atoms: C_14  and  O_19
REMARK    4  A    between atoms: N_16  and  C_21
REMARK    5  A    between atoms: N_18  and  C_23
REMARK    6  A    between atoms: C_21  and  C_25
REMARK    7  A    between atoms: C_23  and  C_27
REMARK    8  A    between atoms: C_27  and  C_32
REMARK    9  A    between atoms: C_32  and  C_33
REMARK   10  A    between atoms: C_32  and  C_34
REMARK                            x       y       z     vdW  Elec       q    Type
REMARK                         _______ _______ _______ _____ _____    ______ ____
ROOT
ATOM      1  S   UNL     1     -11.441  54.690  50.646  0.00  0.00    +0.000 S 
ATOM      2  O   UNL     1     -10.565  55.581  51.383  0.00  0.00    +0.000 OA
ATOM      3  O   UNL     1     -12.379  53.839  51.348  0.00  0.00    +0.000 OA
ATOM      4  N   UNL     1     -10.508  53.744  49.719  0.00  0.00    +0.000 N 
ATOM      5  C   UNL     1     -12.398  55.710  49.591  0.00  0.00    +0.000 A 
ATOM      6  C   UNL     1     -10.477  53.883  48.426  0.00  0.00    +0.000 C 
ATOM      7  C   UNL     1     -12.154  55.648  48.232  0.00  0.00    +0.000 A 
ATOM      8  C   UNL     1     -13.374  56.548  50.133  0.00  0.00    +0.000 A 
ATOM      9  N   UNL     1     -11.158  54.834  47.705  0.00  0.00    +0.000 N 
ATOM     10  C   UNL     1     -12.873  56.502  47.399  0.00  0.00    +0.000 A 
ATOM     11  C   UNL     1     -14.143  57.357  49.295  0.00  0.00    +0.000 A 
ATOM     12  C   UNL     1     -13.856  57.346  47.925  0.00  0.00    +0.000 A 
ATOM     13  H   UNL     1      -9.952  53.051  50.144  0.00  0.00    +0.000 HD
ATOM     14  H   UNL     1     -10.927  54.945  46.754  0.00  0.00    +0.000 HD
ENDROOT
BRANCH   6  15
ATOM     15  C   UNL     1      -9.637  52.880  47.667  0.00  0.00    +0.000 A 
ATOM     16  C   UNL     1      -8.267  52.540  48.167  0.00  0.00    +0.000 A 
ATOM     17  C   UNL     1     -10.117  52.277  46.565  0.00  0.00    +0.000 A 
ATOM     18  O   UNL     1      -7.895  53.022  49.238  0.00  0.00    +0.000 OA
ATOM     19  N   UNL     1      -7.484  51.697  47.407  0.00  0.00    +0.000 N 
ATOM     20  C   UNL     1      -9.270  51.362  45.799  0.00  0.00    +0.000 A 
ATOM     21  C   UNL     1      -7.958  51.110  46.206  0.00  0.00    +0.000 A 
ATOM     22  C   UNL     1      -9.721  50.753  44.622  0.00  0.00    +0.000 A 
ATOM     23  N   UNL     1      -7.116  50.314  45.502  0.00  0.00    +0.000 NA
ATOM     24  C   UNL     1      -8.868  49.940  43.890  0.00  0.00    +0.000 A 
ATOM     25  C   UNL     1      -7.584  49.756  44.365  0.00  0.00    +0.000 A 
BRANCH  17  26
ATOM     26  O   UNL     1     -11.387  52.470  46.050  0.00  0.00    +0.000 OA
ATOM     27  H   UNL     1     -11.549  53.173  45.453  0.00  0.00    +0.000 HD
ENDBRANCH  17  26
BRANCH  19  28
ATOM     28  C   UNL     1      -6.103  51.423  47.820  0.00  0.00    +0.000 C 
BRANCH  28  29
ATOM     29  C   UNL     1      -5.156  52.567  47.436  0.00  0.00    +0.000 C 
BRANCH  29  30
ATOM     30  C   UNL     1      -4.363  53.160  48.617  0.00  0.00    +0.000 C 
ATOM     31  C   UNL     1      -4.885  54.530  49.052  0.00  0.00    +0.000 C 
ATOM     32  C   UNL     1      -4.416  52.194  49.806  0.00  0.00    +0.000 C 
ENDBRANCH  29  30
ENDBRANCH  28  29
ENDBRANCH  19  28
ENDBRANCH   6  15
BRANCH  11  33
ATOM     33  N   UNL     1     -15.042  58.245  49.898  0.00  0.00    +0.000 N 
ATOM     34  H   UNL     1     -16.015  58.112  49.829  0.00  0.00    +0.000 HD
BRANCH  33  35
ATOM     35  C   UNL     1     -14.477  59.389  50.645  0.00  0.00    +0.000 C 
BRANCH  35  36
ATOM     36  C   UNL     1     -13.810  60.377  49.683  0.00  0.00    +0.000 C 
ATOM     37  O   UNL     1     -12.638  60.724  49.777  0.00  0.00    +0.000 OA
ATOM     38  N   UNL     1     -14.617  60.853  48.687  0.00  0.00    +0.000 N 
ATOM     39  H   UNL     1     -15.555  60.561  48.632  0.00  0.00    +0.000 HD
ATOM     40  H   UNL     1     -14.259  61.489  48.025  0.00  0.00    +0.000 HD
ENDBRANCH  35  36
ENDBRANCH  33  35
ENDBRANCH  11  33
TORSDOF 8
ENDMDL
MODEL 5
REMARK VINA RESULT:      -6.9      4.214      5.852
REMARK  Name = 353164
REMARK  10 active torsions:
REMARK  status: ('A' for Active; 'I' for Inactive)
REMARK    1  A    between atoms: C_6  and  C_10
REMARK    2  A    between atoms: C_12  and  N_16
REMARK    3  A    between atoms: C_14  and  O_19
REMARK    4  A    between atoms: N_16  and  C_21
REMARK    5  A    between atoms: N_18  and  C_23
REMARK    6  A    between atoms: C_21  and  C_25
REMARK    7  A    between atoms: C_23  and  C_27
REMARK    8  A    between atoms: C_27  and  C_32
REMARK    9  A    between atoms: C_32  and  C_33
REMARK   10  A    between atoms: C_32  and  C_34
REMARK                            x       y       z     vdW  Elec       q    Type
REMARK                         _______ _______ _______ _____ _____    ______ ____
ROOT
ATOM      1  S   UNL     1     -11.377  54.178  51.725  0.00  0.00    +0.000 S 
ATOM      2  O   UNL     1     -10.879  55.113  52.715  0.00  0.00    +0.000 OA
ATOM      3  O   UNL     1     -12.173  53.037  52.130  0.00  0.00    +0.000 OA
ATOM      4  N   UNL     1     -10.104  53.626  50.890  0.00  0.00    +0.000 N 
ATOM      5  C   UNL     1     -12.380  55.112  50.634  0.00  0.00    +0.000 A 
ATOM      6  C   UNL     1      -9.905  53.972  49.652  0.00  0.00    +0.000 C 
ATOM      7  C   UNL     1     -11.916  55.324  49.349  0.00  0.00    +0.000 A 
ATOM      8  C   UNL     1     -13.607  55.612  51.073  0.00  0.00    +0.000 A 
ATOM      9  N   UNL     1     -10.679  54.849  48.930  0.00  0.00    +0.000 N 
ATOM     10  C   UNL     1     -12.685  56.117  48.499  0.00  0.00    +0.000 A 
ATOM     11  C   UNL     1     -14.411  56.352  50.203  0.00  0.00    +0.000 A 
ATOM     12  C   UNL     1     -13.918  56.624  48.922  0.00  0.00    +0.000 A 
ATOM     13  H   UNL     1      -9.468  53.016  51.329  0.00  0.00    +0.000 HD
ATOM     14  H   UNL     1     -10.335  55.160  48.061  0.00  0.00    +0.000 HD
ENDROOT
BRANCH   6  15
ATOM     15  C   UNL     1      -8.732  53.318  48.956  0.00  0.00    +0.000 A 
ATOM     16  C   UNL     1      -8.963  52.542  47.696  0.00  0.00    +0.000 A 
ATOM     17  C   UNL     1      -7.486  53.446  49.446  0.00  0.00    +0.000 A 
ATOM     18  O   UNL     1     -10.096  52.533  47.210  0.00  0.00    +0.000 OA
ATOM     19  N   UNL     1      -7.895  51.875  47.133  0.00  0.00    +0.000 N 
ATOM     20  C   UNL     1      -6.369  52.752  48.804  0.00  0.00    +0.000 A 
ATOM     21  C   UNL     1      -6.590  51.950  47.681  0.00  0.00    +0.000 A 
ATOM     22  C   UNL     1      -5.067  52.825  49.313  0.00  0.00    +0.000 A 
ATOM     23  N   UNL     1      -5.599  51.243  47.085  0.00  0.00    +0.000 NA
ATOM     24  C   UNL     1      -4.045  52.103  48.713  0.00  0.00    +0.000 A 
ATOM     25  C   UNL     1      -4.360  51.330  47.613  0.00  0.00    +0.000 A 
BRANCH  17  26
ATOM     26  O   UNL     1      -7.151  54.188  50.564  0.00  0.00    +0.000 OA
ATOM     27  H   UNL     1      -7.568  54.015  51.384  0.00  0.00    +0.000 HD
ENDBRANCH  17  26
BRANCH  19  28
ATOM     28  C   UNL     1      -8.111  51.029  45.955  0.00  0.00    +0.000 C 
BRANCH  28  29
ATOM     29  C   UNL     1      -8.174  51.855  44.664  0.00  0.00    +0.000 C 
BRANCH  29  30
ATOM     30  C   UNL     1      -9.419  51.584  43.796  0.00  0.00    +0.000 C 
ATOM     31  C   UNL     1     -10.278  50.440  44.337  0.00  0.00    +0.000 C 
ATOM     32  C   UNL     1     -10.267  52.858  43.706  0.00  0.00    +0.000 C 
ENDBRANCH  29  30
ENDBRANCH  28  29
ENDBRANCH  19  28
ENDBRANCH   6  15
BRANCH  11  33
ATOM     33  N   UNL     1     -15.586  56.908  50.723  0.00  0.00    +0.000 N 
ATOM     34  H   UNL     1     -16.379  57.046  50.157  0.00  0.00    +0.000 HD
BRANCH  33  35
ATOM     35  C   UNL     1     -15.593  57.278  52.154  0.00  0.00    +0.000 C 
BRANCH  35  36
ATOM     36  C   UNL     1     -15.216  58.753  52.325  0.00  0.00    +0.000 C 
ATOM     37  O   UNL     1     -14.867  59.473  51.396  0.00  0.00    +0.000 OA
ATOM     38  N   UNL     1     -15.301  59.230  53.604  0.00  0.00    +0.000 N 
ATOM     39  H   UNL     1     -15.582  58.633  54.333  0.00  0.00    +0.000 HD
ATOM     40  H   UNL     1     -15.079  60.171  53.794  0.00  0.00    +0.000 HD
ENDBRANCH  35  36
ENDBRANCH  33  35
ENDBRANCH  11  33
TORSDOF 8
ENDMDL
MODEL 6
REMARK VINA RESULT:      -6.9      2.494      3.395
REMARK  Name = 353164
REMARK  10 active torsions:
REMARK  status: ('A' for Active; 'I' for Inactive)
REMARK    1  A    between atoms: C_6  and  C_10
REMARK    2  A    between atoms: C_12  and  N_16
REMARK    3  A    between atoms: C_14  and  O_19
REMARK    4  A    between atoms: N_16  and  C_21
REMARK    5  A    between atoms: N_18  and  C_23
REMARK    6  A    between atoms: C_21  and  C_25
REMARK    7  A    between atoms: C_23  and  C_27
REMARK    8  A    between atoms: C_27  and  C_32
REMARK    9  A    between atoms: C_32  and  C_33
REMARK   10  A    between atoms: C_32  and  C_34
REMARK                            x       y       z     vdW  Elec       q    Type
REMARK                         _______ _______ _______ _____ _____    ______ ____
ROOT
ATOM      1  S   UNL     1     -10.491  54.655  48.468  0.00  0.00    +0.000 S 
ATOM      2  O   UNL     1     -11.187  53.491  47.954  0.00  0.00    +0.000 OA
ATOM      3  O   UNL     1     -10.176  55.766  47.594  0.00  0.00    +0.000 OA
ATOM      4  N   UNL     1      -9.109  54.141  49.138  0.00  0.00    +0.000 N 
ATOM      5  C   UNL     1     -11.503  55.305  49.742  0.00  0.00    +0.000 A 
ATOM      6  C   UNL     1      -8.934  54.157  50.427  0.00  0.00    +0.000 C 
ATOM      7  C   UNL     1     -11.060  55.188  51.046  0.00  0.00    +0.000 A 
ATOM      8  C   UNL     1     -12.714  55.921  49.421  0.00  0.00    +0.000 A 
ATOM      9  N   UNL     1      -9.868  54.545  51.358  0.00  0.00    +0.000 N 
ATOM     10  C   UNL     1     -11.892  55.650  52.063  0.00  0.00    +0.000 A 
ATOM     11  C   UNL     1     -13.520  56.445  50.433  0.00  0.00    +0.000 A 
ATOM     12  C   UNL     1     -13.107  56.273  51.759  0.00  0.00    +0.000 A 
ATOM     13  H   UNL     1      -8.386  53.809  48.557  0.00  0.00    +0.000 HD
ATOM     14  H   UNL     1      -9.681  54.356  52.306  0.00  0.00    +0.000 HD
ENDROOT
BRANCH   6  15
ATOM     15  C   UNL     1      -7.568  53.737  50.921  0.00  0.00    +0.000 A 
ATOM     16  C   UNL     1      -6.898  52.546  50.310  0.00  0.00    +0.000 A 
ATOM     17  C   UNL     1      -6.943  54.436  51.886  0.00  0.00    +0.000 A 
ATOM     18  O   UNL     1      -7.443  51.990  49.354  0.00  0.00    +0.000 OA
ATOM     19  N   UNL     1      -5.697  52.125  50.842  0.00  0.00    +0.000 N 
ATOM     20  C   UNL     1      -5.653  53.981  52.405  0.00  0.00    +0.000 A 
ATOM     21  C   UNL     1      -5.063  52.817  51.905  0.00  0.00    +0.000 A 
ATOM     22  C   UNL     1      -4.996  54.657  53.440  0.00  0.00    +0.000 A 
ATOM     23  N   UNL     1      -3.898  52.323  52.390  0.00  0.00    +0.000 NA
ATOM     24  C   UNL     1      -3.804  54.160  53.948  0.00  0.00    +0.000 A 
ATOM     25  C   UNL     1      -3.302  52.997  53.397  0.00  0.00    +0.000 A 
BRANCH  17  26
ATOM     26  O   UNL     1      -7.440  55.584  52.476  0.00  0.00    +0.000 OA
ATOM     27  H   UNL     1      -6.991  56.398  52.369  0.00  0.00    +0.000 HD
ENDBRANCH  17  26
BRANCH  19  28
ATOM     28  C   UNL     1      -5.066  50.905  50.328  0.00  0.00    +0.000 C 
BRANCH  28  29
ATOM     29  C   UNL     1      -3.810  51.216  49.505  0.00  0.00    +0.000 C 
BRANCH  29  30
ATOM     30  C   UNL     1      -4.045  51.273  47.982  0.00  0.00    +0.000 C 
ATOM     31  C   UNL     1      -5.155  50.327  47.521  0.00  0.00    +0.000 C 
ATOM     32  C   UNL     1      -4.396  52.707  47.571  0.00  0.00    +0.000 C 
ENDBRANCH  29  30
ENDBRANCH  28  29
ENDBRANCH  19  28
ENDBRANCH   6  15
BRANCH  11  33
ATOM     33  N   UNL     1     -14.765  56.968  50.063  0.00  0.00    +0.000 N 
ATOM     34  H   UNL     1     -15.404  56.437  49.534  0.00  0.00    +0.000 HD
BRANCH  33  35
ATOM     35  C   UNL     1     -15.087  58.344  50.496  0.00  0.00    +0.000 C 
BRANCH  35  36
ATOM     36  C   UNL     1     -14.218  59.356  49.743  0.00  0.00    +0.000 C 
ATOM     37  O   UNL     1     -13.657  60.301  50.288  0.00  0.00    +0.000 OA
ATOM     38  N   UNL     1     -14.097  59.133  48.399  0.00  0.00    +0.000 N 
ATOM     39  H   UNL     1     -14.558  58.369  47.985  0.00  0.00    +0.000 HD
ATOM     40  H   UNL     1     -13.551  59.738  47.847  0.00  0.00    +0.000 HD
ENDBRANCH  35  36
ENDBRANCH  33  35
ENDBRANCH  11  33
TORSDOF 8
ENDMDL
MODEL 7
REMARK VINA RESULT:      -6.7      3.228      9.739
REMARK  Name = 353164
REMARK  10 active torsions:
REMARK  status: ('A' for Active; 'I' for Inactive)
REMARK    1  A    between atoms: C_6  and  C_10
REMARK    2  A    between atoms: C_12  and  N_16
REMARK    3  A    between atoms: C_14  and  O_19
REMARK    4  A    between atoms: N_16  and  C_21
REMARK    5  A    between atoms: N_18  and  C_23
REMARK    6  A    between atoms: C_21  and  C_25
REMARK    7  A    between atoms: C_23  and  C_27
REMARK    8  A    between atoms: C_27  and  C_32
REMARK    9  A    between atoms: C_32  and  C_33
REMARK   10  A    between atoms: C_32  and  C_34
REMARK                            x       y       z     vdW  Elec       q    Type
REMARK                         _______ _______ _______ _____ _____    ______ ____
ROOT
ATOM      1  S   UNL     1      -8.412  51.552  51.004  0.00  0.00    +0.000 S 
ATOM      2  O   UNL     1      -8.484  50.406  50.118  0.00  0.00    +0.000 OA
ATOM      3  O   UNL     1      -8.423  51.368  52.441  0.00  0.00    +0.000 OA
ATOM      4  N   UNL     1      -9.632  52.545  50.619  0.00  0.00    +0.000 N 
ATOM      5  C   UNL     1      -6.907  52.366  50.626  0.00  0.00    +0.000 A 
ATOM      6  C   UNL     1      -9.415  53.686  50.032  0.00  0.00    +0.000 C 
ATOM      7  C   UNL     1      -6.975  53.593  49.995  0.00  0.00    +0.000 A 
ATOM      8  C   UNL     1      -5.691  51.771  50.967  0.00  0.00    +0.000 A 
ATOM      9  N   UNL     1      -8.191  54.163  49.632  0.00  0.00    +0.000 N 
ATOM     10  C   UNL     1      -5.779  54.213  49.641  0.00  0.00    +0.000 A 
ATOM     11  C   UNL     1      -4.490  52.421  50.672  0.00  0.00    +0.000 A 
ATOM     12  C   UNL     1      -4.552  53.634  49.977  0.00  0.00    +0.000 A 
ATOM     13  H   UNL     1     -10.555  52.280  50.832  0.00  0.00    +0.000 HD
ATOM     14  H   UNL     1      -8.172  54.958  49.052  0.00  0.00    +0.000 HD
ENDROOT
BRANCH   6  15
ATOM     15  C   UNL     1     -10.628  54.562  49.808  0.00  0.00    +0.000 A 
ATOM     16  C   UNL     1     -11.565  54.827  50.945  0.00  0.00    +0.000 A 
ATOM     17  C   UNL     1     -10.858  55.119  48.605  0.00  0.00    +0.000 A 
ATOM     18  O   UNL     1     -11.272  54.395  52.062  0.00  0.00    +0.000 OA
ATOM     19  N   UNL     1     -12.713  55.548  50.693  0.00  0.00    +0.000 N 
ATOM     20  C   UNL     1     -12.071  55.907  48.380  0.00  0.00    +0.000 A 
ATOM     21  C   UNL     1     -12.998  56.083  49.411  0.00  0.00    +0.000 A 
ATOM     22  C   UNL     1     -12.365  56.464  47.130  0.00  0.00    +0.000 A 
ATOM     23  N   UNL     1     -14.161  56.757  49.237  0.00  0.00    +0.000 NA
ATOM     24  C   UNL     1     -13.555  57.152  46.939  0.00  0.00    +0.000 A 
ATOM     25  C   UNL     1     -14.414  57.267  48.013  0.00  0.00    +0.000 A 
BRANCH  17  26
ATOM     26  O   UNL     1     -10.029  54.992  47.505  0.00  0.00    +0.000 OA
ATOM     27  H   UNL     1      -9.211  54.543  47.584  0.00  0.00    +0.000 HD
ENDBRANCH  17  26
BRANCH  19  28
ATOM     28  C   UNL     1     -13.697  55.741  51.763  0.00  0.00    +0.000 C 
BRANCH  28  29
ATOM     29  C   UNL     1     -13.455  57.047  52.531  0.00  0.00    +0.000 C 
BRANCH  29  30
ATOM     30  C   UNL     1     -14.741  57.790  52.943  0.00  0.00    +0.000 C 
ATOM     31  C   UNL     1     -14.837  59.189  52.332  0.00  0.00    +0.000 C 
ATOM     32  C   UNL     1     -15.964  56.968  52.524  0.00  0.00    +0.000 C 
ENDBRANCH  29  30
ENDBRANCH  28  29
ENDBRANCH  19  28
ENDBRANCH   6  15
BRANCH  11  33
ATOM     33  N   UNL     1      -3.301  51.738  50.951  0.00  0.00    +0.000 N 
ATOM     34  H   UNL     1      -2.453  51.994  50.521  0.00  0.00    +0.000 HD
BRANCH  33  35
ATOM     35  C   UNL     1      -3.362  50.619  51.915  0.00  0.00    +0.000 C 
BRANCH  35  36
ATOM     36  C   UNL     1      -3.316  51.150  53.351  0.00  0.00    +0.000 C 
ATOM     37  O   UNL     1      -3.300  52.344  53.630  0.00  0.00    +0.000 OA
ATOM     38  N   UNL     1      -3.300  50.190  54.325  0.00  0.00    +0.000 N 
ATOM     39  H   UNL     1      -3.312  49.238  54.077  0.00  0.00    +0.000 HD
ATOM     40  H   UNL     1      -3.275  50.452  55.274  0.00  0.00    +0.000 HD
ENDBRANCH  35  36
ENDBRANCH  33  35
ENDBRANCH  11  33
TORSDOF 8
ENDMDL
MODEL 8
REMARK VINA RESULT:      -6.7      4.714      6.278
REMARK  Name = 353164
REMARK  10 active torsions:
REMARK  status: ('A' for Active; 'I' for Inactive)
REMARK    1  A    between atoms: C_6  and  C_10
REMARK    2  A    between atoms: C_12  and  N_16
REMARK    3  A    between atoms: C_14  and  O_19
REMARK    4  A    between atoms: N_16  and  C_21
REMARK    5  A    between atoms: N_18  and  C_23
REMARK    6  A    between atoms: C_21  and  C_25
REMARK    7  A    between atoms: C_23  and  C_27
REMARK    8  A    between atoms: C_27  and  C_32
REMARK    9  A    between atoms: C_32  and  C_33
REMARK   10  A    between atoms: C_32  and  C_34
REMARK                            x       y       z     vdW  Elec       q    Type
REMARK                         _______ _______ _______ _____ _____    ______ ____
ROOT
ATOM      1  S   UNL     1      -9.595  54.827  50.850  0.00  0.00    +0.000 S 
ATOM      2  O   UNL     1      -8.944  56.124  50.831  0.00  0.00    +0.000 OA
ATOM      3  O   UNL     1      -9.462  53.958  52.000  0.00  0.00    +0.000 OA
ATOM      4  N   UNL     1      -9.091  54.009  49.546  0.00  0.00    +0.000 N 
ATOM      5  C   UNL     1     -11.309  55.141  50.667  0.00  0.00    +0.000 A 
ATOM      6  C   UNL     1      -9.888  53.775  48.544  0.00  0.00    +0.000 C 
ATOM      7  C   UNL     1     -11.911  54.776  49.478  0.00  0.00    +0.000 A 
ATOM      8  C   UNL     1     -12.021  55.738  51.708  0.00  0.00    +0.000 A 
ATOM      9  N   UNL     1     -11.187  54.210  48.435  0.00  0.00    +0.000 N 
ATOM     10  C   UNL     1     -13.260  55.079  49.308  0.00  0.00    +0.000 A 
ATOM     11  C   UNL     1     -13.389  55.983  51.568  0.00  0.00    +0.000 A 
ATOM     12  C   UNL     1     -13.990  55.674  50.342  0.00  0.00    +0.000 A 
ATOM     13  H   UNL     1      -8.163  53.683  49.510  0.00  0.00    +0.000 HD
ATOM     14  H   UNL     1     -11.633  54.114  47.562  0.00  0.00    +0.000 HD
ENDROOT
BRANCH   6  15
ATOM     15  C   UNL     1      -9.325  52.924  47.428  0.00  0.00    +0.000 A 
ATOM     16  C   UNL     1      -8.456  51.751  47.764  0.00  0.00    +0.000 A 
ATOM     17  C   UNL     1      -9.616  53.197  46.144  0.00  0.00    +0.000 A 
ATOM     18  O   UNL     1      -8.295  51.458  48.950  0.00  0.00    +0.000 OA
ATOM     19  N   UNL     1      -7.877  51.048  46.728  0.00  0.00    +0.000 N 
ATOM     20  C   UNL     1      -9.011  52.410  45.069  0.00  0.00    +0.000 A 
ATOM     21  C   UNL     1      -8.125  51.372  45.369  0.00  0.00    +0.000 A 
ATOM     22  C   UNL     1      -9.255  52.694  43.721  0.00  0.00    +0.000 A 
ATOM     23  N   UNL     1      -7.496  50.650  44.410  0.00  0.00    +0.000 NA
ATOM     24  C   UNL     1      -8.614  51.965  42.730  0.00  0.00    +0.000 A 
ATOM     25  C   UNL     1      -7.748  50.964  43.122  0.00  0.00    +0.000 A 
BRANCH  17  26
ATOM     26  O   UNL     1     -10.455  54.214  45.724  0.00  0.00    +0.000 OA
ATOM     27  H   UNL     1     -11.377  54.066  45.663  0.00  0.00    +0.000 HD
ENDBRANCH  17  26
BRANCH  19  28
ATOM     28  C   UNL     1      -6.944  49.957  47.027  0.00  0.00    +0.000 C 
BRANCH  28  29
ATOM     29  C   UNL     1      -5.501  50.462  47.159  0.00  0.00    +0.000 C 
BRANCH  29  30
ATOM     30  C   UNL     1      -5.030  50.667  48.612  0.00  0.00    +0.000 C 
ATOM     31  C   UNL     1      -3.908  49.706  49.011  0.00  0.00    +0.000 C 
ATOM     32  C   UNL     1      -4.552  52.111  48.797  0.00  0.00    +0.000 C 
ENDBRANCH  29  30
ENDBRANCH  28  29
ENDBRANCH  19  28
ENDBRANCH   6  15
BRANCH  11  33
ATOM     33  N   UNL     1     -14.033  56.668  52.604  0.00  0.00    +0.000 N 
ATOM     34  H   UNL     1     -13.690  56.637  53.527  0.00  0.00    +0.000 HD
BRANCH  33  35
ATOM     35  C   UNL     1     -15.246  57.441  52.265  0.00  0.00    +0.000 C 
BRANCH  35  36
ATOM     36  C   UNL     1     -14.891  58.912  52.024  0.00  0.00    +0.000 C 
ATOM     37  O   UNL     1     -15.299  59.556  51.064  0.00  0.00    +0.000 OA
ATOM     38  N   UNL     1     -14.078  59.476  52.968  0.00  0.00    +0.000 N 
ATOM     39  H   UNL     1     -13.762  58.938  53.729  0.00  0.00    +0.000 HD
ATOM     40  H   UNL     1     -13.809  60.420  52.886  0.00  0.00    +0.000 HD
ENDBRANCH  35  36
ENDBRANCH  33  35
ENDBRANCH  11  33
TORSDOF 8
ENDMDL
MODEL 9
REMARK VINA RESULT:      -6.5      2.471      4.031
REMARK  Name = 353164
REMARK  10 active torsions:
REMARK  status: ('A' for Active; 'I' for Inactive)
REMARK    1  A    between atoms: C_6  and  C_10
REMARK    2  A    between atoms: C_12  and  N_16
REMARK    3  A    between atoms: C_14  and  O_19
REMARK    4  A    between atoms: N_16  and  C_21
REMARK    5  A    between atoms: N_18  and  C_23
REMARK    6  A    between atoms: C_21  and  C_25
REMARK    7  A    between atoms: C_23  and  C_27
REMARK    8  A    between atoms: C_27  and  C_32
REMARK    9  A    between atoms: C_32  and  C_33
REMARK   10  A    between atoms: C_32  and  C_34
REMARK                            x       y       z     vdW  Elec       q    Type
REMARK                         _______ _______ _______ _____ _____    ______ ____
ROOT
ATOM      1  S   UNL     1     -11.273  54.599  47.891  0.00  0.00    +0.000 S 
ATOM      2  O   UNL     1     -12.269  53.620  47.496  0.00  0.00    +0.000 OA
ATOM      3  O   UNL     1     -10.943  55.703  47.013  0.00  0.00    +0.000 OA
ATOM      4  N   UNL     1      -9.905  53.797  48.221  0.00  0.00    +0.000 N 
ATOM      5  C   UNL     1     -11.857  55.314  49.380  0.00  0.00    +0.000 A 
ATOM      6  C   UNL     1      -9.466  53.680  49.440  0.00  0.00    +0.000 C 
ATOM      7  C   UNL     1     -11.182  55.017  50.550  0.00  0.00    +0.000 A 
ATOM      8  C   UNL     1     -12.968  56.158  49.357  0.00  0.00    +0.000 A 
ATOM      9  N   UNL     1     -10.095  54.151  50.567  0.00  0.00    +0.000 N 
ATOM     10  C   UNL     1     -11.681  55.538  51.742  0.00  0.00    +0.000 A 
ATOM     11  C   UNL     1     -13.432  56.734  50.541  0.00  0.00    +0.000 A 
ATOM     12  C   UNL     1     -12.792  56.387  51.737  0.00  0.00    +0.000 A 
ATOM     13  H   UNL     1      -9.395  53.390  47.483  0.00  0.00    +0.000 HD
ATOM     14  H   UNL     1      -9.754  53.858  51.443  0.00  0.00    +0.000 HD
ENDROOT
BRANCH   6  15
ATOM     15  C   UNL     1      -8.132  52.987  49.606  0.00  0.00    +0.000 A 
ATOM     16  C   UNL     1      -7.770  52.394  50.932  0.00  0.00    +0.000 A 
ATOM     17  C   UNL     1      -7.281  52.881  48.569  0.00  0.00    +0.000 A 
ATOM     18  O   UNL     1      -8.612  52.409  51.832  0.00  0.00    +0.000 OA
ATOM     19  N   UNL     1      -6.510  51.853  51.085  0.00  0.00    +0.000 N 
ATOM     20  C   UNL     1      -5.964  52.272  48.758  0.00  0.00    +0.000 A 
ATOM     21  C   UNL     1      -5.581  51.798  50.015  0.00  0.00    +0.000 A 
ATOM     22  C   UNL     1      -5.036  52.185  47.714  0.00  0.00    +0.000 A 
ATOM     23  N   UNL     1      -4.354  51.276  50.255  0.00  0.00    +0.000 NA
ATOM     24  C   UNL     1      -3.775  51.656  47.947  0.00  0.00    +0.000 A 
ATOM     25  C   UNL     1      -3.483  51.222  49.225  0.00  0.00    +0.000 A 
BRANCH  17  26
ATOM     26  O   UNL     1      -7.538  53.337  47.288  0.00  0.00    +0.000 OA
ATOM     27  H   UNL     1      -8.414  53.545  47.031  0.00  0.00    +0.000 HD
ENDBRANCH  17  26
BRANCH  19  28
ATOM     28  C   UNL     1      -6.093  51.353  52.399  0.00  0.00    +0.000 C 
BRANCH  28  29
ATOM     29  C   UNL     1      -5.371  52.433  53.216  0.00  0.00    +0.000 C 
BRANCH  29  30
ATOM     30  C   UNL     1      -6.040  52.764  54.564  0.00  0.00    +0.000 C 
ATOM     31  C   UNL     1      -6.619  54.179  54.605  0.00  0.00    +0.000 C 
ATOM     32  C   UNL     1      -7.154  51.750  54.846  0.00  0.00    +0.000 C 
ENDBRANCH  29  30
ENDBRANCH  28  29
ENDBRANCH  19  28
ENDBRANCH   6  15
BRANCH  11  33
ATOM     33  N   UNL     1     -14.605  57.496  50.474  0.00  0.00    +0.000 N 
ATOM     34  H   UNL     1     -15.458  57.095  50.191  0.00  0.00    +0.000 HD
BRANCH  33  35
ATOM     35  C   UNL     1     -14.516  58.924  50.844  0.00  0.00    +0.000 C 
BRANCH  35  36
ATOM     36  C   UNL     1     -13.849  59.725  49.722  0.00  0.00    +0.000 C 
ATOM     37  O   UNL     1     -12.983  60.571  49.919  0.00  0.00    +0.000 OA
ATOM     38  N   UNL     1     -14.282  59.429  48.459  0.00  0.00    +0.000 N 
ATOM     39  H   UNL     1     -14.979  58.747  48.326  0.00  0.00    +0.000 HD
ATOM     40  H   UNL     1     -13.897  59.898  47.684  0.00  0.00    +0.000 HD
ENDBRANCH  35  36
ENDBRANCH  33  35
ENDBRANCH  11  33
TORSDOF 8
ENDMDL
