MODEL 1
REMARK VINA RESULT:      -7.3      0.000      0.000
REMARK  Name = 353080
REMARK  13 active torsions:
REMARK  status: ('A' for Active; 'I' for Inactive)
REMARK    1  A    between atoms: C_6  and  C_10
REMARK    2  A    between atoms: C_12  and  N_16
REMARK    3  A    between atoms: C_14  and  O_19
REMARK    4  A    between atoms: N_16  and  S_21
REMARK    5  A    between atoms: N_18  and  C_23
REMARK    6  A    between atoms: S_21  and  C_27
REMARK    7  A    between atoms: C_23  and  C_29
REMARK    8  A    between atoms: C_27  and  C_31
REMARK    9  A    between atoms: C_29  and  C_33
REMARK   10  A    between atoms: C_31  and  C_34
REMARK   11  A    between atoms: C_33  and  C_35
REMARK   12  A    between atoms: C_33  and  C_36
REMARK   13  A    between atoms: C_34  and  C_37
REMARK                            x       y       z     vdW  Elec       q    Type
REMARK                         _______ _______ _______ _____ _____    ______ ____
ROOT
ATOM      1  S   UNL     1     -10.929  55.017  50.509  0.00  0.00    +0.000 S 
ATOM      2  O   UNL     1      -9.859  55.907  50.896  0.00  0.00    +0.000 OA
ATOM      3  O   UNL     1     -11.834  54.432  51.473  0.00  0.00    +0.000 OA
ATOM      4  N   UNL     1     -10.272  53.768  49.648  0.00  0.00    +0.000 N 
ATOM      5  C   UNL     1     -11.887  55.817  49.292  0.00  0.00    +0.000 A 
ATOM      6  C   UNL     1      -9.956  53.882  48.297  0.00  0.00    +0.000 C 
ATOM      7  C   UNL     1     -11.554  55.578  47.961  0.00  0.00    +0.000 A 
ATOM      8  C   UNL     1     -12.954  56.642  49.662  0.00  0.00    +0.000 A 
ATOM      9  N   UNL     1     -10.501  54.764  47.521  0.00  0.00    +0.000 N 
ATOM     10  C   UNL     1     -12.330  56.190  46.975  0.00  0.00    +0.000 A 
ATOM     11  C   UNL     1     -13.707  57.241  48.657  0.00  0.00    +0.000 A 
ATOM     12  C   UNL     1     -13.396  57.022  47.316  0.00  0.00    +0.000 A 
ATOM     13  H   UNL     1     -10.099  52.915  50.108  0.00  0.00    +0.000 HD
ATOM     14  H   UNL     1     -10.168  54.866  46.600  0.00  0.00    +0.000 HD
ENDROOT
BRANCH   6  15
ATOM     15  C   UNL     1      -8.922  52.940  47.786  0.00  0.00    +0.000 A 
ATOM     16  C   UNL     1      -9.205  52.020  46.648  0.00  0.00    +0.000 A 
ATOM     17  C   UNL     1      -7.722  52.912  48.393  0.00  0.00    +0.000 A 
ATOM     18  O   UNL     1     -10.342  52.008  46.171  0.00  0.00    +0.000 OA
ATOM     19  N   UNL     1      -8.169  51.233  46.166  0.00  0.00    +0.000 N 
ATOM     20  C   UNL     1      -6.707  51.946  47.972  0.00  0.00    +0.000 A 
ATOM     21  C   UNL     1      -6.932  51.130  46.859  0.00  0.00    +0.000 A 
ATOM     22  C   UNL     1      -5.502  51.792  48.670  0.00  0.00    +0.000 A 
ATOM     23  N   UNL     1      -6.020  50.219  46.438  0.00  0.00    +0.000 NA
ATOM     24  C   UNL     1      -4.571  50.848  48.257  0.00  0.00    +0.000 A 
ATOM     25  C   UNL     1      -4.875  50.092  47.144  0.00  0.00    +0.000 A 
BRANCH  17  26
ATOM     26  O   UNL     1      -7.344  53.730  49.445  0.00  0.00    +0.000 OA
ATOM     27  H   UNL     1      -6.846  54.506  49.280  0.00  0.00    +0.000 HD
ENDBRANCH  17  26
BRANCH  19  28
ATOM     28  C   UNL     1      -8.425  50.328  45.042  0.00  0.00    +0.000 C 
BRANCH  28  29
ATOM     29  C   UNL     1      -7.832  50.771  43.692  0.00  0.00    +0.000 C 
BRANCH  29  30
ATOM     30  C   UNL     1      -8.762  51.587  42.777  0.00  0.00    +0.000 C 
ATOM     31  C   UNL     1     -10.226  51.170  42.905  0.00  0.00    +0.000 C 
ATOM     32  C   UNL     1      -8.622  53.076  43.115  0.00  0.00    +0.000 C 
ENDBRANCH  29  30
ENDBRANCH  28  29
ENDBRANCH  19  28
ENDBRANCH   6  15
BRANCH  11  33
ATOM     33  N   UNL     1     -14.756  58.152  48.966  0.00  0.00    +0.000 N 
ATOM     34  H   UNL     1     -15.700  57.929  48.794  0.00  0.00    +0.000 HD
BRANCH  33  35
ATOM     35  S   UNL     1     -14.302  59.638  49.642  0.00  0.00    +0.000 S 
ATOM     36  O   UNL     1     -12.878  59.527  49.874  0.00  0.00    +0.000 OA
ATOM     37  O   UNL     1     -14.860  60.723  48.862  0.00  0.00    +0.000 OA
BRANCH  35  38
ATOM     38  C   UNL     1     -15.131  59.564  51.229  0.00  0.00    +0.000 C 
BRANCH  38  39
ATOM     39  C   UNL     1     -14.209  58.975  52.290  0.00  0.00    +0.000 C 
BRANCH  39  40
ATOM     40  C   UNL     1     -14.929  57.952  53.166  0.00  0.00    +0.000 C 
ATOM     41  C   UNL     1     -15.603  56.889  52.312  0.00  0.00    +0.000 C 
ENDBRANCH  39  40
ENDBRANCH  38  39
ENDBRANCH  35  38
ENDBRANCH  33  35
ENDBRANCH  11  33
TORSDOF 10
ENDMDL
MODEL 2
REMARK VINA RESULT:      -7.3      3.071      5.112
REMARK  Name = 353080
REMARK  13 active torsions:
REMARK  status: ('A' for Active; 'I' for Inactive)
REMARK    1  A    between atoms: C_6  and  C_10
REMARK    2  A    between atoms: C_12  and  N_16
REMARK    3  A    between atoms: C_14  and  O_19
REMARK    4  A    between atoms: N_16  and  S_21
REMARK    5  A    between atoms: N_18  and  C_23
REMARK    6  A    between atoms: S_21  and  C_27
REMARK    7  A    between atoms: C_23  and  C_29
REMARK    8  A    between atoms: C_27  and  C_31
REMARK    9  A    between atoms: C_29  and  C_33
REMARK   10  A    between atoms: C_31  and  C_34
REMARK   11  A    between atoms: C_33  and  C_35
REMARK   12  A    between atoms: C_33  and  C_36
REMARK   13  A    between atoms: C_34  and  C_37
REMARK                            x       y       z     vdW  Elec       q    Type
REMARK                         _______ _______ _______ _____ _____    ______ ____
ROOT
ATOM      1  S   UNL     1     -10.943  53.059  52.010  0.00  0.00    +0.000 S 
ATOM      2  O   UNL     1     -10.409  53.470  53.288  0.00  0.00    +0.000 OA
ATOM      3  O   UNL     1     -11.973  52.051  51.892  0.00  0.00    +0.000 OA
ATOM      4  N   UNL     1      -9.681  52.567  51.062  0.00  0.00    +0.000 N 
ATOM      5  C   UNL     1     -11.484  54.483  51.164  0.00  0.00    +0.000 A 
ATOM      6  C   UNL     1      -8.876  53.468  50.371  0.00  0.00    +0.000 C 
ATOM      7  C   UNL     1     -10.579  55.092  50.299  0.00  0.00    +0.000 A 
ATOM      8  C   UNL     1     -12.786  54.961  51.347  0.00  0.00    +0.000 A 
ATOM      9  N   UNL     1      -9.264  54.667  50.069  0.00  0.00    +0.000 N 
ATOM     10  C   UNL     1     -11.009  56.218  49.593  0.00  0.00    +0.000 A 
ATOM     11  C   UNL     1     -13.184  56.087  50.633  0.00  0.00    +0.000 A 
ATOM     12  C   UNL     1     -12.299  56.719  49.761  0.00  0.00    +0.000 A 
ATOM     13  H   UNL     1      -9.493  51.603  50.984  0.00  0.00    +0.000 HD
ATOM     14  H   UNL     1      -8.619  55.294  49.668  0.00  0.00    +0.000 HD
ENDROOT
BRANCH   6  15
ATOM     15  C   UNL     1      -7.513  52.986  50.012  0.00  0.00    +0.000 A 
ATOM     16  C   UNL     1      -6.295  53.553  50.658  0.00  0.00    +0.000 A 
ATOM     17  C   UNL     1      -7.395  52.041  49.062  0.00  0.00    +0.000 A 
ATOM     18  O   UNL     1      -6.432  54.479  51.460  0.00  0.00    +0.000 OA
ATOM     19  N   UNL     1      -5.065  52.996  50.340  0.00  0.00    +0.000 N 
ATOM     20  C   UNL     1      -6.071  51.599  48.625  0.00  0.00    +0.000 A 
ATOM     21  C   UNL     1      -4.924  52.066  49.274  0.00  0.00    +0.000 A 
ATOM     22  C   UNL     1      -5.906  50.722  47.544  0.00  0.00    +0.000 A 
ATOM     23  N   UNL     1      -3.678  51.685  48.898  0.00  0.00    +0.000 NA
ATOM     24  C   UNL     1      -4.634  50.343  47.140  0.00  0.00    +0.000 A 
ATOM     25  C   UNL     1      -3.560  50.848  47.844  0.00  0.00    +0.000 A 
BRANCH  17  26
ATOM     26  O   UNL     1      -8.455  51.434  48.409  0.00  0.00    +0.000 OA
ATOM     27  H   UNL     1      -8.384  50.544  48.126  0.00  0.00    +0.000 HD
ENDBRANCH  17  26
BRANCH  19  28
ATOM     28  C   UNL     1      -3.855  53.533  50.972  0.00  0.00    +0.000 C 
BRANCH  28  29
ATOM     29  C   UNL     1      -3.300  52.701  52.142  0.00  0.00    +0.000 C 
BRANCH  29  30
ATOM     30  C   UNL     1      -3.641  53.207  53.556  0.00  0.00    +0.000 C 
ATOM     31  C   UNL     1      -3.683  54.732  53.639  0.00  0.00    +0.000 C 
ATOM     32  C   UNL     1      -4.996  52.632  53.983  0.00  0.00    +0.000 C 
ENDBRANCH  29  30
ENDBRANCH  28  29
ENDBRANCH  19  28
ENDBRANCH   6  15
BRANCH  11  33
ATOM     33  N   UNL     1     -14.468  56.668  50.830  0.00  0.00    +0.000 N 
ATOM     34  H   UNL     1     -15.174  56.605  50.146  0.00  0.00    +0.000 HD
BRANCH  33  35
ATOM     35  S   UNL     1     -14.722  57.476  52.299  0.00  0.00    +0.000 S 
ATOM     36  O   UNL     1     -15.994  56.985  52.783  0.00  0.00    +0.000 OA
ATOM     37  O   UNL     1     -13.524  57.407  53.109  0.00  0.00    +0.000 OA
BRANCH  35  38
ATOM     38  C   UNL     1     -14.955  59.160  51.732  0.00  0.00    +0.000 C 
BRANCH  38  39
ATOM     39  C   UNL     1     -15.243  59.188  50.236  0.00  0.00    +0.000 C 
BRANCH  39  40
ATOM     40  C   UNL     1     -14.547  60.357  49.543  0.00  0.00    +0.000 C 
ATOM     41  C   UNL     1     -13.057  60.357  49.852  0.00  0.00    +0.000 C 
ENDBRANCH  39  40
ENDBRANCH  38  39
ENDBRANCH  35  38
ENDBRANCH  33  35
ENDBRANCH  11  33
TORSDOF 10
ENDMDL
MODEL 3
REMARK VINA RESULT:      -7.0      1.030      3.313
REMARK  Name = 353080
REMARK  13 active torsions:
REMARK  status: ('A' for Active; 'I' for Inactive)
REMARK    1  A    between atoms: C_6  and  C_10
REMARK    2  A    between atoms: C_12  and  N_16
REMARK    3  A    between atoms: C_14  and  O_19
REMARK    4  A    between atoms: N_16  and  S_21
REMARK    5  A    between atoms: N_18  and  C_23
REMARK    6  A    between atoms: S_21  and  C_27
REMARK    7  A    between atoms: C_23  and  C_29
REMARK    8  A    between atoms: C_27  and  C_31
REMARK    9  A    between atoms: C_29  and  C_33
REMARK   10  A    between atoms: C_31  and  C_34
REMARK   11  A    between atoms: C_33  and  C_35
REMARK   12  A    between atoms: C_33  and  C_36
REMARK   13  A    between atoms: C_34  and  C_37
REMARK                            x       y       z     vdW  Elec       q    Type
REMARK                         _______ _______ _______ _____ _____    ______ ____
ROOT
ATOM      1  S   UNL     1     -11.371  54.442  50.282  0.00  0.00    +0.000 S 
ATOM      2  O   UNL     1     -10.236  55.171  50.799  0.00  0.00    +0.000 OA
ATOM      3  O   UNL     1     -12.366  53.849  51.147  0.00  0.00    +0.000 OA
ATOM      4  N   UNL     1     -10.804  53.236  49.305  0.00  0.00    +0.000 N 
ATOM      5  C   UNL     1     -12.196  55.464  49.136  0.00  0.00    +0.000 A 
ATOM      6  C   UNL     1     -10.424  53.464  47.985  0.00  0.00    +0.000 C 
ATOM      7  C   UNL     1     -11.835  55.341  47.797  0.00  0.00    +0.000 A 
ATOM      8  C   UNL     1     -13.192  56.347  49.567  0.00  0.00    +0.000 A 
ATOM      9  N   UNL     1     -10.850  54.478  47.298  0.00  0.00    +0.000 N 
ATOM     10  C   UNL     1     -12.508  56.133  46.865  0.00  0.00    +0.000 A 
ATOM     11  C   UNL     1     -13.842  57.126  48.615  0.00  0.00    +0.000 A 
ATOM     12  C   UNL     1     -13.500  57.026  47.267  0.00  0.00    +0.000 A 
ATOM     13  H   UNL     1     -10.734  52.323  49.669  0.00  0.00    +0.000 HD
ATOM     14  H   UNL     1     -10.472  54.646  46.406  0.00  0.00    +0.000 HD
ENDROOT
BRANCH   6  15
ATOM     15  C   UNL     1      -9.467  52.485  47.400  0.00  0.00    +0.000 A 
ATOM     16  C   UNL     1      -8.157  52.198  48.050  0.00  0.00    +0.000 A 
ATOM     17  C   UNL     1      -9.794  51.879  46.245  0.00  0.00    +0.000 A 
ATOM     18  O   UNL     1      -7.849  52.835  49.060  0.00  0.00    +0.000 OA
ATOM     19  N   UNL     1      -7.353  51.210  47.499  0.00  0.00    +0.000 N 
ATOM     20  C   UNL     1      -8.848  50.971  45.597  0.00  0.00    +0.000 A 
ATOM     21  C   UNL     1      -7.649  50.634  46.232  0.00  0.00    +0.000 A 
ATOM     22  C   UNL     1      -9.095  50.432  44.327  0.00  0.00    +0.000 A 
ATOM     23  N   UNL     1      -6.742  49.801  45.665  0.00  0.00    +0.000 NA
ATOM     24  C   UNL     1      -8.164  49.593  43.731  0.00  0.00    +0.000 A 
ATOM     25  C   UNL     1      -7.012  49.310  44.436  0.00  0.00    +0.000 A 
BRANCH  17  26
ATOM     26  O   UNL     1     -10.987  52.057  45.564  0.00  0.00    +0.000 OA
ATOM     27  H   UNL     1     -11.342  52.917  45.456  0.00  0.00    +0.000 HD
ENDBRANCH  17  26
BRANCH  19  28
ATOM     28  C   UNL     1      -6.065  50.906  48.128  0.00  0.00    +0.000 C 
BRANCH  28  29
ATOM     29  C   UNL     1      -4.904  51.837  47.734  0.00  0.00    +0.000 C 
BRANCH  29  30
ATOM     30  C   UNL     1      -4.218  52.591  48.887  0.00  0.00    +0.000 C 
ATOM     31  C   UNL     1      -4.540  54.085  48.885  0.00  0.00    +0.000 C 
ATOM     32  C   UNL     1      -4.653  51.975  50.221  0.00  0.00    +0.000 C 
ENDBRANCH  29  30
ENDBRANCH  28  29
ENDBRANCH  19  28
ENDBRANCH   6  15
BRANCH  11  33
ATOM     33  N   UNL     1     -14.809  58.099  48.994  0.00  0.00    +0.000 N 
ATOM     34  H   UNL     1     -15.774  57.943  48.870  0.00  0.00    +0.000 HD
BRANCH  33  35
ATOM     35  S   UNL     1     -14.220  59.538  49.668  0.00  0.00    +0.000 S 
ATOM     36  O   UNL     1     -12.793  59.335  49.801  0.00  0.00    +0.000 OA
ATOM     37  O   UNL     1     -14.761  60.673  48.951  0.00  0.00    +0.000 OA
BRANCH  35  38
ATOM     38  C   UNL     1     -14.945  59.475  51.307  0.00  0.00    +0.000 C 
BRANCH  38  39
ATOM     39  C   UNL     1     -13.984  58.825  52.294  0.00  0.00    +0.000 C 
BRANCH  39  40
ATOM     40  C   UNL     1     -14.674  57.761  53.145  0.00  0.00    +0.000 C 
ATOM     41  C   UNL     1     -15.633  56.934  52.302  0.00  0.00    +0.000 C 
ENDBRANCH  39  40
ENDBRANCH  38  39
ENDBRANCH  35  38
ENDBRANCH  33  35
ENDBRANCH  11  33
TORSDOF 10
ENDMDL
MODEL 4
REMARK VINA RESULT:      -6.9      1.881      3.969
REMARK  Name = 353080
REMARK  13 active torsions:
REMARK  status: ('A' for Active; 'I' for Inactive)
REMARK    1  A    between atoms: C_6  and  C_10
REMARK    2  A    between atoms: C_12  and  N_16
REMARK    3  A    between atoms: C_14  and  O_19
REMARK    4  A    between atoms: N_16  and  S_21
REMARK    5  A    between atoms: N_18  and  C_23
REMARK    6  A    between atoms: S_21  and  C_27
REMARK    7  A    between atoms: C_23  and  C_29
REMARK    8  A    between atoms: C_27  and  C_31
REMARK    9  A    between atoms: C_29  and  C_33
REMARK   10  A    between atoms: C_31  and  C_34
REMARK   11  A    between atoms: C_33  and  C_35
REMARK   12  A    between atoms: C_33  and  C_36
REMARK   13  A    between atoms: C_34  and  C_37
REMARK                            x       y       z     vdW  Elec       q    Type
REMARK                         _______ _______ _______ _____ _____    ______ ____
ROOT
ATOM      1  S   UNL     1     -11.530  53.347  50.916  0.00  0.00    +0.000 S 
ATOM      2  O   UNL     1     -10.348  53.956  51.482  0.00  0.00    +0.000 OA
ATOM      3  O   UNL     1     -12.373  52.449  51.674  0.00  0.00    +0.000 OA
ATOM      4  N   UNL     1     -11.086  52.543  49.542  0.00  0.00    +0.000 N 
ATOM      5  C   UNL     1     -12.538  54.615  50.272  0.00  0.00    +0.000 A 
ATOM      6  C   UNL     1     -10.909  53.194  48.324  0.00  0.00    +0.000 C 
ATOM      7  C   UNL     1     -12.376  54.936  48.927  0.00  0.00    +0.000 A 
ATOM      8  C   UNL     1     -13.480  55.251  51.087  0.00  0.00    +0.000 A 
ATOM      9  N   UNL     1     -11.454  54.339  48.055  0.00  0.00    +0.000 N 
ATOM     10  C   UNL     1     -13.196  55.930  48.390  0.00  0.00    +0.000 A 
ATOM     11  C   UNL     1     -14.281  56.240  50.525  0.00  0.00    +0.000 A 
ATOM     12  C   UNL     1     -14.139  56.585  49.182  0.00  0.00    +0.000 A 
ATOM     13  H   UNL     1     -10.941  51.570  49.587  0.00  0.00    +0.000 HD
ATOM     14  H   UNL     1     -11.216  54.800  47.219  0.00  0.00    +0.000 HD
ENDROOT
BRANCH   6  15
ATOM     15  C   UNL     1     -10.026  52.511  47.339  0.00  0.00    +0.000 A 
ATOM     16  C   UNL     1      -8.730  51.902  47.749  0.00  0.00    +0.000 A 
ATOM     17  C   UNL     1     -10.407  52.479  46.049  0.00  0.00    +0.000 A 
ATOM     18  O   UNL     1      -8.368  52.026  48.922  0.00  0.00    +0.000 OA
ATOM     19  N   UNL     1      -8.000  51.206  46.797  0.00  0.00    +0.000 N 
ATOM     20  C   UNL     1      -9.532  51.888  45.037  0.00  0.00    +0.000 A 
ATOM     21  C   UNL     1      -8.349  51.247  45.419  0.00  0.00    +0.000 A 
ATOM     22  C   UNL     1      -9.830  51.962  43.670  0.00  0.00    +0.000 A 
ATOM     23  N   UNL     1      -7.507  50.691  44.514  0.00  0.00    +0.000 NA
ATOM     24  C   UNL     1      -8.963  51.412  42.735  0.00  0.00    +0.000 A 
ATOM     25  C   UNL     1      -7.824  50.792  43.205  0.00  0.00    +0.000 A 
BRANCH  17  26
ATOM     26  O   UNL     1     -11.595  52.997  45.558  0.00  0.00    +0.000 OA
ATOM     27  H   UNL     1     -12.367  52.982  46.087  0.00  0.00    +0.000 HD
ENDBRANCH  17  26
BRANCH  19  28
ATOM     28  C   UNL     1      -6.727  50.591  47.184  0.00  0.00    +0.000 C 
BRANCH  28  29
ATOM     29  C   UNL     1      -5.560  51.573  47.397  0.00  0.00    +0.000 C 
BRANCH  29  30
ATOM     30  C   UNL     1      -4.674  51.317  48.629  0.00  0.00    +0.000 C 
ATOM     31  C   UNL     1      -4.936  52.312  49.757  0.00  0.00    +0.000 C 
ATOM     32  C   UNL     1      -4.918  49.891  49.136  0.00  0.00    +0.000 C 
ENDBRANCH  29  30
ENDBRANCH  28  29
ENDBRANCH  19  28
ENDBRANCH   6  15
BRANCH  11  33
ATOM     33  N   UNL     1     -15.204  56.979  51.316  0.00  0.00    +0.000 N 
ATOM     34  H   UNL     1     -16.166  56.995  51.108  0.00  0.00    +0.000 HD
BRANCH  33  35
ATOM     35  S   UNL     1     -14.565  57.832  52.635  0.00  0.00    +0.000 S 
ATOM     36  O   UNL     1     -15.648  57.910  53.592  0.00  0.00    +0.000 OA
ATOM     37  O   UNL     1     -13.274  57.286  52.994  0.00  0.00    +0.000 OA
BRANCH  35  38
ATOM     38  C   UNL     1     -14.340  59.460  51.918  0.00  0.00    +0.000 C 
BRANCH  38  39
ATOM     39  C   UNL     1     -15.303  59.673  50.757  0.00  0.00    +0.000 C 
BRANCH  39  40
ATOM     40  C   UNL     1     -14.603  60.270  49.538  0.00  0.00    +0.000 C 
ATOM     41  C   UNL     1     -13.106  60.384  49.778  0.00  0.00    +0.000 C 
ENDBRANCH  39  40
ENDBRANCH  38  39
ENDBRANCH  35  38
ENDBRANCH  33  35
ENDBRANCH  11  33
TORSDOF 10
ENDMDL
MODEL 5
REMARK VINA RESULT:      -6.9      3.093      5.240
REMARK  Name = 353080
REMARK  13 active torsions:
REMARK  status: ('A' for Active; 'I' for Inactive)
REMARK    1  A    between atoms: C_6  and  C_10
REMARK    2  A    between atoms: C_12  and  N_16
REMARK    3  A    between atoms: C_14  and  O_19
REMARK    4  A    between atoms: N_16  and  S_21
REMARK    5  A    between atoms: N_18  and  C_23
REMARK    6  A    between atoms: S_21  and  C_27
REMARK    7  A    between atoms: C_23  and  C_29
REMARK    8  A    between atoms: C_27  and  C_31
REMARK    9  A    between atoms: C_29  and  C_33
REMARK   10  A    between atoms: C_31  and  C_34
REMARK   11  A    between atoms: C_33  and  C_35
REMARK   12  A    between atoms: C_33  and  C_36
REMARK   13  A    between atoms: C_34  and  C_37
REMARK                            x       y       z     vdW  Elec       q    Type
REMARK                         _______ _______ _______ _____ _____    ______ ____
ROOT
ATOM      1  S   UNL     1     -10.178  54.249  47.444  0.00  0.00    +0.000 S 
ATOM      2  O   UNL     1     -10.733  52.943  47.172  0.00  0.00    +0.000 OA
ATOM      3  O   UNL     1     -10.023  55.251  46.413  0.00  0.00    +0.000 OA
ATOM      4  N   UNL     1      -8.693  54.041  48.137  0.00  0.00    +0.000 N 
ATOM      5  C   UNL     1     -11.082  54.960  48.754  0.00  0.00    +0.000 A 
ATOM      6  C   UNL     1      -8.538  53.757  49.491  0.00  0.00    +0.000 C 
ATOM      7  C   UNL     1     -10.592  54.769  50.043  0.00  0.00    +0.000 A 
ATOM      8  C   UNL     1     -12.235  55.707  48.492  0.00  0.00    +0.000 A 
ATOM      9  N   UNL     1      -9.445  54.035  50.375  0.00  0.00    +0.000 N 
ATOM     10  C   UNL     1     -11.290  55.356  51.099  0.00  0.00    +0.000 A 
ATOM     11  C   UNL     1     -12.912  56.277  49.566  0.00  0.00    +0.000 A 
ATOM     12  C   UNL     1     -12.446  56.100  50.868  0.00  0.00    +0.000 A 
ATOM     13  H   UNL     1      -7.890  54.121  47.573  0.00  0.00    +0.000 HD
ATOM     14  H   UNL     1      -9.325  53.722  51.300  0.00  0.00    +0.000 HD
ENDROOT
BRANCH   6  15
ATOM     15  C   UNL     1      -7.267  53.083  49.878  0.00  0.00    +0.000 A 
ATOM     16  C   UNL     1      -6.177  53.823  50.574  0.00  0.00    +0.000 A 
ATOM     17  C   UNL     1      -7.105  51.787  49.560  0.00  0.00    +0.000 A 
ATOM     18  O   UNL     1      -6.321  55.032  50.772  0.00  0.00    +0.000 OA
ATOM     19  N   UNL     1      -5.058  53.113  50.983  0.00  0.00    +0.000 N 
ATOM     20  C   UNL     1      -5.842  51.109  49.851  0.00  0.00    +0.000 A 
ATOM     21  C   UNL     1      -4.840  51.770  50.569  0.00  0.00    +0.000 A 
ATOM     22  C   UNL     1      -5.585  49.805  49.409  0.00  0.00    +0.000 A 
ATOM     23  N   UNL     1      -3.652  51.181  50.857  0.00  0.00    +0.000 NA
ATOM     24  C   UNL     1      -4.365  49.202  49.682  0.00  0.00    +0.000 A 
ATOM     25  C   UNL     1      -3.439  49.927  50.404  0.00  0.00    +0.000 A 
BRANCH  17  26
ATOM     26  O   UNL     1      -8.054  50.998  48.930  0.00  0.00    +0.000 OA
ATOM     27  H   UNL     1      -8.598  50.426  49.435  0.00  0.00    +0.000 HD
ENDBRANCH  17  26
BRANCH  19  28
ATOM     28  C   UNL     1      -3.978  53.821  51.677  0.00  0.00    +0.000 C 
BRANCH  28  29
ATOM     29  C   UNL     1      -4.038  53.767  53.214  0.00  0.00    +0.000 C 
BRANCH  29  30
ATOM     30  C   UNL     1      -4.718  54.961  53.909  0.00  0.00    +0.000 C 
ATOM     31  C   UNL     1      -5.851  54.531  54.839  0.00  0.00    +0.000 C 
ATOM     32  C   UNL     1      -3.668  55.742  54.708  0.00  0.00    +0.000 C 
ENDBRANCH  29  30
ENDBRANCH  28  29
ENDBRANCH  19  28
ENDBRANCH   6  15
BRANCH  11  33
ATOM     33  N   UNL     1     -14.133  56.983  49.377  0.00  0.00    +0.000 N 
ATOM     34  H   UNL     1     -14.990  56.510  49.266  0.00  0.00    +0.000 HD
BRANCH  33  35
ATOM     35  S   UNL     1     -14.040  58.675  49.349  0.00  0.00    +0.000 S 
ATOM     36  O   UNL     1     -12.669  58.982  49.697  0.00  0.00    +0.000 OA
ATOM     37  O   UNL     1     -14.646  59.180  48.136  0.00  0.00    +0.000 OA
BRANCH  35  38
ATOM     38  C   UNL     1     -15.076  59.100  50.749  0.00  0.00    +0.000 C 
BRANCH  38  39
ATOM     39  C   UNL     1     -14.272  59.068  52.042  0.00  0.00    +0.000 C 
BRANCH  39  40
ATOM     40  C   UNL     1     -14.940  58.202  53.108  0.00  0.00    +0.000 C 
ATOM     41  C   UNL     1     -15.642  57.011  52.473  0.00  0.00    +0.000 C 
ENDBRANCH  39  40
ENDBRANCH  38  39
ENDBRANCH  35  38
ENDBRANCH  33  35
ENDBRANCH  11  33
TORSDOF 10
ENDMDL
MODEL 6
REMARK VINA RESULT:      -6.8      3.814      8.711
REMARK  Name = 353080
REMARK  13 active torsions:
REMARK  status: ('A' for Active; 'I' for Inactive)
REMARK    1  A    between atoms: C_6  and  C_10
REMARK    2  A    between atoms: C_12  and  N_16
REMARK    3  A    between atoms: C_14  and  O_19
REMARK    4  A    between atoms: N_16  and  S_21
REMARK    5  A    between atoms: N_18  and  C_23
REMARK    6  A    between atoms: S_21  and  C_27
REMARK    7  A    between atoms: C_23  and  C_29
REMARK    8  A    between atoms: C_27  and  C_31
REMARK    9  A    between atoms: C_29  and  C_33
REMARK   10  A    between atoms: C_31  and  C_34
REMARK   11  A    between atoms: C_33  and  C_35
REMARK   12  A    between atoms: C_33  and  C_36
REMARK   13  A    between atoms: C_34  and  C_37
REMARK                            x       y       z     vdW  Elec       q    Type
REMARK                         _______ _______ _______ _____ _____    ______ ____
ROOT
ATOM      1  S   UNL     1      -8.473  55.071  53.506  0.00  0.00    +0.000 S 
ATOM      2  O   UNL     1      -9.579  54.954  54.428  0.00  0.00    +0.000 OA
ATOM      3  O   UNL     1      -7.325  55.906  53.781  0.00  0.00    +0.000 OA
ATOM      4  N   UNL     1      -9.073  55.548  52.042  0.00  0.00    +0.000 N 
ATOM      5  C   UNL     1      -7.896  53.466  53.144  0.00  0.00    +0.000 A 
ATOM      6  C   UNL     1      -9.648  54.651  51.146  0.00  0.00    +0.000 C 
ATOM      7  C   UNL     1      -8.427  52.837  52.022  0.00  0.00    +0.000 A 
ATOM      8  C   UNL     1      -6.922  52.868  53.950  0.00  0.00    +0.000 A 
ATOM      9  N   UNL     1      -9.402  53.378  51.172  0.00  0.00    +0.000 N 
ATOM     10  C   UNL     1      -7.954  51.562  51.704  0.00  0.00    +0.000 A 
ATOM     11  C   UNL     1      -6.473  51.595  53.610  0.00  0.00    +0.000 A 
ATOM     12  C   UNL     1      -6.989  50.939  52.494  0.00  0.00    +0.000 A 
ATOM     13  H   UNL     1      -9.021  56.500  51.795  0.00  0.00    +0.000 HD
ATOM     14  H   UNL     1      -9.912  52.779  50.582  0.00  0.00    +0.000 HD
ENDROOT
BRANCH   6  15
ATOM     15  C   UNL     1     -10.598  55.231  50.157  0.00  0.00    +0.000 A 
ATOM     16  C   UNL     1     -10.323  55.176  48.693  0.00  0.00    +0.000 A 
ATOM     17  C   UNL     1     -11.707  55.840  50.611  0.00  0.00    +0.000 A 
ATOM     18  O   UNL     1      -9.255  54.689  48.313  0.00  0.00    +0.000 OA
ATOM     19  N   UNL     1     -11.291  55.657  47.824  0.00  0.00    +0.000 N 
ATOM     20  C   UNL     1     -12.625  56.492  49.677  0.00  0.00    +0.000 A 
ATOM     21  C   UNL     1     -12.418  56.383  48.298  0.00  0.00    +0.000 A 
ATOM     22  C   UNL     1     -13.712  57.255  50.122  0.00  0.00    +0.000 A 
ATOM     23  N   UNL     1     -13.241  56.975  47.398  0.00  0.00    +0.000 NA
ATOM     24  C   UNL     1     -14.548  57.881  49.208  0.00  0.00    +0.000 A 
ATOM     25  C   UNL     1     -14.272  57.711  47.866  0.00  0.00    +0.000 A 
BRANCH  17  26
ATOM     26  O   UNL     1     -12.071  55.937  51.945  0.00  0.00    +0.000 OA
ATOM     27  H   UNL     1     -11.805  56.679  52.451  0.00  0.00    +0.000 HD
ENDBRANCH  17  26
BRANCH  19  28
ATOM     28  C   UNL     1     -11.044  55.603  46.380  0.00  0.00    +0.000 C 
BRANCH  28  29
ATOM     29  C   UNL     1     -11.675  54.403  45.650  0.00  0.00    +0.000 C 
BRANCH  29  30
ATOM     30  C   UNL     1     -10.716  53.264  45.261  0.00  0.00    +0.000 C 
ATOM     31  C   UNL     1      -9.285  53.750  45.043  0.00  0.00    +0.000 C 
ATOM     32  C   UNL     1     -10.733  52.196  46.361  0.00  0.00    +0.000 C 
ENDBRANCH  29  30
ENDBRANCH  28  29
ENDBRANCH  19  28
ENDBRANCH   6  15
BRANCH  11  33
ATOM     33  N   UNL     1      -5.542  50.899  54.430  0.00  0.00    +0.000 N 
ATOM     34  H   UNL     1      -5.766  50.630  55.351  0.00  0.00    +0.000 HD
BRANCH  33  35
ATOM     35  S   UNL     1      -4.028  50.558  53.747  0.00  0.00    +0.000 S 
ATOM     36  O   UNL     1      -3.300  49.852  54.779  0.00  0.00    +0.000 OA
ATOM     37  O   UNL     1      -4.203  49.999  52.423  0.00  0.00    +0.000 OA
BRANCH  35  38
ATOM     38  C   UNL     1      -3.334  52.205  53.606  0.00  0.00    +0.000 C 
BRANCH  38  39
ATOM     39  C   UNL     1      -3.300  52.650  52.149  0.00  0.00    +0.000 C 
BRANCH  39  40
ATOM     40  C   UNL     1      -3.854  54.063  51.972  0.00  0.00    +0.000 C 
ATOM     41  C   UNL     1      -5.069  54.055  51.056  0.00  0.00    +0.000 C 
ENDBRANCH  39  40
ENDBRANCH  38  39
ENDBRANCH  35  38
ENDBRANCH  33  35
ENDBRANCH  11  33
TORSDOF 10
ENDMDL
MODEL 7
REMARK VINA RESULT:      -6.7      1.694      2.124
REMARK  Name = 353080
REMARK  13 active torsions:
REMARK  status: ('A' for Active; 'I' for Inactive)
REMARK    1  A    between atoms: C_6  and  C_10
REMARK    2  A    between atoms: C_12  and  N_16
REMARK    3  A    between atoms: C_14  and  O_19
REMARK    4  A    between atoms: N_16  and  S_21
REMARK    5  A    between atoms: N_18  and  C_23
REMARK    6  A    between atoms: S_21  and  C_27
REMARK    7  A    between atoms: C_23  and  C_29
REMARK    8  A    between atoms: C_27  and  C_31
REMARK    9  A    between atoms: C_29  and  C_33
REMARK   10  A    between atoms: C_31  and  C_34
REMARK   11  A    between atoms: C_33  and  C_35
REMARK   12  A    between atoms: C_33  and  C_36
REMARK   13  A    between atoms: C_34  and  C_37
REMARK                            x       y       z     vdW  Elec       q    Type
REMARK                         _______ _______ _______ _____ _____    ______ ____
ROOT
ATOM      1  S   UNL     1     -11.207  53.110  51.348  0.00  0.00    +0.000 S 
ATOM      2  O   UNL     1     -10.188  53.721  52.170  0.00  0.00    +0.000 OA
ATOM      3  O   UNL     1     -12.222  52.239  51.898  0.00  0.00    +0.000 OA
ATOM      4  N   UNL     1     -10.456  52.268  50.141  0.00  0.00    +0.000 N 
ATOM      5  C   UNL     1     -12.009  54.371  50.451  0.00  0.00    +0.000 A 
ATOM      6  C   UNL     1      -9.979  52.887  48.988  0.00  0.00    +0.000 C 
ATOM      7  C   UNL     1     -11.521  54.657  49.179  0.00  0.00    +0.000 A 
ATOM      8  C   UNL     1     -13.110  55.037  51.000  0.00  0.00    +0.000 A 
ATOM      9  N   UNL     1     -10.425  54.030  48.570  0.00  0.00    +0.000 N 
ATOM     10  C   UNL     1     -12.171  55.646  48.438  0.00  0.00    +0.000 A 
ATOM     11  C   UNL     1     -13.735  56.020  50.239  0.00  0.00    +0.000 A 
ATOM     12  C   UNL     1     -13.267  56.330  48.963  0.00  0.00    +0.000 A 
ATOM     13  H   UNL     1     -10.342  51.295  50.240  0.00  0.00    +0.000 HD
ATOM     14  H   UNL     1      -9.984  54.467  47.807  0.00  0.00    +0.000 HD
ENDROOT
BRANCH   6  15
ATOM     15  C   UNL     1      -8.895  52.171  48.261  0.00  0.00    +0.000 A 
ATOM     16  C   UNL     1      -9.164  51.442  46.989  0.00  0.00    +0.000 A 
ATOM     17  C   UNL     1      -7.659  52.168  48.791  0.00  0.00    +0.000 A 
ATOM     18  O   UNL     1     -10.324  51.389  46.575  0.00  0.00    +0.000 OA
ATOM     19  N   UNL     1      -8.091  50.872  46.319  0.00  0.00    +0.000 N 
ATOM     20  C   UNL     1      -6.584  51.411  48.150  0.00  0.00    +0.000 A 
ATOM     21  C   UNL     1      -6.804  50.785  46.919  0.00  0.00    +0.000 A 
ATOM     22  C   UNL     1      -5.325  51.269  48.746  0.00  0.00    +0.000 A 
ATOM     23  N   UNL     1      -5.837  50.069  46.292  0.00  0.00    +0.000 NA
ATOM     24  C   UNL     1      -4.336  50.521  48.121  0.00  0.00    +0.000 A 
ATOM     25  C   UNL     1      -4.640  49.946  46.904  0.00  0.00    +0.000 A 
BRANCH  17  26
ATOM     26  O   UNL     1      -7.292  52.823  49.956  0.00  0.00    +0.000 OA
ATOM     27  H   UNL     1      -6.827  53.635  49.910  0.00  0.00    +0.000 HD
ENDBRANCH  17  26
BRANCH  19  28
ATOM     28  C   UNL     1      -8.333  50.158  45.062  0.00  0.00    +0.000 C 
BRANCH  28  29
ATOM     29  C   UNL     1      -7.817  50.865  43.795  0.00  0.00    +0.000 C 
BRANCH  29  30
ATOM     30  C   UNL     1      -8.806  51.817  43.099  0.00  0.00    +0.000 C 
ATOM     31  C   UNL     1     -10.244  51.304  43.141  0.00  0.00    +0.000 C 
ATOM     32  C   UNL     1      -8.733  53.194  43.770  0.00  0.00    +0.000 C 
ENDBRANCH  29  30
ENDBRANCH  28  29
ENDBRANCH  19  28
ENDBRANCH   6  15
BRANCH  11  33
ATOM     33  N   UNL     1     -14.811  56.787  50.767  0.00  0.00    +0.000 N 
ATOM     34  H   UNL     1     -15.661  56.889  50.280  0.00  0.00    +0.000 HD
BRANCH  33  35
ATOM     35  S   UNL     1     -14.557  57.519  52.275  0.00  0.00    +0.000 S 
ATOM     36  O   UNL     1     -15.795  57.329  52.999  0.00  0.00    +0.000 OA
ATOM     37  O   UNL     1     -13.286  57.091  52.820  0.00  0.00    +0.000 OA
BRANCH  35  38
ATOM     38  C   UNL     1     -14.447  59.246  51.807  0.00  0.00    +0.000 C 
BRANCH  38  39
ATOM     39  C   UNL     1     -15.331  59.533  50.601  0.00  0.00    +0.000 C 
BRANCH  39  40
ATOM     40  C   UNL     1     -14.552  60.201  49.469  0.00  0.00    +0.000 C 
ATOM     41  C   UNL     1     -13.088  60.364  49.846  0.00  0.00    +0.000 C 
ENDBRANCH  39  40
ENDBRANCH  38  39
ENDBRANCH  35  38
ENDBRANCH  33  35
ENDBRANCH  11  33
TORSDOF 10
ENDMDL
MODEL 8
REMARK VINA RESULT:      -6.6      2.892      5.152
REMARK  Name = 353080
REMARK  13 active torsions:
REMARK  status: ('A' for Active; 'I' for Inactive)
REMARK    1  A    between atoms: C_6  and  C_10
REMARK    2  A    between atoms: C_12  and  N_16
REMARK    3  A    between atoms: C_14  and  O_19
REMARK    4  A    between atoms: N_16  and  S_21
REMARK    5  A    between atoms: N_18  and  C_23
REMARK    6  A    between atoms: S_21  and  C_27
REMARK    7  A    between atoms: C_23  and  C_29
REMARK    8  A    between atoms: C_27  and  C_31
REMARK    9  A    between atoms: C_29  and  C_33
REMARK   10  A    between atoms: C_31  and  C_34
REMARK   11  A    between atoms: C_33  and  C_35
REMARK   12  A    between atoms: C_33  and  C_36
REMARK   13  A    between atoms: C_34  and  C_37
REMARK                            x       y       z     vdW  Elec       q    Type
REMARK                         _______ _______ _______ _____ _____    ______ ____
ROOT
ATOM      1  S   UNL     1     -11.080  54.562  47.657  0.00  0.00    +0.000 S 
ATOM      2  O   UNL     1     -11.566  53.281  47.200  0.00  0.00    +0.000 OA
ATOM      3  O   UNL     1     -11.238  55.770  46.879  0.00  0.00    +0.000 OA
ATOM      4  N   UNL     1      -9.467  54.412  47.986  0.00  0.00    +0.000 N 
ATOM      5  C   UNL     1     -11.736  54.856  49.245  0.00  0.00    +0.000 A 
ATOM      6  C   UNL     1      -8.999  53.873  49.181  0.00  0.00    +0.000 C 
ATOM      7  C   UNL     1     -10.964  54.465  50.336  0.00  0.00    +0.000 A 
ATOM      8  C   UNL     1     -12.979  55.482  49.390  0.00  0.00    +0.000 A 
ATOM      9  N   UNL     1      -9.714  53.836  50.262  0.00  0.00    +0.000 N 
ATOM     10  C   UNL     1     -11.465  54.720  51.614  0.00  0.00    +0.000 A 
ATOM     11  C   UNL     1     -13.453  55.719  50.677  0.00  0.00    +0.000 A 
ATOM     12  C   UNL     1     -12.704  55.336  51.788  0.00  0.00    +0.000 A 
ATOM     13  H   UNL     1      -8.815  54.715  47.313  0.00  0.00    +0.000 HD
ATOM     14  H   UNL     1      -9.371  53.355  51.048  0.00  0.00    +0.000 HD
ENDROOT
BRANCH   6  15
ATOM     15  C   UNL     1      -7.622  53.308  49.150  0.00  0.00    +0.000 A 
ATOM     16  C   UNL     1      -6.524  53.891  49.972  0.00  0.00    +0.000 A 
ATOM     17  C   UNL     1      -7.373  52.267  48.334  0.00  0.00    +0.000 A 
ATOM     18  O   UNL     1      -6.763  54.899  50.642  0.00  0.00    +0.000 OA
ATOM     19  N   UNL     1      -5.289  53.260  49.961  0.00  0.00    +0.000 N 
ATOM     20  C   UNL     1      -6.017  51.733  48.215  0.00  0.00    +0.000 A 
ATOM     21  C   UNL     1      -4.995  52.221  49.035  0.00  0.00    +0.000 A 
ATOM     22  C   UNL     1      -5.692  50.746  47.275  0.00  0.00    +0.000 A 
ATOM     23  N   UNL     1      -3.723  51.758  48.954  0.00  0.00    +0.000 NA
ATOM     24  C   UNL     1      -4.389  50.281  47.172  0.00  0.00    +0.000 A 
ATOM     25  C   UNL     1      -3.447  50.814  48.028  0.00  0.00    +0.000 A 
BRANCH  17  26
ATOM     26  O   UNL     1      -8.317  51.637  47.540  0.00  0.00    +0.000 OA
ATOM     27  H   UNL     1      -9.222  51.659  47.779  0.00  0.00    +0.000 HD
ENDBRANCH  17  26
BRANCH  19  28
ATOM     28  C   UNL     1      -4.199  53.812  50.771  0.00  0.00    +0.000 C 
BRANCH  28  29
ATOM     29  C   UNL     1      -4.159  53.334  52.234  0.00  0.00    +0.000 C 
BRANCH  29  30
ATOM     30  C   UNL     1      -4.675  54.330  53.288  0.00  0.00    +0.000 C 
ATOM     31  C   UNL     1      -5.581  53.669  54.325  0.00  0.00    +0.000 C 
ATOM     32  C   UNL     1      -3.479  54.981  53.993  0.00  0.00    +0.000 C 
ENDBRANCH  29  30
ENDBRANCH  28  29
ENDBRANCH  19  28
ENDBRANCH   6  15
BRANCH  11  33
ATOM     33  N   UNL     1     -14.743  56.281  50.894  0.00  0.00    +0.000 N 
ATOM     34  H   UNL     1     -15.501  56.079  50.298  0.00  0.00    +0.000 HD
BRANCH  33  35
ATOM     35  S   UNL     1     -14.910  57.313  52.228  0.00  0.00    +0.000 S 
ATOM     36  O   UNL     1     -16.062  56.815  52.948  0.00  0.00    +0.000 OA
ATOM     37  O   UNL     1     -13.628  57.488  52.877  0.00  0.00    +0.000 OA
BRANCH  35  38
ATOM     38  C   UNL     1     -15.378  58.845  51.423  0.00  0.00    +0.000 C 
BRANCH  38  39
ATOM     39  C   UNL     1     -14.144  59.606  50.956  0.00  0.00    +0.000 C 
BRANCH  39  40
ATOM     40  C   UNL     1     -14.258  60.037  49.495  0.00  0.00    +0.000 C 
ATOM     41  C   UNL     1     -13.965  58.870  48.565  0.00  0.00    +0.000 C 
ENDBRANCH  39  40
ENDBRANCH  38  39
ENDBRANCH  35  38
ENDBRANCH  33  35
ENDBRANCH  11  33
TORSDOF 10
ENDMDL
MODEL 9
REMARK VINA RESULT:      -6.4      2.714      4.106
REMARK  Name = 353080
REMARK  13 active torsions:
REMARK  status: ('A' for Active; 'I' for Inactive)
REMARK    1  A    between atoms: C_6  and  C_10
REMARK    2  A    between atoms: C_12  and  N_16
REMARK    3  A    between atoms: C_14  and  O_19
REMARK    4  A    between atoms: N_16  and  S_21
REMARK    5  A    between atoms: N_18  and  C_23
REMARK    6  A    between atoms: S_21  and  C_27
REMARK    7  A    between atoms: C_23  and  C_29
REMARK    8  A    between atoms: C_27  and  C_31
REMARK    9  A    between atoms: C_29  and  C_33
REMARK   10  A    between atoms: C_31  and  C_34
REMARK   11  A    between atoms: C_33  and  C_35
REMARK   12  A    between atoms: C_33  and  C_36
REMARK   13  A    between atoms: C_34  and  C_37
REMARK                            x       y       z     vdW  Elec       q    Type
REMARK                         _______ _______ _______ _____ _____    ______ ____
ROOT
ATOM      1  S   UNL     1     -10.206  54.508  47.865  0.00  0.00    +0.000 S 
ATOM      2  O   UNL     1     -10.774  53.203  47.620  0.00  0.00    +0.000 OA
ATOM      3  O   UNL     1      -9.945  55.449  46.799  0.00  0.00    +0.000 OA
ATOM      4  N   UNL     1      -8.785  54.304  48.684  0.00  0.00    +0.000 N 
ATOM      5  C   UNL     1     -11.188  55.311  49.061  0.00  0.00    +0.000 A 
ATOM      6  C   UNL     1      -8.743  54.090  50.059  0.00  0.00    +0.000 C 
ATOM      7  C   UNL     1     -10.804  55.179  50.393  0.00  0.00    +0.000 A 
ATOM      8  C   UNL     1     -12.297  56.069  48.671  0.00  0.00    +0.000 A 
ATOM      9  N   UNL     1      -9.707  54.437  50.852  0.00  0.00    +0.000 N 
ATOM     10  C   UNL     1     -11.566  55.839  51.360  0.00  0.00    +0.000 A 
ATOM     11  C   UNL     1     -13.038  56.713  49.658  0.00  0.00    +0.000 A 
ATOM     12  C   UNL     1     -12.680  56.596  50.999  0.00  0.00    +0.000 A 
ATOM     13  H   UNL     1      -7.939  54.334  48.181  0.00  0.00    +0.000 HD
ATOM     14  H   UNL     1      -9.668  54.173  51.799  0.00  0.00    +0.000 HD
ENDROOT
BRANCH   6  15
ATOM     15  C   UNL     1      -7.525  53.409  50.579  0.00  0.00    +0.000 A 
ATOM     16  C   UNL     1      -7.321  51.944  50.403  0.00  0.00    +0.000 A 
ATOM     17  C   UNL     1      -6.614  54.141  51.245  0.00  0.00    +0.000 A 
ATOM     18  O   UNL     1      -8.216  51.286  49.867  0.00  0.00    +0.000 OA
ATOM     19  N   UNL     1      -6.125  51.390  50.835  0.00  0.00    +0.000 N 
ATOM     20  C   UNL     1      -5.444  53.496  51.840  0.00  0.00    +0.000 A 
ATOM     21  C   UNL     1      -5.203  52.137  51.619  0.00  0.00    +0.000 A 
ATOM     22  C   UNL     1      -4.550  54.200  52.658  0.00  0.00    +0.000 A 
ATOM     23  N   UNL     1      -4.133  51.498  52.156  0.00  0.00    +0.000 NA
ATOM     24  C   UNL     1      -3.464  53.550  53.227  0.00  0.00    +0.000 A 
ATOM     25  C   UNL     1      -3.300  52.209  52.947  0.00  0.00    +0.000 A 
BRANCH  17  26
ATOM     26  O   UNL     1      -6.692  55.509  51.453  0.00  0.00    +0.000 OA
ATOM     27  H   UNL     1      -6.177  56.092  50.932  0.00  0.00    +0.000 HD
ENDBRANCH  17  26
BRANCH  19  28
ATOM     28  C   UNL     1      -5.901  49.951  50.663  0.00  0.00    +0.000 C 
BRANCH  28  29
ATOM     29  C   UNL     1      -5.265  49.541  49.322  0.00  0.00    +0.000 C 
BRANCH  29  30
ATOM     30  C   UNL     1      -4.879  50.691  48.374  0.00  0.00    +0.000 C 
ATOM     31  C   UNL     1      -3.371  50.790  48.154  0.00  0.00    +0.000 C 
ATOM     32  C   UNL     1      -5.581  50.487  47.026  0.00  0.00    +0.000 C 
ENDBRANCH  29  30
ENDBRANCH  28  29
ENDBRANCH  19  28
ENDBRANCH   6  15
BRANCH  11  33
ATOM     33  N   UNL     1     -14.221  57.436  49.336  0.00  0.00    +0.000 N 
ATOM     34  H   UNL     1     -15.046  56.976  49.055  0.00  0.00    +0.000 HD
BRANCH  33  35
ATOM     35  S   UNL     1     -14.141  59.124  49.459  0.00  0.00    +0.000 S 
ATOM     36  O   UNL     1     -12.806  59.403  49.943  0.00  0.00    +0.000 OA
ATOM     37  O   UNL     1     -14.649  59.729  48.247  0.00  0.00    +0.000 OA
BRANCH  35  38
ATOM     38  C   UNL     1     -15.292  59.428  50.799  0.00  0.00    +0.000 C 
BRANCH  38  39
ATOM     39  C   UNL     1     -14.586  59.334  52.146  0.00  0.00    +0.000 C 
BRANCH  39  40
ATOM     40  C   UNL     1     -15.351  58.451  53.130  0.00  0.00    +0.000 C 
ATOM     41  C   UNL     1     -15.506  57.041  52.581  0.00  0.00    +0.000 C 
ENDBRANCH  39  40
ENDBRANCH  38  39
ENDBRANCH  35  38
ENDBRANCH  33  35
ENDBRANCH  11  33
TORSDOF 10
ENDMDL
