MODEL 1
REMARK VINA RESULT:      -8.3      0.000      0.000
REMARK  Name = 302306
REMARK  7 active torsions:
REMARK  status: ('A' for Active; 'I' for Inactive)
REMARK    1  A    between atoms: C_6  and  C_10
REMARK    2  A    between atoms: C_14  and  O_18
REMARK    3  A    between atoms: N_17  and  C_21
REMARK    4  A    between atoms: C_21  and  C_24
REMARK    5  A    between atoms: C_24  and  C_27
REMARK    6  A    between atoms: C_27  and  C_28
REMARK    7  A    between atoms: C_27  and  C_29
REMARK                            x       y       z     vdW  Elec       q    Type
REMARK                         _______ _______ _______ _____ _____    ______ ____
ROOT
ATOM      1  C   UNL     1      -9.986  54.370  52.452  0.00  0.00    +0.000 A 
ATOM      2  C   UNL     1      -8.615  54.970  52.377  0.00  0.00    +0.000 A 
ATOM      3  C   UNL     1     -10.208  53.294  53.226  0.00  0.00    +0.000 A 
ATOM      4  O   UNL     1      -8.463  56.022  51.751  0.00  0.00    +0.000 OA
ATOM      5  N   UNL     1      -7.581  54.321  53.024  0.00  0.00    +0.000 N 
ATOM      6  C   UNL     1      -9.093  52.643  53.914  0.00  0.00    +0.000 A 
ATOM      7  C   UNL     1      -7.795  53.141  53.781  0.00  0.00    +0.000 A 
ATOM      8  C   UNL     1      -9.278  51.485  54.679  0.00  0.00    +0.000 A 
ATOM      9  N   UNL     1      -6.722  52.540  54.354  0.00  0.00    +0.000 NA
ATOM     10  C   UNL     1      -8.183  50.855  55.263  0.00  0.00    +0.000 A 
ATOM     11  C   UNL     1      -6.935  51.416  55.071  0.00  0.00    +0.000 A 
ENDROOT
BRANCH   1  17
ATOM     12  S   UNL     1     -12.144  55.637  49.431  0.00  0.00    +0.000 S 
ATOM     13  O   UNL     1     -12.957  54.585  48.848  0.00  0.00    +0.000 OA
ATOM     14  O   UNL     1     -11.461  56.591  48.581  0.00  0.00    +0.000 OA
ATOM     15  N   UNL     1     -11.040  54.932  50.382  0.00  0.00    +0.000 N 
ATOM     16  C   UNL     1     -13.220  56.579  50.451  0.00  0.00    +0.000 A 
ATOM     17  C   UNL     1     -11.118  55.005  51.676  0.00  0.00    +0.000 C 
ATOM     18  C   UNL     1     -13.068  56.472  51.824  0.00  0.00    +0.000 A 
ATOM     19  C   UNL     1     -14.178  57.415  49.873  0.00  0.00    +0.000 A 
ATOM     20  N   UNL     1     -12.119  55.625  52.388  0.00  0.00    +0.000 N 
ATOM     21  C   UNL     1     -13.949  57.181  52.644  0.00  0.00    +0.000 A 
ATOM     22  C   UNL     1     -15.028  58.140  50.704  0.00  0.00    +0.000 A 
ATOM     23  C   UNL     1     -14.918  58.018  52.089  0.00  0.00    +0.000 A 
ATOM     24  H   UNL     1     -10.294  54.438  49.970  0.00  0.00    +0.000 HD
ATOM     25  H   UNL     1     -12.167  55.458  53.357  0.00  0.00    +0.000 HD
ENDBRANCH   1  17
BRANCH   3  26
ATOM     26  O   UNL     1     -11.444  52.701  53.422  0.00  0.00    +0.000 OA
ATOM     27  H   UNL     1     -12.217  53.229  53.454  0.00  0.00    +0.000 HD
ENDBRANCH   3  26
BRANCH   5  28
ATOM     28  C   UNL     1      -6.212  54.839  52.909  0.00  0.00    +0.000 C 
BRANCH  28  29
ATOM     29  C   UNL     1      -5.496  54.288  51.667  0.00  0.00    +0.000 C 
BRANCH  29  30
ATOM     30  C   UNL     1      -4.004  53.959  51.877  0.00  0.00    +0.000 C 
ATOM     31  C   UNL     1      -3.472  54.440  53.228  0.00  0.00    +0.000 C 
ATOM     32  C   UNL     1      -3.797  52.444  51.760  0.00  0.00    +0.000 C 
ENDBRANCH  29  30
ENDBRANCH  28  29
ENDBRANCH   5  28
TORSDOF 5
ENDMDL
MODEL 2
REMARK VINA RESULT:      -8.1      4.261      5.087
REMARK  Name = 302306
REMARK  7 active torsions:
REMARK  status: ('A' for Active; 'I' for Inactive)
REMARK    1  A    between atoms: C_6  and  C_10
REMARK    2  A    between atoms: C_14  and  O_18
REMARK    3  A    between atoms: N_17  and  C_21
REMARK    4  A    between atoms: C_21  and  C_24
REMARK    5  A    between atoms: C_24  and  C_27
REMARK    6  A    between atoms: C_27  and  C_28
REMARK    7  A    between atoms: C_27  and  C_29
REMARK                            x       y       z     vdW  Elec       q    Type
REMARK                         _______ _______ _______ _____ _____    ______ ____
ROOT
ATOM      1  C   UNL     1     -12.420  54.317  49.801  0.00  0.00    +0.000 A 
ATOM      2  C   UNL     1     -11.932  54.203  48.388  0.00  0.00    +0.000 A 
ATOM      3  C   UNL     1     -12.108  53.367  50.699  0.00  0.00    +0.000 A 
ATOM      4  O   UNL     1     -12.136  55.142  47.615  0.00  0.00    +0.000 OA
ATOM      5  N   UNL     1     -11.266  53.051  48.018  0.00  0.00    +0.000 N 
ATOM      6  C   UNL     1     -11.382  52.169  50.276  0.00  0.00    +0.000 A 
ATOM      7  C   UNL     1     -10.999  52.010  48.943  0.00  0.00    +0.000 A 
ATOM      8  C   UNL     1     -11.094  51.131  51.172  0.00  0.00    +0.000 A 
ATOM      9  N   UNL     1     -10.374  50.893  48.493  0.00  0.00    +0.000 NA
ATOM     10  C   UNL     1     -10.461  49.978  50.718  0.00  0.00    +0.000 A 
ATOM     11  C   UNL     1     -10.126  49.906  49.379  0.00  0.00    +0.000 A 
ENDROOT
BRANCH   1  17
ATOM     12  S   UNL     1     -15.369  56.476  51.224  0.00  0.00    +0.000 S 
ATOM     13  O   UNL     1     -15.319  56.604  52.668  0.00  0.00    +0.000 OA
ATOM     14  O   UNL     1     -16.635  56.256  50.553  0.00  0.00    +0.000 OA
ATOM     15  N   UNL     1     -14.364  55.279  50.803  0.00  0.00    +0.000 N 
ATOM     16  C   UNL     1     -14.730  57.978  50.577  0.00  0.00    +0.000 A 
ATOM     17  C   UNL     1     -13.235  55.523  50.210  0.00  0.00    +0.000 C 
ATOM     18  C   UNL     1     -13.483  57.943  49.973  0.00  0.00    +0.000 A 
ATOM     19  C   UNL     1     -15.481  59.153  50.662  0.00  0.00    +0.000 A 
ATOM     20  N   UNL     1     -12.738  56.770  49.907  0.00  0.00    +0.000 N 
ATOM     21  C   UNL     1     -12.945  59.141  49.497  0.00  0.00    +0.000 A 
ATOM     22  C   UNL     1     -14.945  60.333  50.154  0.00  0.00    +0.000 A 
ATOM     23  C   UNL     1     -13.675  60.328  49.577  0.00  0.00    +0.000 A 
ATOM     24  H   UNL     1     -14.614  54.347  51.000  0.00  0.00    +0.000 HD
ATOM     25  H   UNL     1     -11.797  56.835  49.625  0.00  0.00    +0.000 HD
ENDBRANCH   1  17
BRANCH   3  26
ATOM     26  O   UNL     1     -12.445  53.405  52.041  0.00  0.00    +0.000 OA
ATOM     27  H   UNL     1     -13.015  52.754  52.399  0.00  0.00    +0.000 HD
ENDBRANCH   3  26
BRANCH   5  28
ATOM     28  C   UNL     1     -10.841  52.873  46.623  0.00  0.00    +0.000 C 
BRANCH  28  29
ATOM     29  C   UNL     1      -9.344  53.161  46.442  0.00  0.00    +0.000 C 
BRANCH  29  30
ATOM     30  C   UNL     1      -8.995  54.648  46.232  0.00  0.00    +0.000 C 
ATOM     31  C   UNL     1      -8.558  55.346  47.521  0.00  0.00    +0.000 C 
ATOM     32  C   UNL     1      -7.877  54.764  45.188  0.00  0.00    +0.000 C 
ENDBRANCH  29  30
ENDBRANCH  28  29
ENDBRANCH   5  28
TORSDOF 5
ENDMDL
MODEL 3
REMARK VINA RESULT:      -8.1      3.317      7.446
REMARK  Name = 302306
REMARK  7 active torsions:
REMARK  status: ('A' for Active; 'I' for Inactive)
REMARK    1  A    between atoms: C_6  and  C_10
REMARK    2  A    between atoms: C_14  and  O_18
REMARK    3  A    between atoms: N_17  and  C_21
REMARK    4  A    between atoms: C_21  and  C_24
REMARK    5  A    between atoms: C_24  and  C_27
REMARK    6  A    between atoms: C_27  and  C_28
REMARK    7  A    between atoms: C_27  and  C_29
REMARK                            x       y       z     vdW  Elec       q    Type
REMARK                         _______ _______ _______ _____ _____    ______ ____
ROOT
ATOM      1  C   UNL     1     -10.397  55.118  50.736  0.00  0.00    +0.000 A 
ATOM      2  C   UNL     1     -10.027  55.021  49.288  0.00  0.00    +0.000 A 
ATOM      3  C   UNL     1     -11.619  55.550  51.092  0.00  0.00    +0.000 A 
ATOM      4  O   UNL     1      -8.943  54.516  48.986  0.00  0.00    +0.000 OA
ATOM      5  N   UNL     1     -10.925  55.496  48.351  0.00  0.00    +0.000 N 
ATOM      6  C   UNL     1     -12.554  56.026  50.071  0.00  0.00    +0.000 A 
ATOM      7  C   UNL     1     -12.188  56.023  48.723  0.00  0.00    +0.000 A 
ATOM      8  C   UNL     1     -13.811  56.539  50.410  0.00  0.00    +0.000 A 
ATOM      9  N   UNL     1     -12.997  56.505  47.748  0.00  0.00    +0.000 NA
ATOM     10  C   UNL     1     -14.646  57.044  49.419  0.00  0.00    +0.000 A 
ATOM     11  C   UNL     1     -14.196  57.008  48.112  0.00  0.00    +0.000 A 
ENDROOT
BRANCH   1  17
ATOM     12  S   UNL     1      -7.103  54.982  52.863  0.00  0.00    +0.000 S 
ATOM     13  O   UNL     1      -7.075  55.987  53.910  0.00  0.00    +0.000 OA
ATOM     14  O   UNL     1      -5.913  54.702  52.085  0.00  0.00    +0.000 OA
ATOM     15  N   UNL     1      -8.291  55.377  51.837  0.00  0.00    +0.000 N 
ATOM     16  C   UNL     1      -7.540  53.472  53.647  0.00  0.00    +0.000 A 
ATOM     17  C   UNL     1      -9.395  54.696  51.788  0.00  0.00    +0.000 C 
ATOM     18  C   UNL     1      -8.802  52.956  53.400  0.00  0.00    +0.000 A 
ATOM     19  C   UNL     1      -6.620  52.821  54.473  0.00  0.00    +0.000 A 
ATOM     20  N   UNL     1      -9.714  53.622  52.586  0.00  0.00    +0.000 N 
ATOM     21  C   UNL     1      -9.175  51.780  54.054  0.00  0.00    +0.000 A 
ATOM     22  C   UNL     1      -6.996  51.633  55.093  0.00  0.00    +0.000 A 
ATOM     23  C   UNL     1      -8.275  51.116  54.889  0.00  0.00    +0.000 A 
ATOM     24  H   UNL     1      -8.174  56.150  51.238  0.00  0.00    +0.000 HD
ATOM     25  H   UNL     1     -10.646  53.304  52.581  0.00  0.00    +0.000 HD
ENDBRANCH   1  17
BRANCH   3  26
ATOM     26  O   UNL     1     -12.089  55.614  52.393  0.00  0.00    +0.000 OA
ATOM     27  H   UNL     1     -12.711  54.983  52.697  0.00  0.00    +0.000 HD
ENDBRANCH   3  26
BRANCH   5  28
ATOM     28  C   UNL     1     -10.564  55.486  46.927  0.00  0.00    +0.000 C 
BRANCH  28  29
ATOM     29  C   UNL     1     -11.070  54.222  46.219  0.00  0.00    +0.000 C 
BRANCH  29  30
ATOM     30  C   UNL     1      -9.973  53.384  45.533  0.00  0.00    +0.000 C 
ATOM     31  C   UNL     1     -10.383  52.883  44.148  0.00  0.00    +0.000 C 
ATOM     32  C   UNL     1      -8.695  54.224  45.411  0.00  0.00    +0.000 C 
ENDBRANCH  29  30
ENDBRANCH  28  29
ENDBRANCH   5  28
TORSDOF 5
ENDMDL
MODEL 4
REMARK VINA RESULT:      -8.0      2.557      8.017
REMARK  Name = 302306
REMARK  7 active torsions:
REMARK  status: ('A' for Active; 'I' for Inactive)
REMARK    1  A    between atoms: C_6  and  C_10
REMARK    2  A    between atoms: C_14  and  O_18
REMARK    3  A    between atoms: N_17  and  C_21
REMARK    4  A    between atoms: C_21  and  C_24
REMARK    5  A    between atoms: C_24  and  C_27
REMARK    6  A    between atoms: C_27  and  C_28
REMARK    7  A    between atoms: C_27  and  C_29
REMARK                            x       y       z     vdW  Elec       q    Type
REMARK                         _______ _______ _______ _____ _____    ______ ____
ROOT
ATOM      1  C   UNL     1      -9.969  54.971  50.928  0.00  0.00    +0.000 A 
ATOM      2  C   UNL     1     -11.349  55.395  51.328  0.00  0.00    +0.000 A 
ATOM      3  C   UNL     1      -9.602  55.007  49.636  0.00  0.00    +0.000 A 
ATOM      4  O   UNL     1     -11.623  55.461  52.529  0.00  0.00    +0.000 OA
ATOM      5  N   UNL     1     -12.253  55.704  50.330  0.00  0.00    +0.000 N 
ATOM      6  C   UNL     1     -10.580  55.359  48.606  0.00  0.00    +0.000 A 
ATOM      7  C   UNL     1     -11.894  55.671  48.958  0.00  0.00    +0.000 A 
ATOM      8  C   UNL     1     -10.249  55.347  47.245  0.00  0.00    +0.000 A 
ATOM      9  N   UNL     1     -12.849  55.949  48.036  0.00  0.00    +0.000 NA
ATOM     10  C   UNL     1     -11.223  55.622  46.290  0.00  0.00    +0.000 A 
ATOM     11  C   UNL     1     -12.500  55.913  46.733  0.00  0.00    +0.000 A 
ENDROOT
BRANCH   1  17
ATOM     12  S   UNL     1      -6.688  54.757  53.068  0.00  0.00    +0.000 S 
ATOM     13  O   UNL     1      -6.623  55.785  54.090  0.00  0.00    +0.000 OA
ATOM     14  O   UNL     1      -5.509  54.410  52.301  0.00  0.00    +0.000 OA
ATOM     15  N   UNL     1      -7.857  55.174  52.029  0.00  0.00    +0.000 N 
ATOM     16  C   UNL     1      -7.186  53.285  53.887  0.00  0.00    +0.000 A 
ATOM     17  C   UNL     1      -8.987  54.535  51.994  0.00  0.00    +0.000 C 
ATOM     18  C   UNL     1      -8.467  52.814  53.649  0.00  0.00    +0.000 A 
ATOM     19  C   UNL     1      -6.294  52.618  54.731  0.00  0.00    +0.000 A 
ATOM     20  N   UNL     1      -9.351  53.494  52.816  0.00  0.00    +0.000 N 
ATOM     21  C   UNL     1      -8.888  51.669  54.330  0.00  0.00    +0.000 A 
ATOM     22  C   UNL     1      -6.719  51.461  55.379  0.00  0.00    +0.000 A 
ATOM     23  C   UNL     1      -8.017  50.991  55.183  0.00  0.00    +0.000 A 
ATOM     24  H   UNL     1      -7.708  55.926  51.412  0.00  0.00    +0.000 HD
ATOM     25  H   UNL     1     -10.294  53.213  52.816  0.00  0.00    +0.000 HD
ENDBRANCH   1  17
BRANCH   3  26
ATOM     26  O   UNL     1      -8.336  54.704  49.163  0.00  0.00    +0.000 OA
ATOM     27  H   UNL     1      -8.143  54.792  48.251  0.00  0.00    +0.000 HD
ENDBRANCH   3  26
BRANCH   5  28
ATOM     28  C   UNL     1     -13.636  56.050  50.683  0.00  0.00    +0.000 C 
BRANCH  28  29
ATOM     29  C   UNL     1     -13.776  57.533  51.051  0.00  0.00    +0.000 C 
BRANCH  29  30
ATOM     30  C   UNL     1     -14.464  57.799  52.406  0.00  0.00    +0.000 C 
ATOM     31  C   UNL     1     -14.940  59.244  52.559  0.00  0.00    +0.000 C 
ATOM     32  C   UNL     1     -15.660  56.851  52.562  0.00  0.00    +0.000 C 
ENDBRANCH  29  30
ENDBRANCH  28  29
ENDBRANCH   5  28
TORSDOF 5
ENDMDL
MODEL 5
REMARK VINA RESULT:      -7.8      3.362      5.178
REMARK  Name = 302306
REMARK  7 active torsions:
REMARK  status: ('A' for Active; 'I' for Inactive)
REMARK    1  A    between atoms: C_6  and  C_10
REMARK    2  A    between atoms: C_14  and  O_18
REMARK    3  A    between atoms: N_17  and  C_21
REMARK    4  A    between atoms: C_21  and  C_24
REMARK    5  A    between atoms: C_24  and  C_27
REMARK    6  A    between atoms: C_27  and  C_28
REMARK    7  A    between atoms: C_27  and  C_29
REMARK                            x       y       z     vdW  Elec       q    Type
REMARK                         _______ _______ _______ _____ _____    ______ ____
ROOT
ATOM      1  C   UNL     1     -11.569  55.782  48.825  0.00  0.00    +0.000 A 
ATOM      2  C   UNL     1     -10.505  55.180  49.691  0.00  0.00    +0.000 A 
ATOM      3  C   UNL     1     -11.679  55.411  47.537  0.00  0.00    +0.000 A 
ATOM      4  O   UNL     1     -10.497  55.451  50.893  0.00  0.00    +0.000 OA
ATOM      5  N   UNL     1      -9.584  54.335  49.101  0.00  0.00    +0.000 N 
ATOM      6  C   UNL     1     -10.697  54.498  46.951  0.00  0.00    +0.000 A 
ATOM      7  C   UNL     1      -9.649  53.998  47.725  0.00  0.00    +0.000 A 
ATOM      8  C   UNL     1     -10.746  54.138  45.599  0.00  0.00    +0.000 A 
ATOM      9  N   UNL     1      -8.684  53.194  47.213  0.00  0.00    +0.000 NA
ATOM     10  C   UNL     1      -9.757  53.321  45.061  0.00  0.00    +0.000 A 
ATOM     11  C   UNL     1      -8.753  52.880  45.902  0.00  0.00    +0.000 A 
ENDROOT
BRANCH   1  17
ATOM     12  S   UNL     1     -13.520  59.133  49.421  0.00  0.00    +0.000 S 
ATOM     13  O   UNL     1     -14.646  59.288  48.519  0.00  0.00    +0.000 OA
ATOM     14  O   UNL     1     -12.666  60.263  49.727  0.00  0.00    +0.000 OA
ATOM     15  N   UNL     1     -12.588  57.944  48.839  0.00  0.00    +0.000 N 
ATOM     16  C   UNL     1     -14.190  58.600  50.954  0.00  0.00    +0.000 A 
ATOM     17  C   UNL     1     -12.533  56.784  49.420  0.00  0.00    +0.000 C 
ATOM     18  C   UNL     1     -13.959  57.289  51.340  0.00  0.00    +0.000 A 
ATOM     19  C   UNL     1     -14.913  59.492  51.750  0.00  0.00    +0.000 A 
ATOM     20  N   UNL     1     -13.249  56.406  50.532  0.00  0.00    +0.000 N 
ATOM     21  C   UNL     1     -14.527  56.842  52.535  0.00  0.00    +0.000 A 
ATOM     22  C   UNL     1     -15.445  59.040  52.954  0.00  0.00    +0.000 A 
ATOM     23  C   UNL     1     -15.258  57.714  53.343  0.00  0.00    +0.000 A 
ATOM     24  H   UNL     1     -12.053  58.103  48.027  0.00  0.00    +0.000 HD
ATOM     25  H   UNL     1     -13.261  55.451  50.771  0.00  0.00    +0.000 HD
ENDBRANCH   1  17
BRANCH   3  26
ATOM     26  O   UNL     1     -12.664  55.851  46.668  0.00  0.00    +0.000 OA
ATOM     27  H   UNL     1     -13.395  56.336  46.995  0.00  0.00    +0.000 HD
ENDBRANCH   3  26
BRANCH   5  28
ATOM     28  C   UNL     1      -8.483  53.787  49.904  0.00  0.00    +0.000 C 
BRANCH  28  29
ATOM     29  C   UNL     1      -7.245  54.693  49.869  0.00  0.00    +0.000 C 
BRANCH  29  30
ATOM     30  C   UNL     1      -6.897  55.361  51.214  0.00  0.00    +0.000 C 
ATOM     31  C   UNL     1      -7.402  56.802  51.312  0.00  0.00    +0.000 C 
ATOM     32  C   UNL     1      -7.495  54.536  52.360  0.00  0.00    +0.000 C 
ENDBRANCH  29  30
ENDBRANCH  28  29
ENDBRANCH   5  28
TORSDOF 5
ENDMDL
MODEL 6
REMARK VINA RESULT:      -7.8      3.445      7.503
REMARK  Name = 302306
REMARK  7 active torsions:
REMARK  status: ('A' for Active; 'I' for Inactive)
REMARK    1  A    between atoms: C_6  and  C_10
REMARK    2  A    between atoms: C_14  and  O_18
REMARK    3  A    between atoms: N_17  and  C_21
REMARK    4  A    between atoms: C_21  and  C_24
REMARK    5  A    between atoms: C_24  and  C_27
REMARK    6  A    between atoms: C_27  and  C_28
REMARK    7  A    between atoms: C_27  and  C_29
REMARK                            x       y       z     vdW  Elec       q    Type
REMARK                         _______ _______ _______ _____ _____    ______ ____
ROOT
ATOM      1  C   UNL     1     -10.548  54.653  50.420  0.00  0.00    +0.000 A 
ATOM      2  C   UNL     1     -10.175  54.713  48.970  0.00  0.00    +0.000 A 
ATOM      3  C   UNL     1     -11.749  55.100  50.826  0.00  0.00    +0.000 A 
ATOM      4  O   UNL     1      -9.117  54.194  48.610  0.00  0.00    +0.000 OA
ATOM      5  N   UNL     1     -11.044  55.341  48.098  0.00  0.00    +0.000 N 
ATOM      6  C   UNL     1     -12.653  55.741  49.870  0.00  0.00    +0.000 A 
ATOM      7  C   UNL     1     -12.281  55.883  48.532  0.00  0.00    +0.000 A 
ATOM      8  C   UNL     1     -13.885  56.273  50.270  0.00  0.00    +0.000 A 
ATOM      9  N   UNL     1     -13.060  56.518  47.622  0.00  0.00    +0.000 NA
ATOM     10  C   UNL     1     -14.689  56.935  49.347  0.00  0.00    +0.000 A 
ATOM     11  C   UNL     1     -14.234  57.033  48.045  0.00  0.00    +0.000 A 
ENDROOT
BRANCH   1  17
ATOM     12  S   UNL     1      -8.992  52.201  53.057  0.00  0.00    +0.000 S 
ATOM     13  O   UNL     1      -8.332  51.065  52.439  0.00  0.00    +0.000 OA
ATOM     14  O   UNL     1      -9.807  52.018  54.241  0.00  0.00    +0.000 OA
ATOM     15  N   UNL     1      -9.905  52.911  51.925  0.00  0.00    +0.000 N 
ATOM     16  C   UNL     1      -7.718  53.320  53.511  0.00  0.00    +0.000 A 
ATOM     17  C   UNL     1      -9.574  54.058  51.413  0.00  0.00    +0.000 C 
ATOM     18  C   UNL     1      -7.602  54.497  52.788  0.00  0.00    +0.000 A 
ATOM     19  C   UNL     1      -6.873  53.021  54.583  0.00  0.00    +0.000 A 
ATOM     20  N   UNL     1      -8.441  54.777  51.714  0.00  0.00    +0.000 N 
ATOM     21  C   UNL     1      -6.562  55.372  53.112  0.00  0.00    +0.000 A 
ATOM     22  C   UNL     1      -5.861  53.918  54.913  0.00  0.00    +0.000 A 
ATOM     23  C   UNL     1      -5.703  55.090  54.174  0.00  0.00    +0.000 A 
ATOM     24  H   UNL     1     -10.728  52.465  51.618  0.00  0.00    +0.000 HD
ATOM     25  H   UNL     1      -8.209  55.537  51.133  0.00  0.00    +0.000 HD
ENDBRANCH   1  17
BRANCH   3  26
ATOM     26  O   UNL     1     -12.222  55.031  52.125  0.00  0.00    +0.000 OA
ATOM     27  H   UNL     1     -12.149  55.774  52.691  0.00  0.00    +0.000 HD
ENDBRANCH   3  26
BRANCH   5  28
ATOM     28  C   UNL     1     -10.676  55.484  46.683  0.00  0.00    +0.000 C 
BRANCH  28  29
ATOM     29  C   UNL     1     -11.240  54.340  45.829  0.00  0.00    +0.000 C 
BRANCH  29  30
ATOM     30  C   UNL     1     -10.184  53.345  45.308  0.00  0.00    +0.000 C 
ATOM     31  C   UNL     1     -10.568  52.716  43.967  0.00  0.00    +0.000 C 
ATOM     32  C   UNL     1      -8.837  54.064  45.163  0.00  0.00    +0.000 C 
ENDBRANCH  29  30
ENDBRANCH  28  29
ENDBRANCH   5  28
TORSDOF 5
ENDMDL
MODEL 7
REMARK VINA RESULT:      -7.7      1.922      2.215
REMARK  Name = 302306
REMARK  7 active torsions:
REMARK  status: ('A' for Active; 'I' for Inactive)
REMARK    1  A    between atoms: C_6  and  C_10
REMARK    2  A    between atoms: C_14  and  O_18
REMARK    3  A    between atoms: N_17  and  C_21
REMARK    4  A    between atoms: C_21  and  C_24
REMARK    5  A    between atoms: C_24  and  C_27
REMARK    6  A    between atoms: C_27  and  C_28
REMARK    7  A    between atoms: C_27  and  C_29
REMARK                            x       y       z     vdW  Elec       q    Type
REMARK                         _______ _______ _______ _____ _____    ______ ____
ROOT
ATOM      1  C   UNL     1     -11.081  54.611  51.230  0.00  0.00    +0.000 A 
ATOM      2  C   UNL     1      -9.647  55.035  51.140  0.00  0.00    +0.000 A 
ATOM      3  C   UNL     1     -11.389  53.343  51.552  0.00  0.00    +0.000 A 
ATOM      4  O   UNL     1      -9.394  56.228  50.955  0.00  0.00    +0.000 OA
ATOM      5  N   UNL     1      -8.670  54.069  51.281  0.00  0.00    +0.000 N 
ATOM      6  C   UNL     1     -10.327  52.349  51.714  0.00  0.00    +0.000 A 
ATOM      7  C   UNL     1      -8.989  52.713  51.547  0.00  0.00    +0.000 A 
ATOM      8  C   UNL     1     -10.614  51.007  51.990  0.00  0.00    +0.000 A 
ATOM      9  N   UNL     1      -7.975  51.817  51.632  0.00  0.00    +0.000 NA
ATOM     10  C   UNL     1      -9.581  50.077  52.070  0.00  0.00    +0.000 A 
ATOM     11  C   UNL     1      -8.288  50.528  51.883  0.00  0.00    +0.000 A 
ENDROOT
BRANCH   1  17
ATOM     12  S   UNL     1     -13.349  57.232  49.393  0.00  0.00    +0.000 S 
ATOM     13  O   UNL     1     -14.402  56.607  48.613  0.00  0.00    +0.000 OA
ATOM     14  O   UNL     1     -12.623  58.368  48.864  0.00  0.00    +0.000 OA
ATOM     15  N   UNL     1     -12.275  56.083  49.773  0.00  0.00    +0.000 N 
ATOM     16  C   UNL     1     -14.104  57.785  50.879  0.00  0.00    +0.000 A 
ATOM     17  C   UNL     1     -12.174  55.628  50.985  0.00  0.00    +0.000 C 
ATOM     18  C   UNL     1     -13.800  57.110  52.050  0.00  0.00    +0.000 A 
ATOM     19  C   UNL     1     -14.966  58.885  50.858  0.00  0.00    +0.000 A 
ATOM     20  N   UNL     1     -12.951  56.007  52.055  0.00  0.00    +0.000 N 
ATOM     21  C   UNL     1     -14.431  57.513  53.229  0.00  0.00    +0.000 A 
ATOM     22  C   UNL     1     -15.563  59.295  52.047  0.00  0.00    +0.000 A 
ATOM     23  C   UNL     1     -15.300  58.605  53.231  0.00  0.00    +0.000 A 
ATOM     24  H   UNL     1     -11.685  55.722  49.071  0.00  0.00    +0.000 HD
ATOM     25  H   UNL     1     -12.904  55.465  52.875  0.00  0.00    +0.000 HD
ENDBRANCH   1  17
BRANCH   3  26
ATOM     26  O   UNL     1     -12.675  52.861  51.729  0.00  0.00    +0.000 OA
ATOM     27  H   UNL     1     -13.318  53.387  52.161  0.00  0.00    +0.000 HD
ENDBRANCH   3  26
BRANCH   5  28
ATOM     28  C   UNL     1      -7.256  54.436  51.124  0.00  0.00    +0.000 C 
BRANCH  28  29
ATOM     29  C   UNL     1      -6.699  55.109  52.386  0.00  0.00    +0.000 C 
BRANCH  29  30
ATOM     30  C   UNL     1      -5.789  54.210  53.247  0.00  0.00    +0.000 C 
ATOM     31  C   UNL     1      -4.306  54.357  52.901  0.00  0.00    +0.000 C 
ATOM     32  C   UNL     1      -5.999  54.547  54.729  0.00  0.00    +0.000 C 
ENDBRANCH  29  30
ENDBRANCH  28  29
ENDBRANCH   5  28
TORSDOF 5
ENDMDL
MODEL 8
REMARK VINA RESULT:      -7.6      2.637      8.226
REMARK  Name = 302306
REMARK  7 active torsions:
REMARK  status: ('A' for Active; 'I' for Inactive)
REMARK    1  A    between atoms: C_6  and  C_10
REMARK    2  A    between atoms: C_14  and  O_18
REMARK    3  A    between atoms: N_17  and  C_21
REMARK    4  A    between atoms: C_21  and  C_24
REMARK    5  A    between atoms: C_24  and  C_27
REMARK    6  A    between atoms: C_27  and  C_28
REMARK    7  A    between atoms: C_27  and  C_29
REMARK                            x       y       z     vdW  Elec       q    Type
REMARK                         _______ _______ _______ _____ _____    ______ ____
ROOT
ATOM      1  C   UNL     1      -9.742  54.268  50.676  0.00  0.00    +0.000 A 
ATOM      2  C   UNL     1     -10.975  54.632  51.446  0.00  0.00    +0.000 A 
ATOM      3  C   UNL     1      -9.643  54.585  49.374  0.00  0.00    +0.000 A 
ATOM      4  O   UNL     1     -10.994  54.431  52.662  0.00  0.00    +0.000 OA
ATOM      5  N   UNL     1     -12.036  55.188  50.756  0.00  0.00    +0.000 N 
ATOM      6  C   UNL     1     -10.779  55.193  48.679  0.00  0.00    +0.000 A 
ATOM      7  C   UNL     1     -11.966  55.457  49.365  0.00  0.00    +0.000 A 
ATOM      8  C   UNL     1     -10.733  55.481  47.310  0.00  0.00    +0.000 A 
ATOM      9  N   UNL     1     -13.063  55.967  48.753  0.00  0.00    +0.000 NA
ATOM     10  C   UNL     1     -11.856  55.996  46.670  0.00  0.00    +0.000 A 
ATOM     11  C   UNL     1     -12.989  56.217  47.428  0.00  0.00    +0.000 A 
ENDROOT
BRANCH   1  17
ATOM     12  S   UNL     1      -7.816  51.811  53.051  0.00  0.00    +0.000 S 
ATOM     13  O   UNL     1      -7.637  50.496  52.464  0.00  0.00    +0.000 OA
ATOM     14  O   UNL     1      -8.172  51.946  54.449  0.00  0.00    +0.000 OA
ATOM     15  N   UNL     1      -8.929  52.591  52.173  0.00  0.00    +0.000 N 
ATOM     16  C   UNL     1      -6.284  52.646  52.856  0.00  0.00    +0.000 A 
ATOM     17  C   UNL     1      -8.603  53.570  51.386  0.00  0.00    +0.000 C 
ATOM     18  C   UNL     1      -6.224  53.682  51.938  0.00  0.00    +0.000 A 
ATOM     19  C   UNL     1      -5.180  52.273  53.628  0.00  0.00    +0.000 A 
ATOM     20  N   UNL     1      -7.327  54.036  51.165  0.00  0.00    +0.000 N 
ATOM     21  C   UNL     1      -4.998  54.323  51.742  0.00  0.00    +0.000 A 
ATOM     22  C   UNL     1      -3.973  52.943  53.443  0.00  0.00    +0.000 A 
ATOM     23  C   UNL     1      -3.881  53.963  52.496  0.00  0.00    +0.000 A 
ATOM     24  H   UNL     1      -9.873  52.317  52.237  0.00  0.00    +0.000 HD
ATOM     25  H   UNL     1      -7.185  54.657  50.415  0.00  0.00    +0.000 HD
ENDBRANCH   1  17
BRANCH   3  26
ATOM     26  O   UNL     1      -8.527  54.359  48.586  0.00  0.00    +0.000 OA
ATOM     27  H   UNL     1      -7.688  54.238  48.986  0.00  0.00    +0.000 HD
ENDBRANCH   3  26
BRANCH   5  28
ATOM     28  C   UNL     1     -13.287  55.487  51.465  0.00  0.00    +0.000 C 
BRANCH  28  29
ATOM     29  C   UNL     1     -13.222  56.838  52.190  0.00  0.00    +0.000 C 
BRANCH  29  30
ATOM     30  C   UNL     1     -14.586  57.386  52.655  0.00  0.00    +0.000 C 
ATOM     31  C   UNL     1     -14.664  58.912  52.604  0.00  0.00    +0.000 C 
ATOM     32  C   UNL     1     -15.697  56.792  51.779  0.00  0.00    +0.000 C 
ENDBRANCH  29  30
ENDBRANCH  28  29
ENDBRANCH   5  28
TORSDOF 5
ENDMDL
MODEL 9
REMARK VINA RESULT:      -7.6      3.770      5.155
REMARK  Name = 302306
REMARK  7 active torsions:
REMARK  status: ('A' for Active; 'I' for Inactive)
REMARK    1  A    between atoms: C_6  and  C_10
REMARK    2  A    between atoms: C_14  and  O_18
REMARK    3  A    between atoms: N_17  and  C_21
REMARK    4  A    between atoms: C_21  and  C_24
REMARK    5  A    between atoms: C_24  and  C_27
REMARK    6  A    between atoms: C_27  and  C_28
REMARK    7  A    between atoms: C_27  and  C_29
REMARK                            x       y       z     vdW  Elec       q    Type
REMARK                         _______ _______ _______ _____ _____    ______ ____
ROOT
ATOM      1  C   UNL     1     -11.368  55.377  49.445  0.00  0.00    +0.000 A 
ATOM      2  C   UNL     1     -11.478  54.711  48.107  0.00  0.00    +0.000 A 
ATOM      3  C   UNL     1     -10.373  55.042  50.284  0.00  0.00    +0.000 A 
ATOM      4  O   UNL     1     -12.329  55.116  47.313  0.00  0.00    +0.000 OA
ATOM      5  N   UNL     1     -10.609  53.676  47.819  0.00  0.00    +0.000 N 
ATOM      6  C   UNL     1      -9.457  53.954  49.938  0.00  0.00    +0.000 A 
ATOM      7  C   UNL     1      -9.603  53.266  48.732  0.00  0.00    +0.000 A 
ATOM      8  C   UNL     1      -8.447  53.538  50.815  0.00  0.00    +0.000 A 
ATOM      9  N   UNL     1      -8.815  52.216  48.392  0.00  0.00    +0.000 NA
ATOM     10  C   UNL     1      -7.639  52.456  50.480  0.00  0.00    +0.000 A 
ATOM     11  C   UNL     1      -7.862  51.831  49.268  0.00  0.00    +0.000 A 
ENDROOT
BRANCH   1  17
ATOM     12  S   UNL     1     -13.362  58.755  49.405  0.00  0.00    +0.000 S 
ATOM     13  O   UNL     1     -14.441  58.752  48.435  0.00  0.00    +0.000 OA
ATOM     14  O   UNL     1     -12.530  59.929  49.572  0.00  0.00    +0.000 OA
ATOM     15  N   UNL     1     -12.396  57.501  49.066  0.00  0.00    +0.000 N 
ATOM     16  C   UNL     1     -14.108  58.461  50.968  0.00  0.00    +0.000 A 
ATOM     17  C   UNL     1     -12.366  56.448  49.826  0.00  0.00    +0.000 C 
ATOM     18  C   UNL     1     -13.892  57.231  51.567  0.00  0.00    +0.000 A 
ATOM     19  C   UNL     1     -14.875  59.458  51.575  0.00  0.00    +0.000 A 
ATOM     20  N   UNL     1     -13.137  56.240  50.945  0.00  0.00    +0.000 N 
ATOM     21  C   UNL     1     -14.519  56.970  52.788  0.00  0.00    +0.000 A 
ATOM     22  C   UNL     1     -15.468  59.195  52.807  0.00  0.00    +0.000 A 
ATOM     23  C   UNL     1     -15.295  57.949  53.410  0.00  0.00    +0.000 A 
ATOM     24  H   UNL     1     -11.820  57.537  48.268  0.00  0.00    +0.000 HD
ATOM     25  H   UNL     1     -13.157  55.334  51.331  0.00  0.00    +0.000 HD
ENDBRANCH   1  17
BRANCH   3  26
ATOM     26  O   UNL     1     -10.137  55.639  51.511  0.00  0.00    +0.000 OA
ATOM     27  H   UNL     1      -9.564  55.230  52.129  0.00  0.00    +0.000 HD
ENDBRANCH   3  26
BRANCH   5  28
ATOM     28  C   UNL     1     -10.737  52.951  46.548  0.00  0.00    +0.000 C 
BRANCH  28  29
ATOM     29  C   UNL     1     -10.201  53.772  45.367  0.00  0.00    +0.000 C 
BRANCH  29  30
ATOM     30  C   UNL     1      -8.734  53.480  44.993  0.00  0.00    +0.000 C 
ATOM     31  C   UNL     1      -8.552  53.145  43.512  0.00  0.00    +0.000 C 
ATOM     32  C   UNL     1      -7.868  54.696  45.347  0.00  0.00    +0.000 C 
ENDBRANCH  29  30
ENDBRANCH  28  29
ENDBRANCH   5  28
TORSDOF 5
ENDMDL
