MODEL 1
REMARK VINA RESULT:      -9.1      0.000      0.000
REMARK  Name = 352866
REMARK  5 active torsions:
REMARK  status: ('A' for Active; 'I' for Inactive)
REMARK    1  A    between atoms: C_6  and  C_10
REMARK    2  A    between atoms: C_11  and  O_15
REMARK    3  A    between atoms: C_14  and  O_19
REMARK    4  A    between atoms: N_18  and  C_22
REMARK    5  A    between atoms: C_22  and  C_25
REMARK                            x       y       z     vdW  Elec       q    Type
REMARK                         _______ _______ _______ _____ _____    ______ ____
ROOT
ATOM      1  C   UNL     1     -10.661  55.745  50.826  0.00  0.00    +0.000 A 
ATOM      2  C   UNL     1     -10.088  56.206  49.528  0.00  0.00    +0.000 A 
ATOM      3  C   UNL     1     -12.007  55.739  50.894  0.00  0.00    +0.000 A 
ATOM      4  O   UNL     1      -9.082  56.905  49.493  0.00  0.00    +0.000 OA
ATOM      5  N   UNL     1     -10.759  55.650  48.414  0.00  0.00    +0.000 N 
ATOM      6  C   UNL     1     -12.745  56.221  49.724  0.00  0.00    +0.000 A 
ATOM      7  C   UNL     1     -12.146  56.057  48.452  0.00  0.00    +0.000 A 
ATOM      8  C   UNL     1     -13.965  56.880  49.827  0.00  0.00    +0.000 A 
ATOM      9  N   UNL     1     -12.703  56.544  47.325  0.00  0.00    +0.000 NA
ATOM     10  C   UNL     1     -14.518  57.434  48.680  0.00  0.00    +0.000 A 
ATOM     11  C   UNL     1     -13.862  57.238  47.471  0.00  0.00    +0.000 A 
ENDROOT
BRANCH   1  17
ATOM     12  S   UNL     1      -9.535  52.597  52.691  0.00  0.00    +0.000 S 
ATOM     13  O   UNL     1     -10.370  52.151  53.787  0.00  0.00    +0.000 OA
ATOM     14  O   UNL     1      -9.058  51.660  51.692  0.00  0.00    +0.000 OA
ATOM     15  N   UNL     1     -10.336  53.756  51.933  0.00  0.00    +0.000 N 
ATOM     16  C   UNL     1      -8.115  53.320  53.402  0.00  0.00    +0.000 A 
ATOM     17  C   UNL     1      -9.822  54.934  51.749  0.00  0.00    +0.000 C 
ATOM     18  C   UNL     1      -7.793  54.645  53.089  0.00  0.00    +0.000 A 
ATOM     19  C   UNL     1      -7.357  52.523  54.273  0.00  0.00    +0.000 A 
ATOM     20  N   UNL     1      -8.623  55.398  52.246  0.00  0.00    +0.000 N 
ATOM     21  C   UNL     1      -6.663  55.164  53.729  0.00  0.00    +0.000 A 
ATOM     22  C   UNL     1      -6.237  53.063  54.879  0.00  0.00    +0.000 A 
ATOM     23  C   UNL     1      -5.891  54.388  54.614  0.00  0.00    +0.000 A 
ATOM     24  H   UNL     1     -11.243  53.571  51.598  0.00  0.00    +0.000 HD
ATOM     25  H   UNL     1      -8.334  56.306  51.995  0.00  0.00    +0.000 HD
BRANCH  21  26
ATOM     26  O   UNL     1      -6.221  56.450  53.571  0.00  0.00    +0.000 OA
ATOM     27  H   UNL     1      -5.746  56.870  54.261  0.00  0.00    +0.000 HD
ENDBRANCH  21  26
ENDBRANCH   1  17
BRANCH   3  28
ATOM     28  O   UNL     1     -12.767  55.161  51.887  0.00  0.00    +0.000 OA
ATOM     29  H   UNL     1     -13.410  55.668  52.340  0.00  0.00    +0.000 HD
ENDBRANCH   3  28
BRANCH   5  30
ATOM     30  C   UNL     1     -10.558  54.181  48.412  0.00  0.00    +0.000 C 
BRANCH  30  31
ATOM     31  C   UNL     1     -11.022  53.329  47.262  0.00  0.00    +0.000 A 
ATOM     32  C   UNL     1     -11.936  52.285  47.402  0.00  0.00    +0.000 A 
ATOM     33  C   UNL     1     -10.647  53.726  45.960  0.00  0.00    +0.000 A 
ATOM     34  C   UNL     1     -12.426  51.623  46.271  0.00  0.00    +0.000 A 
ATOM     35  C   UNL     1     -11.133  53.064  44.833  0.00  0.00    +0.000 A 
ATOM     36  C   UNL     1     -12.018  52.004  44.991  0.00  0.00    +0.000 A 
ENDBRANCH  30  31
ENDBRANCH   5  30
TORSDOF 5
ENDMDL
MODEL 2
REMARK VINA RESULT:      -8.5      2.056      4.615
REMARK  Name = 352866
REMARK  5 active torsions:
REMARK  status: ('A' for Active; 'I' for Inactive)
REMARK    1  A    between atoms: C_6  and  C_10
REMARK    2  A    between atoms: C_11  and  O_15
REMARK    3  A    between atoms: C_14  and  O_19
REMARK    4  A    between atoms: N_18  and  C_22
REMARK    5  A    between atoms: C_22  and  C_25
REMARK                            x       y       z     vdW  Elec       q    Type
REMARK                         _______ _______ _______ _____ _____    ______ ____
ROOT
ATOM      1  C   UNL     1      -9.778  53.116  48.501  0.00  0.00    +0.000 A 
ATOM      2  C   UNL     1     -11.159  53.130  47.933  0.00  0.00    +0.000 A 
ATOM      3  C   UNL     1      -8.783  53.006  47.598  0.00  0.00    +0.000 A 
ATOM      4  O   UNL     1     -12.079  52.549  48.496  0.00  0.00    +0.000 OA
ATOM      5  N   UNL     1     -11.265  53.963  46.795  0.00  0.00    +0.000 N 
ATOM      6  C   UNL     1      -9.162  52.870  46.189  0.00  0.00    +0.000 A 
ATOM      7  C   UNL     1     -10.373  53.469  45.769  0.00  0.00    +0.000 A 
ATOM      8  C   UNL     1      -8.414  52.129  45.280  0.00  0.00    +0.000 A 
ATOM      9  N   UNL     1     -10.853  53.327  44.517  0.00  0.00    +0.000 NA
ATOM     10  C   UNL     1      -8.926  51.930  44.006  0.00  0.00    +0.000 A 
ATOM     11  C   UNL     1     -10.128  52.544  43.676  0.00  0.00    +0.000 A 
ENDROOT
BRANCH   1  17
ATOM     12  S   UNL     1     -10.647  53.963  52.131  0.00  0.00    +0.000 S 
ATOM     13  O   UNL     1     -11.552  55.074  52.346  0.00  0.00    +0.000 OA
ATOM     14  O   UNL     1     -10.836  52.705  52.827  0.00  0.00    +0.000 OA
ATOM     15  N   UNL     1     -10.643  53.660  50.561  0.00  0.00    +0.000 N 
ATOM     16  C   UNL     1      -9.051  54.526  52.560  0.00  0.00    +0.000 A 
ATOM     17  C   UNL     1      -9.544  53.648  49.869  0.00  0.00    +0.000 C 
ATOM     18  C   UNL     1      -8.026  54.462  51.611  0.00  0.00    +0.000 A 
ATOM     19  C   UNL     1      -8.875  55.027  53.858  0.00  0.00    +0.000 A 
ATOM     20  N   UNL     1      -8.285  53.990  50.315  0.00  0.00    +0.000 N 
ATOM     21  C   UNL     1      -6.787  54.966  52.018  0.00  0.00    +0.000 A 
ATOM     22  C   UNL     1      -7.633  55.506  54.233  0.00  0.00    +0.000 A 
ATOM     23  C   UNL     1      -6.587  55.484  53.312  0.00  0.00    +0.000 A 
ATOM     24  H   UNL     1     -11.496  53.477  50.106  0.00  0.00    +0.000 HD
ATOM     25  H   UNL     1      -7.528  53.899  49.691  0.00  0.00    +0.000 HD
BRANCH  21  26
ATOM     26  O   UNL     1      -5.683  55.019  51.211  0.00  0.00    +0.000 OA
ATOM     27  H   UNL     1      -5.176  55.805  51.161  0.00  0.00    +0.000 HD
ENDBRANCH  21  26
ENDBRANCH   1  17
BRANCH   3  28
ATOM     28  O   UNL     1      -7.440  53.186  47.844  0.00  0.00    +0.000 OA
ATOM     29  H   UNL     1      -7.138  53.981  48.235  0.00  0.00    +0.000 HD
ENDBRANCH   3  28
BRANCH   5  30
ATOM     30  C   UNL     1     -11.010  55.367  47.197  0.00  0.00    +0.000 C 
BRANCH  30  31
ATOM     31  C   UNL     1     -12.068  56.188  47.883  0.00  0.00    +0.000 A 
ATOM     32  C   UNL     1     -11.945  56.659  49.190  0.00  0.00    +0.000 A 
ATOM     33  C   UNL     1     -13.150  56.646  47.100  0.00  0.00    +0.000 A 
ATOM     34  C   UNL     1     -12.907  57.528  49.717  0.00  0.00    +0.000 A 
ATOM     35  C   UNL     1     -14.110  57.510  47.627  0.00  0.00    +0.000 A 
ATOM     36  C   UNL     1     -13.991  57.945  48.942  0.00  0.00    +0.000 A 
ENDBRANCH  30  31
ENDBRANCH   5  30
TORSDOF 5
ENDMDL
MODEL 3
REMARK VINA RESULT:      -8.4      1.964      2.670
REMARK  Name = 352866
REMARK  5 active torsions:
REMARK  status: ('A' for Active; 'I' for Inactive)
REMARK    1  A    between atoms: C_6  and  C_10
REMARK    2  A    between atoms: C_11  and  O_15
REMARK    3  A    between atoms: C_14  and  O_19
REMARK    4  A    between atoms: N_18  and  C_22
REMARK    5  A    between atoms: C_22  and  C_25
REMARK                            x       y       z     vdW  Elec       q    Type
REMARK                         _______ _______ _______ _____ _____    ______ ____
ROOT
ATOM      1  C   UNL     1      -9.554  55.770  50.963  0.00  0.00    +0.000 A 
ATOM      2  C   UNL     1      -9.822  56.499  49.689  0.00  0.00    +0.000 A 
ATOM      3  C   UNL     1     -10.647  55.319  51.611  0.00  0.00    +0.000 A 
ATOM      4  O   UNL     1      -9.169  57.488  49.378  0.00  0.00    +0.000 OA
ATOM      5  N   UNL     1     -10.788  55.847  48.887  0.00  0.00    +0.000 N 
ATOM      6  C   UNL     1     -11.955  55.628  51.027  0.00  0.00    +0.000 A 
ATOM      7  C   UNL     1     -12.032  55.774  49.621  0.00  0.00    +0.000 A 
ATOM      8  C   UNL     1     -13.090  55.842  51.801  0.00  0.00    +0.000 A 
ATOM      9  N   UNL     1     -13.167  56.143  48.995  0.00  0.00    +0.000 NA
ATOM     10  C   UNL     1     -14.249  56.277  51.172  0.00  0.00    +0.000 A 
ATOM     11  C   UNL     1     -14.239  56.406  49.789  0.00  0.00    +0.000 A 
ENDROOT
BRANCH   1  17
ATOM     12  S   UNL     1      -6.100  54.399  50.045  0.00  0.00    +0.000 S 
ATOM     13  O   UNL     1      -6.054  53.068  49.477  0.00  0.00    +0.000 OA
ATOM     14  O   UNL     1      -5.357  55.490  49.444  0.00  0.00    +0.000 OA
ATOM     15  N   UNL     1      -7.640  54.829  50.105  0.00  0.00    +0.000 N 
ATOM     16  C   UNL     1      -5.529  54.264  51.688  0.00  0.00    +0.000 A 
ATOM     17  C   UNL     1      -8.202  55.205  51.214  0.00  0.00    +0.000 C 
ATOM     18  C   UNL     1      -6.352  54.692  52.735  0.00  0.00    +0.000 A 
ATOM     19  C   UNL     1      -4.251  53.719  51.881  0.00  0.00    +0.000 A 
ATOM     20  N   UNL     1      -7.639  55.186  52.472  0.00  0.00    +0.000 N 
ATOM     21  C   UNL     1      -5.839  54.516  54.024  0.00  0.00    +0.000 A 
ATOM     22  C   UNL     1      -3.768  53.570  53.168  0.00  0.00    +0.000 A 
ATOM     23  C   UNL     1      -4.564  53.962  54.244  0.00  0.00    +0.000 A 
ATOM     24  H   UNL     1      -8.176  54.808  49.280  0.00  0.00    +0.000 HD
ATOM     25  H   UNL     1      -8.167  55.537  53.226  0.00  0.00    +0.000 HD
BRANCH  21  26
ATOM     26  O   UNL     1      -6.519  54.841  55.167  0.00  0.00    +0.000 OA
ATOM     27  H   UNL     1      -6.920  55.683  55.249  0.00  0.00    +0.000 HD
ENDBRANCH  21  26
ENDBRANCH   1  17
BRANCH   3  28
ATOM     28  O   UNL     1     -10.657  54.445  52.676  0.00  0.00    +0.000 OA
ATOM     29  H   UNL     1     -10.771  53.528  52.527  0.00  0.00    +0.000 HD
ENDBRANCH   3  28
BRANCH   5  30
ATOM     30  C   UNL     1     -10.256  54.530  48.462  0.00  0.00    +0.000 C 
BRANCH  30  31
ATOM     31  C   UNL     1     -10.223  54.130  47.012  0.00  0.00    +0.000 A 
ATOM     32  C   UNL     1      -9.048  53.814  46.330  0.00  0.00    +0.000 A 
ATOM     33  C   UNL     1     -11.459  53.897  46.370  0.00  0.00    +0.000 A 
ATOM     34  C   UNL     1      -9.106  53.323  45.022  0.00  0.00    +0.000 A 
ATOM     35  C   UNL     1     -11.515  53.409  45.065  0.00  0.00    +0.000 A 
ATOM     36  C   UNL     1     -10.334  53.130  44.387  0.00  0.00    +0.000 A 
ENDBRANCH  30  31
ENDBRANCH   5  30
TORSDOF 5
ENDMDL
MODEL 4
REMARK VINA RESULT:      -8.4      1.405      2.631
REMARK  Name = 352866
REMARK  5 active torsions:
REMARK  status: ('A' for Active; 'I' for Inactive)
REMARK    1  A    between atoms: C_6  and  C_10
REMARK    2  A    between atoms: C_11  and  O_15
REMARK    3  A    between atoms: C_14  and  O_19
REMARK    4  A    between atoms: N_18  and  C_22
REMARK    5  A    between atoms: C_22  and  C_25
REMARK                            x       y       z     vdW  Elec       q    Type
REMARK                         _______ _______ _______ _____ _____    ______ ____
ROOT
ATOM      1  C   UNL     1     -10.316  55.727  50.953  0.00  0.00    +0.000 A 
ATOM      2  C   UNL     1      -9.938  56.474  49.717  0.00  0.00    +0.000 A 
ATOM      3  C   UNL     1     -11.622  55.413  51.062  0.00  0.00    +0.000 A 
ATOM      4  O   UNL     1      -9.112  57.377  49.752  0.00  0.00    +0.000 OA
ATOM      5  N   UNL     1     -10.542  55.935  48.556  0.00  0.00    +0.000 N 
ATOM      6  C   UNL     1     -12.518  55.870  49.997  0.00  0.00    +0.000 A 
ATOM      7  C   UNL     1     -11.979  56.014  48.696  0.00  0.00    +0.000 A 
ATOM      8  C   UNL     1     -13.843  56.221  50.231  0.00  0.00    +0.000 A 
ATOM      9  N   UNL     1     -12.696  56.511  47.669  0.00  0.00    +0.000 NA
ATOM     10  C   UNL     1     -14.573  56.786  49.194  0.00  0.00    +0.000 A 
ATOM     11  C   UNL     1     -13.966  56.903  47.950  0.00  0.00    +0.000 A 
ENDROOT
BRANCH   1  17
ATOM     12  S   UNL     1      -6.849  55.162  52.474  0.00  0.00    +0.000 S 
ATOM     13  O   UNL     1      -5.783  54.803  51.561  0.00  0.00    +0.000 OA
ATOM     14  O   UNL     1      -6.653  56.192  53.477  0.00  0.00    +0.000 OA
ATOM     15  N   UNL     1      -8.109  55.581  51.582  0.00  0.00    +0.000 N 
ATOM     16  C   UNL     1      -7.279  53.710  53.340  0.00  0.00    +0.000 A 
ATOM     17  C   UNL     1      -9.266  55.008  51.723  0.00  0.00    +0.000 C 
ATOM     18  C   UNL     1      -8.600  53.253  53.295  0.00  0.00    +0.000 A 
ATOM     19  C   UNL     1      -6.257  53.058  54.048  0.00  0.00    +0.000 A 
ATOM     20  N   UNL     1      -9.561  53.930  52.530  0.00  0.00    +0.000 N 
ATOM     21  C   UNL     1      -8.856  52.062  53.983  0.00  0.00    +0.000 A 
ATOM     22  C   UNL     1      -6.548  51.890  54.729  0.00  0.00    +0.000 A 
ATOM     23  C   UNL     1      -7.847  51.385  54.692  0.00  0.00    +0.000 A 
ATOM     24  H   UNL     1      -8.005  56.290  50.908  0.00  0.00    +0.000 HD
ATOM     25  H   UNL     1     -10.495  53.618  52.571  0.00  0.00    +0.000 HD
BRANCH  21  26
ATOM     26  O   UNL     1     -10.080  51.450  54.017  0.00  0.00    +0.000 OA
ATOM     27  H   UNL     1     -10.853  51.936  53.814  0.00  0.00    +0.000 HD
ENDBRANCH  21  26
ENDBRANCH   1  17
BRANCH   3  28
ATOM     28  O   UNL     1     -12.176  54.553  51.985  0.00  0.00    +0.000 OA
ATOM     29  H   UNL     1     -12.661  53.806  51.696  0.00  0.00    +0.000 HD
ENDBRANCH   3  28
BRANCH   5  30
ATOM     30  C   UNL     1     -10.028  54.561  48.337  0.00  0.00    +0.000 C 
BRANCH  30  31
ATOM     31  C   UNL     1      -9.488  54.133  46.999  0.00  0.00    +0.000 A 
ATOM     32  C   UNL     1     -10.136  53.218  46.170  0.00  0.00    +0.000 A 
ATOM     33  C   UNL     1      -8.367  54.826  46.494  0.00  0.00    +0.000 A 
ATOM     34  C   UNL     1      -9.646  52.967  44.883  0.00  0.00    +0.000 A 
ATOM     35  C   UNL     1      -7.878  54.573  45.212  0.00  0.00    +0.000 A 
ATOM     36  C   UNL     1      -8.515  53.635  44.409  0.00  0.00    +0.000 A 
ENDBRANCH  30  31
ENDBRANCH   5  30
TORSDOF 5
ENDMDL
MODEL 5
REMARK VINA RESULT:      -8.3      1.640      2.143
REMARK  Name = 352866
REMARK  5 active torsions:
REMARK  status: ('A' for Active; 'I' for Inactive)
REMARK    1  A    between atoms: C_6  and  C_10
REMARK    2  A    between atoms: C_11  and  O_15
REMARK    3  A    between atoms: C_14  and  O_19
REMARK    4  A    between atoms: N_18  and  C_22
REMARK    5  A    between atoms: C_22  and  C_25
REMARK                            x       y       z     vdW  Elec       q    Type
REMARK                         _______ _______ _______ _____ _____    ______ ____
ROOT
ATOM      1  C   UNL     1      -9.909  55.488  51.067  0.00  0.00    +0.000 A 
ATOM      2  C   UNL     1      -9.744  56.395  49.893  0.00  0.00    +0.000 A 
ATOM      3  C   UNL     1     -11.179  55.298  51.476  0.00  0.00    +0.000 A 
ATOM      4  O   UNL     1      -8.811  57.188  49.833  0.00  0.00    +0.000 OA
ATOM      5  N   UNL     1     -10.687  56.133  48.872  0.00  0.00    +0.000 N 
ATOM      6  C   UNL     1     -12.234  56.025  50.765  0.00  0.00    +0.000 A 
ATOM      7  C   UNL     1     -12.018  56.337  49.402  0.00  0.00    +0.000 A 
ATOM      8  C   UNL     1     -13.394  56.467  51.392  0.00  0.00    +0.000 A 
ATOM      9  N   UNL     1     -12.887  57.077  48.684  0.00  0.00    +0.000 NA
ATOM     10  C   UNL     1     -14.267  57.276  50.679  0.00  0.00    +0.000 A 
ATOM     11  C   UNL     1     -13.976  57.545  49.347  0.00  0.00    +0.000 A 
ENDROOT
BRANCH   1  17
ATOM     12  S   UNL     1      -8.007  52.167  51.047  0.00  0.00    +0.000 S 
ATOM     13  O   UNL     1      -8.582  51.078  51.810  0.00  0.00    +0.000 OA
ATOM     14  O   UNL     1      -7.535  51.956  49.692  0.00  0.00    +0.000 OA
ATOM     15  N   UNL     1      -9.095  53.339  51.011  0.00  0.00    +0.000 N 
ATOM     16  C   UNL     1      -6.638  52.750  51.958  0.00  0.00    +0.000 A 
ATOM     17  C   UNL     1      -8.818  54.540  51.418  0.00  0.00    +0.000 C 
ATOM     18  C   UNL     1      -6.592  54.096  52.336  0.00  0.00    +0.000 A 
ATOM     19  C   UNL     1      -5.635  51.821  52.275  0.00  0.00    +0.000 A 
ATOM     20  N   UNL     1      -7.653  54.959  52.024  0.00  0.00    +0.000 N 
ATOM     21  C   UNL     1      -5.481  54.477  53.096  0.00  0.00    +0.000 A 
ATOM     22  C   UNL     1      -4.544  52.234  53.017  0.00  0.00    +0.000 A 
ATOM     23  C   UNL     1      -4.467  53.562  53.435  0.00  0.00    +0.000 A 
ATOM     24  H   UNL     1      -9.998  53.145  50.671  0.00  0.00    +0.000 HD
ATOM     25  H   UNL     1      -7.560  55.913  52.249  0.00  0.00    +0.000 HD
BRANCH  21  26
ATOM     26  O   UNL     1      -5.289  55.741  53.584  0.00  0.00    +0.000 OA
ATOM     27  H   UNL     1      -4.502  55.950  54.046  0.00  0.00    +0.000 HD
ENDBRANCH  21  26
ENDBRANCH   1  17
BRANCH   3  28
ATOM     28  O   UNL     1     -11.608  54.353  52.382  0.00  0.00    +0.000 OA
ATOM     29  H   UNL     1     -11.023  53.680  52.668  0.00  0.00    +0.000 HD
ENDBRANCH   3  28
BRANCH   5  30
ATOM     30  C   UNL     1     -10.450  54.773  48.332  0.00  0.00    +0.000 C 
BRANCH  30  31
ATOM     31  C   UNL     1      -9.758  54.566  47.012  0.00  0.00    +0.000 A 
ATOM     32  C   UNL     1      -8.464  55.015  46.747  0.00  0.00    +0.000 A 
ATOM     33  C   UNL     1     -10.386  53.724  46.068  0.00  0.00    +0.000 A 
ATOM     34  C   UNL     1      -7.833  54.671  45.547  0.00  0.00    +0.000 A 
ATOM     35  C   UNL     1      -9.757  53.384  44.871  0.00  0.00    +0.000 A 
ATOM     36  C   UNL     1      -8.481  53.866  44.607  0.00  0.00    +0.000 A 
ENDBRANCH  30  31
ENDBRANCH   5  30
TORSDOF 5
ENDMDL
MODEL 6
REMARK VINA RESULT:      -8.2      2.705      6.319
REMARK  Name = 352866
REMARK  5 active torsions:
REMARK  status: ('A' for Active; 'I' for Inactive)
REMARK    1  A    between atoms: C_6  and  C_10
REMARK    2  A    between atoms: C_11  and  O_15
REMARK    3  A    between atoms: C_14  and  O_19
REMARK    4  A    between atoms: N_18  and  C_22
REMARK    5  A    between atoms: C_22  and  C_25
REMARK                            x       y       z     vdW  Elec       q    Type
REMARK                         _______ _______ _______ _____ _____    ______ ____
ROOT
ATOM      1  C   UNL     1     -12.573  54.326  49.550  0.00  0.00    +0.000 A 
ATOM      2  C   UNL     1     -12.295  54.036  50.987  0.00  0.00    +0.000 A 
ATOM      3  C   UNL     1     -13.215  55.487  49.308  0.00  0.00    +0.000 A 
ATOM      4  O   UNL     1     -12.399  52.900  51.435  0.00  0.00    +0.000 OA
ATOM      5  N   UNL     1     -11.804  55.168  51.680  0.00  0.00    +0.000 N 
ATOM      6  C   UNL     1     -13.601  56.299  50.465  0.00  0.00    +0.000 A 
ATOM      7  C   UNL     1     -12.799  56.216  51.628  0.00  0.00    +0.000 A 
ATOM      8  C   UNL     1     -14.748  57.086  50.478  0.00  0.00    +0.000 A 
ATOM      9  N   UNL     1     -13.118  56.855  52.771  0.00  0.00    +0.000 NA
ATOM     10  C   UNL     1     -15.115  57.702  51.667  0.00  0.00    +0.000 A 
ATOM     11  C   UNL     1     -14.278  57.562  52.767  0.00  0.00    +0.000 A 
ENDROOT
BRANCH   1  17
ATOM     12  S   UNL     1     -11.676  51.470  47.165  0.00  0.00    +0.000 S 
ATOM     13  O   UNL     1     -11.083  50.286  47.754  0.00  0.00    +0.000 OA
ATOM     14  O   UNL     1     -12.760  51.361  46.208  0.00  0.00    +0.000 OA
ATOM     15  N   UNL     1     -12.179  52.391  48.372  0.00  0.00    +0.000 N 
ATOM     16  C   UNL     1     -10.389  52.325  46.354  0.00  0.00    +0.000 A 
ATOM     17  C   UNL     1     -11.792  53.624  48.497  0.00  0.00    +0.000 C 
ATOM     18  C   UNL     1     -10.121  53.651  46.707  0.00  0.00    +0.000 A 
ATOM     19  C   UNL     1      -9.672  51.624  45.372  0.00  0.00    +0.000 A 
ATOM     20  N   UNL     1     -10.849  54.276  47.730  0.00  0.00    +0.000 N 
ATOM     21  C   UNL     1      -9.051  54.255  46.039  0.00  0.00    +0.000 A 
ATOM     22  C   UNL     1      -8.628  52.255  44.721  0.00  0.00    +0.000 A 
ATOM     23  C   UNL     1      -8.310  53.570  45.057  0.00  0.00    +0.000 A 
ATOM     24  H   UNL     1     -12.798  52.014  49.037  0.00  0.00    +0.000 HD
ATOM     25  H   UNL     1     -10.678  55.229  47.911  0.00  0.00    +0.000 HD
BRANCH  21  26
ATOM     26  O   UNL     1      -8.622  55.532  46.282  0.00  0.00    +0.000 OA
ATOM     27  H   UNL     1      -7.886  55.875  45.818  0.00  0.00    +0.000 HD
ENDBRANCH  21  26
ENDBRANCH   1  17
BRANCH   3  28
ATOM     28  O   UNL     1     -13.390  56.076  48.075  0.00  0.00    +0.000 OA
ATOM     29  H   UNL     1     -12.708  56.034  47.435  0.00  0.00    +0.000 HD
ENDBRANCH   3  28
BRANCH   5  30
ATOM     30  C   UNL     1     -10.489  55.550  51.113  0.00  0.00    +0.000 C 
BRANCH  30  31
ATOM     31  C   UNL     1      -9.206  55.251  51.841  0.00  0.00    +0.000 A 
ATOM     32  C   UNL     1      -7.949  55.337  51.244  0.00  0.00    +0.000 A 
ATOM     33  C   UNL     1      -9.278  55.047  53.236  0.00  0.00    +0.000 A 
ATOM     34  C   UNL     1      -6.793  55.176  52.016  0.00  0.00    +0.000 A 
ATOM     35  C   UNL     1      -8.126  54.883  54.004  0.00  0.00    +0.000 A 
ATOM     36  C   UNL     1      -6.880  54.940  53.389  0.00  0.00    +0.000 A 
ENDBRANCH  30  31
ENDBRANCH   5  30
TORSDOF 5
ENDMDL
MODEL 7
REMARK VINA RESULT:      -8.2      2.146      2.613
REMARK  Name = 352866
REMARK  5 active torsions:
REMARK  status: ('A' for Active; 'I' for Inactive)
REMARK    1  A    between atoms: C_6  and  C_10
REMARK    2  A    between atoms: C_11  and  O_15
REMARK    3  A    between atoms: C_14  and  O_19
REMARK    4  A    between atoms: N_18  and  C_22
REMARK    5  A    between atoms: C_22  and  C_25
REMARK                            x       y       z     vdW  Elec       q    Type
REMARK                         _______ _______ _______ _____ _____    ______ ____
ROOT
ATOM      1  C   UNL     1      -9.867  55.648  51.081  0.00  0.00    +0.000 A 
ATOM      2  C   UNL     1      -9.858  56.387  49.784  0.00  0.00    +0.000 A 
ATOM      3  C   UNL     1     -11.083  55.263  51.518  0.00  0.00    +0.000 A 
ATOM      4  O   UNL     1      -9.105  57.337  49.603  0.00  0.00    +0.000 OA
ATOM      5  N   UNL     1     -10.700  55.789  48.817  0.00  0.00    +0.000 N 
ATOM      6  C   UNL     1     -12.244  55.645  50.710  0.00  0.00    +0.000 A 
ATOM      7  C   UNL     1     -12.058  55.791  49.315  0.00  0.00    +0.000 A 
ATOM      8  C   UNL     1     -13.486  55.927  51.269  0.00  0.00    +0.000 A 
ATOM      9  N   UNL     1     -13.040  56.223  48.498  0.00  0.00    +0.000 NA
ATOM     10  C   UNL     1     -14.485  56.426  50.446  0.00  0.00    +0.000 A 
ATOM     11  C   UNL     1     -14.220  56.549  49.087  0.00  0.00    +0.000 A 
ENDROOT
BRANCH   1  17
ATOM     12  S   UNL     1      -7.534  53.989  53.622  0.00  0.00    +0.000 S 
ATOM     13  O   UNL     1      -6.947  54.848  54.630  0.00  0.00    +0.000 OA
ATOM     14  O   UNL     1      -8.136  52.720  53.984  0.00  0.00    +0.000 OA
ATOM     15  N   UNL     1      -8.640  54.855  52.856  0.00  0.00    +0.000 N 
ATOM     16  C   UNL     1      -6.270  53.623  52.476  0.00  0.00    +0.000 A 
ATOM     17  C   UNL     1      -8.616  55.007  51.566  0.00  0.00    +0.000 C 
ATOM     18  C   UNL     1      -6.458  53.936  51.126  0.00  0.00    +0.000 A 
ATOM     19  C   UNL     1      -5.104  53.024  52.977  0.00  0.00    +0.000 A 
ATOM     20  N   UNL     1      -7.632  54.576  50.702  0.00  0.00    +0.000 N 
ATOM     21  C   UNL     1      -5.385  53.646  50.278  0.00  0.00    +0.000 A 
ATOM     22  C   UNL     1      -4.066  52.739  52.109  0.00  0.00    +0.000 A 
ATOM     23  C   UNL     1      -4.201  53.055  50.758  0.00  0.00    +0.000 A 
ATOM     24  H   UNL     1      -9.356  55.284  53.375  0.00  0.00    +0.000 HD
ATOM     25  H   UNL     1      -7.760  54.725  49.737  0.00  0.00    +0.000 HD
BRANCH  21  26
ATOM     26  O   UNL     1      -5.377  53.919  48.937  0.00  0.00    +0.000 OA
ATOM     27  H   UNL     1      -5.210  54.790  48.637  0.00  0.00    +0.000 HD
ENDBRANCH  21  26
ENDBRANCH   1  17
BRANCH   3  28
ATOM     28  O   UNL     1     -11.334  54.394  52.557  0.00  0.00    +0.000 OA
ATOM     29  H   UNL     1     -11.057  53.502  52.499  0.00  0.00    +0.000 HD
ENDBRANCH   3  28
BRANCH   5  30
ATOM     30  C   UNL     1     -10.176  54.442  48.486  0.00  0.00    +0.000 C 
BRANCH  30  31
ATOM     31  C   UNL     1      -9.557  54.153  47.145  0.00  0.00    +0.000 A 
ATOM     32  C   UNL     1     -10.190  53.402  46.155  0.00  0.00    +0.000 A 
ATOM     33  C   UNL     1      -8.357  54.823  46.820  0.00  0.00    +0.000 A 
ATOM     34  C   UNL     1      -9.614  53.285  44.885  0.00  0.00    +0.000 A 
ATOM     35  C   UNL     1      -7.782  54.704  45.556  0.00  0.00    +0.000 A 
ATOM     36  C   UNL     1      -8.408  53.926  44.589  0.00  0.00    +0.000 A 
ENDBRANCH  30  31
ENDBRANCH   5  30
TORSDOF 5
ENDMDL
MODEL 8
REMARK VINA RESULT:      -8.1      3.071      7.142
REMARK  Name = 352866
REMARK  5 active torsions:
REMARK  status: ('A' for Active; 'I' for Inactive)
REMARK    1  A    between atoms: C_6  and  C_10
REMARK    2  A    between atoms: C_11  and  O_15
REMARK    3  A    between atoms: C_14  and  O_19
REMARK    4  A    between atoms: N_18  and  C_22
REMARK    5  A    between atoms: C_22  and  C_25
REMARK                            x       y       z     vdW  Elec       q    Type
REMARK                         _______ _______ _______ _____ _____    ______ ____
ROOT
ATOM      1  C   UNL     1     -12.015  54.148  47.783  0.00  0.00    +0.000 A 
ATOM      2  C   UNL     1     -12.117  53.372  49.053  0.00  0.00    +0.000 A 
ATOM      3  C   UNL     1     -12.517  55.399  47.828  0.00  0.00    +0.000 A 
ATOM      4  O   UNL     1     -12.386  52.176  49.044  0.00  0.00    +0.000 OA
ATOM      5  N   UNL     1     -11.757  54.140  50.185  0.00  0.00    +0.000 N 
ATOM      6  C   UNL     1     -13.137  55.833  49.082  0.00  0.00    +0.000 A 
ATOM      7  C   UNL     1     -12.654  55.271  50.287  0.00  0.00    +0.000 A 
ATOM      8  C   UNL     1     -14.209  56.718  49.121  0.00  0.00    +0.000 A 
ATOM      9  N   UNL     1     -13.214  55.538  51.484  0.00  0.00    +0.000 NA
ATOM     10  C   UNL     1     -14.829  56.955  50.340  0.00  0.00    +0.000 A 
ATOM     11  C   UNL     1     -14.300  56.355  51.476  0.00  0.00    +0.000 A 
ENDROOT
BRANCH   1  17
ATOM     12  S   UNL     1      -8.598  53.945  46.069  0.00  0.00    +0.000 S 
ATOM     13  O   UNL     1      -8.143  55.131  45.373  0.00  0.00    +0.000 OA
ATOM     14  O   UNL     1      -7.715  53.226  46.967  0.00  0.00    +0.000 OA
ATOM     15  N   UNL     1      -9.905  54.359  46.894  0.00  0.00    +0.000 N 
ATOM     16  C   UNL     1      -9.090  52.803  44.845  0.00  0.00    +0.000 A 
ATOM     17  C   UNL     1     -11.032  53.731  46.747  0.00  0.00    +0.000 C 
ATOM     18  C   UNL     1     -10.396  52.301  44.864  0.00  0.00    +0.000 A 
ATOM     19  C   UNL     1      -8.135  52.442  43.883  0.00  0.00    +0.000 A 
ATOM     20  N   UNL     1     -11.313  52.741  45.830  0.00  0.00    +0.000 N 
ATOM     21  C   UNL     1     -10.724  51.420  43.829  0.00  0.00    +0.000 A 
ATOM     22  C   UNL     1      -8.489  51.558  42.880  0.00  0.00    +0.000 A 
ATOM     23  C   UNL     1      -9.787  51.050  42.846  0.00  0.00    +0.000 A 
ATOM     24  H   UNL     1      -9.854  55.109  47.528  0.00  0.00    +0.000 HD
ATOM     25  H   UNL     1     -12.203  52.321  45.854  0.00  0.00    +0.000 HD
BRANCH  21  26
ATOM     26  O   UNL     1     -11.963  50.862  43.667  0.00  0.00    +0.000 OA
ATOM     27  H   UNL     1     -12.628  51.001  44.312  0.00  0.00    +0.000 HD
ENDBRANCH  21  26
ENDBRANCH   1  17
BRANCH   3  28
ATOM     28  O   UNL     1     -12.350  56.375  46.870  0.00  0.00    +0.000 OA
ATOM     29  H   UNL     1     -12.224  56.136  45.974  0.00  0.00    +0.000 HD
ENDBRANCH   3  28
BRANCH   5  30
ATOM     30  C   UNL     1     -10.325  54.509  50.085  0.00  0.00    +0.000 C 
BRANCH  30  31
ATOM     31  C   UNL     1      -9.537  54.922  51.298  0.00  0.00    +0.000 A 
ATOM     32  C   UNL     1      -9.850  54.506  52.593  0.00  0.00    +0.000 A 
ATOM     33  C   UNL     1      -8.326  55.616  51.087  0.00  0.00    +0.000 A 
ATOM     34  C   UNL     1      -8.996  54.819  53.656  0.00  0.00    +0.000 A 
ATOM     35  C   UNL     1      -7.477  55.930  52.149  0.00  0.00    +0.000 A 
ATOM     36  C   UNL     1      -7.819  55.537  53.437  0.00  0.00    +0.000 A 
ENDBRANCH  30  31
ENDBRANCH   5  30
TORSDOF 5
ENDMDL
MODEL 9
REMARK VINA RESULT:      -8.0      2.006      2.447
REMARK  Name = 352866
REMARK  5 active torsions:
REMARK  status: ('A' for Active; 'I' for Inactive)
REMARK    1  A    between atoms: C_6  and  C_10
REMARK    2  A    between atoms: C_11  and  O_15
REMARK    3  A    between atoms: C_14  and  O_19
REMARK    4  A    between atoms: N_18  and  C_22
REMARK    5  A    between atoms: C_22  and  C_25
REMARK                            x       y       z     vdW  Elec       q    Type
REMARK                         _______ _______ _______ _____ _____    ______ ____
ROOT
ATOM      1  C   UNL     1     -10.016  55.640  51.016  0.00  0.00    +0.000 A 
ATOM      2  C   UNL     1     -10.014  56.396  49.730  0.00  0.00    +0.000 A 
ATOM      3  C   UNL     1     -11.233  55.291  51.479  0.00  0.00    +0.000 A 
ATOM      4  O   UNL     1      -9.233  57.321  49.542  0.00  0.00    +0.000 OA
ATOM      5  N   UNL     1     -10.901  55.842  48.777  0.00  0.00    +0.000 N 
ATOM      6  C   UNL     1     -12.400  55.725  50.707  0.00  0.00    +0.000 A 
ATOM      7  C   UNL     1     -12.245  55.884  49.309  0.00  0.00    +0.000 A 
ATOM      8  C   UNL     1     -13.617  56.041  51.301  0.00  0.00    +0.000 A 
ATOM      9  N   UNL     1     -13.231  56.362  48.523  0.00  0.00    +0.000 NA
ATOM     10  C   UNL     1     -14.619  56.586  50.510  0.00  0.00    +0.000 A 
ATOM     11  C   UNL     1     -14.383  56.720  49.147  0.00  0.00    +0.000 A 
ENDROOT
BRANCH   1  17
ATOM     12  S   UNL     1      -7.655  53.916  53.488  0.00  0.00    +0.000 S 
ATOM     13  O   UNL     1      -6.986  54.763  54.453  0.00  0.00    +0.000 OA
ATOM     14  O   UNL     1      -8.299  52.684  53.900  0.00  0.00    +0.000 OA
ATOM     15  N   UNL     1      -8.752  54.820  52.753  0.00  0.00    +0.000 N 
ATOM     16  C   UNL     1      -6.460  53.470  52.297  0.00  0.00    +0.000 A 
ATOM     17  C   UNL     1      -8.777  54.948  51.461  0.00  0.00    +0.000 C 
ATOM     18  C   UNL     1      -6.692  53.769  50.950  0.00  0.00    +0.000 A 
ATOM     19  C   UNL     1      -5.303  52.826  52.760  0.00  0.00    +0.000 A 
ATOM     20  N   UNL     1      -7.852  54.456  50.564  0.00  0.00    +0.000 N 
ATOM     21  C   UNL     1      -5.671  53.413  50.064  0.00  0.00    +0.000 A 
ATOM     22  C   UNL     1      -4.318  52.476  51.854  0.00  0.00    +0.000 A 
ATOM     23  C   UNL     1      -4.496  52.776  50.504  0.00  0.00    +0.000 A 
ATOM     24  H   UNL     1      -9.424  55.292  53.293  0.00  0.00    +0.000 HD
ATOM     25  H   UNL     1      -8.014  54.594  49.602  0.00  0.00    +0.000 HD
BRANCH  21  26
ATOM     26  O   UNL     1      -5.709  53.662  48.718  0.00  0.00    +0.000 OA
ATOM     27  H   UNL     1      -6.361  53.255  48.185  0.00  0.00    +0.000 HD
ENDBRANCH  21  26
ENDBRANCH   1  17
BRANCH   3  28
ATOM     28  O   UNL     1     -11.489  54.417  52.513  0.00  0.00    +0.000 OA
ATOM     29  H   UNL     1     -10.890  54.351  53.229  0.00  0.00    +0.000 HD
ENDBRANCH   3  28
BRANCH   5  30
ATOM     30  C   UNL     1     -10.433  54.483  48.414  0.00  0.00    +0.000 C 
BRANCH  30  31
ATOM     31  C   UNL     1     -10.328  54.050  46.976  0.00  0.00    +0.000 A 
ATOM     32  C   UNL     1      -9.155  53.548  46.411  0.00  0.00    +0.000 A 
ATOM     33  C   UNL     1     -11.520  53.988  46.223  0.00  0.00    +0.000 A 
ATOM     34  C   UNL     1      -9.165  53.041  45.108  0.00  0.00    +0.000 A 
ATOM     35  C   UNL     1     -11.529  53.484  44.922  0.00  0.00    +0.000 A 
ATOM     36  C   UNL     1     -10.346  53.018  44.361  0.00  0.00    +0.000 A 
ENDBRANCH  30  31
ENDBRANCH   5  30
TORSDOF 5
ENDMDL
