MODEL 1
REMARK VINA RESULT:      -7.7      0.000      0.000
REMARK  Name = 350570
REMARK  10 active torsions:
REMARK  status: ('A' for Active; 'I' for Inactive)
REMARK    1  A    between atoms: C_6  and  C_10
REMARK    2  A    between atoms: C_12  and  N_16
REMARK    3  A    between atoms: C_14  and  O_19
REMARK    4  A    between atoms: N_16  and  S_21
REMARK    5  A    between atoms: N_18  and  C_23
REMARK    6  A    between atoms: S_21  and  C_27
REMARK    7  A    between atoms: C_23  and  C_29
REMARK    8  A    between atoms: C_29  and  C_32
REMARK    9  A    between atoms: C_32  and  C_33
REMARK   10  A    between atoms: C_32  and  C_34
REMARK                            x       y       z     vdW  Elec       q    Type
REMARK                         _______ _______ _______ _____ _____    ______ ____
ROOT
ATOM      1  S   UNL     1     -10.556  54.865  49.231  0.00  0.00    +0.000 S 
ATOM      2  O   UNL     1     -11.294  53.937  48.399  0.00  0.00    +0.000 OA
ATOM      3  O   UNL     1      -9.578  55.757  48.640  0.00  0.00    +0.000 OA
ATOM      4  N   UNL     1      -9.827  54.020  50.399  0.00  0.00    +0.000 N 
ATOM      5  C   UNL     1     -11.754  55.904  49.975  0.00  0.00    +0.000 A 
ATOM      6  C   UNL     1     -10.229  54.087  51.636  0.00  0.00    +0.000 C 
ATOM      7  C   UNL     1     -11.987  55.759  51.336  0.00  0.00    +0.000 A 
ATOM      8  C   UNL     1     -12.440  56.833  49.190  0.00  0.00    +0.000 A 
ATOM      9  N   UNL     1     -11.305  54.811  52.092  0.00  0.00    +0.000 N 
ATOM     10  C   UNL     1     -12.993  56.533  51.917  0.00  0.00    +0.000 A 
ATOM     11  C   UNL     1     -13.433  57.593  49.789  0.00  0.00    +0.000 A 
ATOM     12  C   UNL     1     -13.712  57.448  51.148  0.00  0.00    +0.000 A 
ATOM     13  H   UNL     1      -9.063  53.442  50.172  0.00  0.00    +0.000 HD
ATOM     14  H   UNL     1     -11.613  54.650  53.013  0.00  0.00    +0.000 HD
ENDROOT
BRANCH   6  15
ATOM     15  C   UNL     1      -9.403  53.316  52.642  0.00  0.00    +0.000 A 
ATOM     16  C   UNL     1      -7.909  53.358  52.557  0.00  0.00    +0.000 A 
ATOM     17  C   UNL     1      -9.998  52.602  53.615  0.00  0.00    +0.000 A 
ATOM     18  O   UNL     1      -7.388  54.104  51.723  0.00  0.00    +0.000 OA
ATOM     19  N   UNL     1      -7.180  52.565  53.418  0.00  0.00    +0.000 N 
ATOM     20  C   UNL     1      -9.194  51.788  54.527  0.00  0.00    +0.000 A 
ATOM     21  C   UNL     1      -7.803  51.752  54.399  0.00  0.00    +0.000 A 
ATOM     22  C   UNL     1      -9.784  50.985  55.510  0.00  0.00    +0.000 A 
ATOM     23  N   UNL     1      -7.019  50.968  55.179  0.00  0.00    +0.000 NA
ATOM     24  C   UNL     1      -8.992  50.173  56.310  0.00  0.00    +0.000 A 
ATOM     25  C   UNL     1      -7.627  50.197  56.106  0.00  0.00    +0.000 A 
BRANCH  17  26
ATOM     26  O   UNL     1     -11.364  52.534  53.824  0.00  0.00    +0.000 OA
ATOM     27  H   UNL     1     -11.844  53.310  54.039  0.00  0.00    +0.000 HD
ENDBRANCH  17  26
BRANCH  19  28
ATOM     28  C   UNL     1      -5.718  52.514  53.295  0.00  0.00    +0.000 C 
BRANCH  28  29
ATOM     29  C   UNL     1      -5.029  53.414  54.329  0.00  0.00    +0.000 C 
BRANCH  29  30
ATOM     30  C   UNL     1      -3.795  54.167  53.796  0.00  0.00    +0.000 C 
ATOM     31  C   UNL     1      -3.731  54.194  52.268  0.00  0.00    +0.000 C 
ATOM     32  C   UNL     1      -3.802  55.604  54.330  0.00  0.00    +0.000 C 
ENDBRANCH  29  30
ENDBRANCH  28  29
ENDBRANCH  19  28
ENDBRANCH   6  15
BRANCH  11  33
ATOM     33  N   UNL     1     -14.203  58.494  49.026  0.00  0.00    +0.000 N 
ATOM     34  H   UNL     1     -14.674  58.184  48.220  0.00  0.00    +0.000 HD
BRANCH  33  35
ATOM     35  S   UNL     1     -14.308  60.099  49.503  0.00  0.00    +0.000 S 
ATOM     36  O   UNL     1     -13.032  60.536  50.021  0.00  0.00    +0.000 OA
ATOM     37  O   UNL     1     -14.962  60.791  48.415  0.00  0.00    +0.000 OA
ATOM     38  C   UNL     1     -15.478  60.012  50.844  0.00  0.00    +0.000 C 
ENDBRANCH  33  35
ENDBRANCH  11  33
TORSDOF 7
ENDMDL
MODEL 2
REMARK VINA RESULT:      -7.4      2.720      3.354
REMARK  Name = 350570
REMARK  10 active torsions:
REMARK  status: ('A' for Active; 'I' for Inactive)
REMARK    1  A    between atoms: C_6  and  C_10
REMARK    2  A    between atoms: C_12  and  N_16
REMARK    3  A    between atoms: C_14  and  O_19
REMARK    4  A    between atoms: N_16  and  S_21
REMARK    5  A    between atoms: N_18  and  C_23
REMARK    6  A    between atoms: S_21  and  C_27
REMARK    7  A    between atoms: C_23  and  C_29
REMARK    8  A    between atoms: C_29  and  C_32
REMARK    9  A    between atoms: C_32  and  C_33
REMARK   10  A    between atoms: C_32  and  C_34
REMARK                            x       y       z     vdW  Elec       q    Type
REMARK                         _______ _______ _______ _____ _____    ______ ____
ROOT
ATOM      1  S   UNL     1     -11.266  54.661  48.262  0.00  0.00    +0.000 S 
ATOM      2  O   UNL     1     -12.241  53.684  47.823  0.00  0.00    +0.000 OA
ATOM      3  O   UNL     1     -10.897  55.764  47.398  0.00  0.00    +0.000 OA
ATOM      4  N   UNL     1      -9.918  53.871  48.676  0.00  0.00    +0.000 N 
ATOM      5  C   UNL     1     -11.934  55.394  49.706  0.00  0.00    +0.000 A 
ATOM      6  C   UNL     1      -9.553  53.759  49.920  0.00  0.00    +0.000 C 
ATOM      7  C   UNL     1     -11.338  55.095  50.924  0.00  0.00    +0.000 A 
ATOM      8  C   UNL     1     -13.038  56.241  49.599  0.00  0.00    +0.000 A 
ATOM      9  N   UNL     1     -10.251  54.231  51.007  0.00  0.00    +0.000 N 
ATOM     10  C   UNL     1     -11.912  55.617  52.084  0.00  0.00    +0.000 A 
ATOM     11  C   UNL     1     -13.591  56.750  50.763  0.00  0.00    +0.000 A 
ATOM     12  C   UNL     1     -13.033  56.444  52.004  0.00  0.00    +0.000 A 
ATOM     13  H   UNL     1      -9.361  53.466  47.971  0.00  0.00    +0.000 HD
ATOM     14  H   UNL     1      -9.963  53.939  51.902  0.00  0.00    +0.000 HD
ENDROOT
BRANCH   6  15
ATOM     15  C   UNL     1      -8.225  53.074  50.160  0.00  0.00    +0.000 A 
ATOM     16  C   UNL     1      -7.098  53.845  50.774  0.00  0.00    +0.000 A 
ATOM     17  C   UNL     1      -8.053  51.780  49.835  0.00  0.00    +0.000 A 
ATOM     18  O   UNL     1      -7.315  54.997  51.160  0.00  0.00    +0.000 OA
ATOM     19  N   UNL     1      -5.868  53.232  50.887  0.00  0.00    +0.000 N 
ATOM     20  C   UNL     1      -6.740  51.152  49.988  0.00  0.00    +0.000 A 
ATOM     21  C   UNL     1      -5.658  51.890  50.477  0.00  0.00    +0.000 A 
ATOM     22  C   UNL     1      -6.510  49.827  49.601  0.00  0.00    +0.000 A 
ATOM     23  N   UNL     1      -4.410  51.372  50.580  0.00  0.00    +0.000 NA
ATOM     24  C   UNL     1      -5.234  49.288  49.695  0.00  0.00    +0.000 A 
ATOM     25  C   UNL     1      -4.225  50.094  50.183  0.00  0.00    +0.000 A 
BRANCH  17  26
ATOM     26  O   UNL     1      -9.036  50.956  49.316  0.00  0.00    +0.000 OA
ATOM     27  H   UNL     1      -9.514  51.221  48.554  0.00  0.00    +0.000 HD
ENDBRANCH  17  26
BRANCH  19  28
ATOM     28  C   UNL     1      -4.722  53.992  51.396  0.00  0.00    +0.000 C 
BRANCH  28  29
ATOM     29  C   UNL     1      -4.511  53.764  52.899  0.00  0.00    +0.000 C 
BRANCH  29  30
ATOM     30  C   UNL     1      -4.956  54.940  53.790  0.00  0.00    +0.000 C 
ATOM     31  C   UNL     1      -5.993  54.531  54.837  0.00  0.00    +0.000 C 
ATOM     32  C   UNL     1      -3.733  55.540  54.494  0.00  0.00    +0.000 C 
ENDBRANCH  29  30
ENDBRANCH  28  29
ENDBRANCH  19  28
ENDBRANCH   6  15
BRANCH  11  33
ATOM     33  N   UNL     1     -14.749  57.553  50.715  0.00  0.00    +0.000 N 
ATOM     34  H   UNL     1     -15.621  57.153  50.498  0.00  0.00    +0.000 HD
BRANCH  33  35
ATOM     35  S   UNL     1     -14.627  59.197  51.029  0.00  0.00    +0.000 S 
ATOM     36  O   UNL     1     -15.856  59.856  50.648  0.00  0.00    +0.000 OA
ATOM     37  O   UNL     1     -14.094  59.304  52.368  0.00  0.00    +0.000 OA
ATOM     38  C   UNL     1     -13.333  59.694  49.910  0.00  0.00    +0.000 C 
ENDBRANCH  33  35
ENDBRANCH  11  33
TORSDOF 7
ENDMDL
MODEL 3
REMARK VINA RESULT:      -7.0      4.316      5.896
REMARK  Name = 350570
REMARK  10 active torsions:
REMARK  status: ('A' for Active; 'I' for Inactive)
REMARK    1  A    between atoms: C_6  and  C_10
REMARK    2  A    between atoms: C_12  and  N_16
REMARK    3  A    between atoms: C_14  and  O_19
REMARK    4  A    between atoms: N_16  and  S_21
REMARK    5  A    between atoms: N_18  and  C_23
REMARK    6  A    between atoms: S_21  and  C_27
REMARK    7  A    between atoms: C_23  and  C_29
REMARK    8  A    between atoms: C_29  and  C_32
REMARK    9  A    between atoms: C_32  and  C_33
REMARK   10  A    between atoms: C_32  and  C_34
REMARK                            x       y       z     vdW  Elec       q    Type
REMARK                         _______ _______ _______ _____ _____    ______ ____
ROOT
ATOM      1  S   UNL     1     -11.462  54.437  50.665  0.00  0.00    +0.000 S 
ATOM      2  O   UNL     1     -10.603  55.313  51.436  0.00  0.00    +0.000 OA
ATOM      3  O   UNL     1     -12.361  53.521  51.337  0.00  0.00    +0.000 OA
ATOM      4  N   UNL     1     -10.531  53.584  49.658  0.00  0.00    +0.000 N 
ATOM      5  C   UNL     1     -12.486  55.487  49.706  0.00  0.00    +0.000 A 
ATOM      6  C   UNL     1     -10.535  53.809  48.376  0.00  0.00    +0.000 C 
ATOM      7  C   UNL     1     -12.266  55.535  48.337  0.00  0.00    +0.000 A 
ATOM      8  C   UNL     1     -13.475  56.243  50.336  0.00  0.00    +0.000 A 
ATOM      9  N   UNL     1     -11.259  54.787  47.735  0.00  0.00    +0.000 N 
ATOM     10  C   UNL     1     -13.030  56.425  47.579  0.00  0.00    +0.000 A 
ATOM     11  C   UNL     1     -14.224  57.118  49.564  0.00  0.00    +0.000 A 
ATOM     12  C   UNL     1     -14.007  57.212  48.190  0.00  0.00    +0.000 A 
ATOM     13  H   UNL     1      -9.948  52.877  50.021  0.00  0.00    +0.000 HD
ATOM     14  H   UNL     1     -11.051  54.971  46.791  0.00  0.00    +0.000 HD
ENDROOT
BRANCH   6  15
ATOM     15  C   UNL     1      -9.686  52.878  47.538  0.00  0.00    +0.000 A 
ATOM     16  C   UNL     1      -8.272  52.603  47.945  0.00  0.00    +0.000 A 
ATOM     17  C   UNL     1     -10.192  52.292  46.438  0.00  0.00    +0.000 A 
ATOM     18  O   UNL     1      -7.866  53.068  49.014  0.00  0.00    +0.000 OA
ATOM     19  N   UNL     1      -7.486  51.836  47.111  0.00  0.00    +0.000 N 
ATOM     20  C   UNL     1      -9.337  51.466  45.585  0.00  0.00    +0.000 A 
ATOM     21  C   UNL     1      -7.991  51.275  45.910  0.00  0.00    +0.000 A 
ATOM     22  C   UNL     1      -9.815  50.892  44.401  0.00  0.00    +0.000 A 
ATOM     23  N   UNL     1      -7.145  50.570  45.122  0.00  0.00    +0.000 NA
ATOM     24  C   UNL     1      -8.955  50.174  43.582  0.00  0.00    +0.000 A 
ATOM     25  C   UNL     1      -7.640  50.044  43.980  0.00  0.00    +0.000 A 
BRANCH  17  26
ATOM     26  O   UNL     1     -11.497  52.429  45.998  0.00  0.00    +0.000 OA
ATOM     27  H   UNL     1     -11.692  52.359  45.084  0.00  0.00    +0.000 HD
ENDBRANCH  17  26
BRANCH  19  28
ATOM     28  C   UNL     1      -6.070  51.628  47.436  0.00  0.00    +0.000 C 
BRANCH  28  29
ATOM     29  C   UNL     1      -5.246  52.905  47.229  0.00  0.00    +0.000 C 
BRANCH  29  30
ATOM     30  C   UNL     1      -4.374  53.303  48.436  0.00  0.00    +0.000 C 
ATOM     31  C   UNL     1      -4.823  54.612  49.086  0.00  0.00    +0.000 C 
ATOM     32  C   UNL     1      -4.401  52.181  49.480  0.00  0.00    +0.000 C 
ENDBRANCH  29  30
ENDBRANCH  28  29
ENDBRANCH  19  28
ENDBRANCH   6  15
BRANCH  11  33
ATOM     33  N   UNL     1     -15.188  57.955  50.162  0.00  0.00    +0.000 N 
ATOM     34  H   UNL     1     -16.126  57.665  50.223  0.00  0.00    +0.000 HD
BRANCH  33  35
ATOM     35  S   UNL     1     -14.723  59.449  50.766  0.00  0.00    +0.000 S 
ATOM     36  O   UNL     1     -13.425  59.804  50.238  0.00  0.00    +0.000 OA
ATOM     37  O   UNL     1     -15.869  60.314  50.604  0.00  0.00    +0.000 OA
ATOM     38  C   UNL     1     -14.566  59.112  52.509  0.00  0.00    +0.000 C 
ENDBRANCH  33  35
ENDBRANCH  11  33
TORSDOF 7
ENDMDL
MODEL 4
REMARK VINA RESULT:      -7.0      4.369      6.291
REMARK  Name = 350570
REMARK  10 active torsions:
REMARK  status: ('A' for Active; 'I' for Inactive)
REMARK    1  A    between atoms: C_6  and  C_10
REMARK    2  A    between atoms: C_12  and  N_16
REMARK    3  A    between atoms: C_14  and  O_19
REMARK    4  A    between atoms: N_16  and  S_21
REMARK    5  A    between atoms: N_18  and  C_23
REMARK    6  A    between atoms: S_21  and  C_27
REMARK    7  A    between atoms: C_23  and  C_29
REMARK    8  A    between atoms: C_29  and  C_32
REMARK    9  A    between atoms: C_32  and  C_33
REMARK   10  A    between atoms: C_32  and  C_34
REMARK                            x       y       z     vdW  Elec       q    Type
REMARK                         _______ _______ _______ _____ _____    ______ ____
ROOT
ATOM      1  S   UNL     1     -10.977  54.506  51.227  0.00  0.00    +0.000 S 
ATOM      2  O   UNL     1     -10.289  55.460  52.072  0.00  0.00    +0.000 OA
ATOM      3  O   UNL     1     -11.889  53.540  51.808  0.00  0.00    +0.000 OA
ATOM      4  N   UNL     1      -9.866  53.701  50.373  0.00  0.00    +0.000 N 
ATOM      5  C   UNL     1     -11.940  55.455  50.113  0.00  0.00    +0.000 A 
ATOM      6  C   UNL     1      -9.721  53.897  49.095  0.00  0.00    +0.000 C 
ATOM      7  C   UNL     1     -11.550  55.489  48.781  0.00  0.00    +0.000 A 
ATOM      8  C   UNL     1     -13.054  56.149  50.588  0.00  0.00    +0.000 A 
ATOM      9  N   UNL     1     -10.423  54.805  48.337  0.00  0.00    +0.000 N 
ATOM     10  C   UNL     1     -12.271  56.303  47.905  0.00  0.00    +0.000 A 
ATOM     11  C   UNL     1     -13.757  56.949  49.699  0.00  0.00    +0.000 A 
ATOM     12  C   UNL     1     -13.371  57.028  48.362  0.00  0.00    +0.000 A 
ATOM     13  H   UNL     1      -9.287  53.048  50.830  0.00  0.00    +0.000 HD
ATOM     14  H   UNL     1     -10.109  54.982  47.421  0.00  0.00    +0.000 HD
ENDROOT
BRANCH   6  15
ATOM     15  C   UNL     1      -8.707  53.014  48.401  0.00  0.00    +0.000 A 
ATOM     16  C   UNL     1      -9.130  52.186  47.228  0.00  0.00    +0.000 A 
ATOM     17  C   UNL     1      -7.430  52.972  48.825  0.00  0.00    +0.000 A 
ATOM     18  O   UNL     1     -10.278  52.323  46.794  0.00  0.00    +0.000 OA
ATOM     19  N   UNL     1      -8.217  51.311  46.678  0.00  0.00    +0.000 N 
ATOM     20  C   UNL     1      -6.480  52.048  48.205  0.00  0.00    +0.000 A 
ATOM     21  C   UNL     1      -6.889  51.207  47.167  0.00  0.00    +0.000 A 
ATOM     22  C   UNL     1      -5.162  51.935  48.661  0.00  0.00    +0.000 A 
ATOM     23  N   UNL     1      -6.065  50.292  46.602  0.00  0.00    +0.000 NA
ATOM     24  C   UNL     1      -4.310  50.996  48.096  0.00  0.00    +0.000 A 
ATOM     25  C   UNL     1      -4.804  50.203  47.080  0.00  0.00    +0.000 A 
BRANCH  17  26
ATOM     26  O   UNL     1      -6.915  53.732  49.859  0.00  0.00    +0.000 OA
ATOM     27  H   UNL     1      -6.904  53.389  50.732  0.00  0.00    +0.000 HD
ENDBRANCH  17  26
BRANCH  19  28
ATOM     28  C   UNL     1      -8.631  50.419  45.589  0.00  0.00    +0.000 C 
BRANCH  28  29
ATOM     29  C   UNL     1      -8.003  50.828  44.250  0.00  0.00    +0.000 C 
BRANCH  29  30
ATOM     30  C   UNL     1      -8.933  51.646  43.334  0.00  0.00    +0.000 C 
ATOM     31  C   UNL     1     -10.408  51.283  43.510  0.00  0.00    +0.000 C 
ATOM     32  C   UNL     1      -8.741  53.141  43.613  0.00  0.00    +0.000 C 
ENDBRANCH  29  30
ENDBRANCH  28  29
ENDBRANCH  19  28
ENDBRANCH   6  15
BRANCH  11  33
ATOM     33  N   UNL     1     -14.846  57.725  50.143  0.00  0.00    +0.000 N 
ATOM     34  H   UNL     1     -15.760  57.360  50.115  0.00  0.00    +0.000 HD
BRANCH  33  35
ATOM     35  S   UNL     1     -14.574  59.277  50.720  0.00  0.00    +0.000 S 
ATOM     36  O   UNL     1     -13.328  59.781  50.188  0.00  0.00    +0.000 OA
ATOM     37  O   UNL     1     -15.819  59.990  50.537  0.00  0.00    +0.000 OA
ATOM     38  C   UNL     1     -14.386  58.996  52.468  0.00  0.00    +0.000 C 
ENDBRANCH  33  35
ENDBRANCH  11  33
TORSDOF 7
ENDMDL
MODEL 5
REMARK VINA RESULT:      -6.9      3.520      9.336
REMARK  Name = 350570
REMARK  10 active torsions:
REMARK  status: ('A' for Active; 'I' for Inactive)
REMARK    1  A    between atoms: C_6  and  C_10
REMARK    2  A    between atoms: C_12  and  N_16
REMARK    3  A    between atoms: C_14  and  O_19
REMARK    4  A    between atoms: N_16  and  S_21
REMARK    5  A    between atoms: N_18  and  C_23
REMARK    6  A    between atoms: S_21  and  C_27
REMARK    7  A    between atoms: C_23  and  C_29
REMARK    8  A    between atoms: C_29  and  C_32
REMARK    9  A    between atoms: C_32  and  C_33
REMARK   10  A    between atoms: C_32  and  C_34
REMARK                            x       y       z     vdW  Elec       q    Type
REMARK                         _______ _______ _______ _____ _____    ______ ____
ROOT
ATOM      1  S   UNL     1      -8.118  55.222  52.972  0.00  0.00    +0.000 S 
ATOM      2  O   UNL     1      -8.730  55.379  54.276  0.00  0.00    +0.000 OA
ATOM      3  O   UNL     1      -6.889  55.919  52.653  0.00  0.00    +0.000 OA
ATOM      4  N   UNL     1      -9.220  55.604  51.853  0.00  0.00    +0.000 N 
ATOM      5  C   UNL     1      -7.749  53.517  52.814  0.00  0.00    +0.000 A 
ATOM      6  C   UNL     1      -9.764  54.693  51.099  0.00  0.00    +0.000 C 
ATOM      7  C   UNL     1      -8.501  52.768  51.920  0.00  0.00    +0.000 A 
ATOM      8  C   UNL     1      -6.729  52.961  53.588  0.00  0.00    +0.000 A 
ATOM      9  N   UNL     1      -9.527  53.341  51.175  0.00  0.00    +0.000 N 
ATOM     10  C   UNL     1      -8.260  51.394  51.846  0.00  0.00    +0.000 A 
ATOM     11  C   UNL     1      -6.505  51.596  53.496  0.00  0.00    +0.000 A 
ATOM     12  C   UNL     1      -7.264  50.811  52.629  0.00  0.00    +0.000 A 
ATOM     13  H   UNL     1      -9.485  56.546  51.739  0.00  0.00    +0.000 HD
ATOM     14  H   UNL     1     -10.121  52.740  50.671  0.00  0.00    +0.000 HD
ENDROOT
BRANCH   6  15
ATOM     15  C   UNL     1     -10.712  55.198  50.033  0.00  0.00    +0.000 A 
ATOM     16  C   UNL     1     -10.438  54.885  48.594  0.00  0.00    +0.000 A 
ATOM     17  C   UNL     1     -11.800  55.916  50.366  0.00  0.00    +0.000 A 
ATOM     18  O   UNL     1      -9.494  54.136  48.325  0.00  0.00    +0.000 OA
ATOM     19  N   UNL     1     -11.255  55.443  47.634  0.00  0.00    +0.000 N 
ATOM     20  C   UNL     1     -12.660  56.475  49.323  0.00  0.00    +0.000 A 
ATOM     21  C   UNL     1     -12.362  56.263  47.974  0.00  0.00    +0.000 A 
ATOM     22  C   UNL     1     -13.763  57.279  49.633  0.00  0.00    +0.000 A 
ATOM     23  N   UNL     1     -13.091  56.809  46.972  0.00  0.00    +0.000 NA
ATOM     24  C   UNL     1     -14.514  57.850  48.614  0.00  0.00    +0.000 A 
ATOM     25  C   UNL     1     -14.140  57.590  47.312  0.00  0.00    +0.000 A 
BRANCH  17  26
ATOM     26  O   UNL     1     -12.182  56.218  51.661  0.00  0.00    +0.000 OA
ATOM     27  H   UNL     1     -12.655  57.008  51.838  0.00  0.00    +0.000 HD
ENDBRANCH  17  26
BRANCH  19  28
ATOM     28  C   UNL     1     -10.955  55.231  46.213  0.00  0.00    +0.000 C 
BRANCH  28  29
ATOM     29  C   UNL     1     -11.761  54.063  45.630  0.00  0.00    +0.000 C 
BRANCH  29  30
ATOM     30  C   UNL     1     -10.950  52.768  45.428  0.00  0.00    +0.000 C 
ATOM     31  C   UNL     1     -11.834  51.556  45.130  0.00  0.00    +0.000 C 
ATOM     32  C   UNL     1      -9.953  52.963  44.280  0.00  0.00    +0.000 C 
ENDBRANCH  29  30
ENDBRANCH  28  29
ENDBRANCH  19  28
ENDBRANCH   6  15
BRANCH  11  33
ATOM     33  N   UNL     1      -5.534  50.973  54.307  0.00  0.00    +0.000 N 
ATOM     34  H   UNL     1      -5.789  50.583  55.174  0.00  0.00    +0.000 HD
BRANCH  33  35
ATOM     35  S   UNL     1      -3.942  50.904  53.784  0.00  0.00    +0.000 S 
ATOM     36  O   UNL     1      -3.410  52.243  53.671  0.00  0.00    +0.000 OA
ATOM     37  O   UNL     1      -3.301  49.901  54.604  0.00  0.00    +0.000 OA
ATOM     38  C   UNL     1      -4.118  50.211  52.152  0.00  0.00    +0.000 C 
ENDBRANCH  33  35
ENDBRANCH  11  33
TORSDOF 7
ENDMDL
MODEL 6
REMARK VINA RESULT:      -6.9      2.915      9.397
REMARK  Name = 350570
REMARK  10 active torsions:
REMARK  status: ('A' for Active; 'I' for Inactive)
REMARK    1  A    between atoms: C_6  and  C_10
REMARK    2  A    between atoms: C_12  and  N_16
REMARK    3  A    between atoms: C_14  and  O_19
REMARK    4  A    between atoms: N_16  and  S_21
REMARK    5  A    between atoms: N_18  and  C_23
REMARK    6  A    between atoms: S_21  and  C_27
REMARK    7  A    between atoms: C_23  and  C_29
REMARK    8  A    between atoms: C_29  and  C_32
REMARK    9  A    between atoms: C_32  and  C_33
REMARK   10  A    between atoms: C_32  and  C_34
REMARK                            x       y       z     vdW  Elec       q    Type
REMARK                         _______ _______ _______ _____ _____    ______ ____
ROOT
ATOM      1  S   UNL     1      -7.137  55.518  51.916  0.00  0.00    +0.000 S 
ATOM      2  O   UNL     1      -6.851  56.430  53.005  0.00  0.00    +0.000 OA
ATOM      3  O   UNL     1      -6.172  55.326  50.852  0.00  0.00    +0.000 OA
ATOM      4  N   UNL     1      -8.542  55.959  51.250  0.00  0.00    +0.000 N 
ATOM      5  C   UNL     1      -7.351  53.942  52.650  0.00  0.00    +0.000 A 
ATOM      6  C   UNL     1      -9.618  55.244  51.403  0.00  0.00    +0.000 C 
ATOM      7  C   UNL     1      -8.631  53.405  52.677  0.00  0.00    +0.000 A 
ATOM      8  C   UNL     1      -6.247  53.279  53.187  0.00  0.00    +0.000 A 
ATOM      9  N   UNL     1      -9.719  54.096  52.153  0.00  0.00    +0.000 N 
ATOM     10  C   UNL     1      -8.819  52.184  53.327  0.00  0.00    +0.000 A 
ATOM     11  C   UNL     1      -6.456  52.065  53.825  0.00  0.00    +0.000 A 
ATOM     12  C   UNL     1      -7.735  51.515  53.896  0.00  0.00    +0.000 A 
ATOM     13  H   UNL     1      -8.584  56.786  50.717  0.00  0.00    +0.000 HD
ATOM     14  H   UNL     1     -10.619  53.739  52.331  0.00  0.00    +0.000 HD
ENDROOT
BRANCH   6  15
ATOM     15  C   UNL     1     -10.842  55.722  50.652  0.00  0.00    +0.000 A 
ATOM     16  C   UNL     1     -12.121  55.949  51.396  0.00  0.00    +0.000 A 
ATOM     17  C   UNL     1     -10.787  55.953  49.328  0.00  0.00    +0.000 A 
ATOM     18  O   UNL     1     -12.117  55.832  52.624  0.00  0.00    +0.000 OA
ATOM     19  N   UNL     1     -13.249  56.283  50.675  0.00  0.00    +0.000 N 
ATOM     20  C   UNL     1     -11.997  56.328  48.596  0.00  0.00    +0.000 A 
ATOM     21  C   UNL     1     -13.216  56.455  49.267  0.00  0.00    +0.000 A 
ATOM     22  C   UNL     1     -11.989  56.514  47.209  0.00  0.00    +0.000 A 
ATOM     23  N   UNL     1     -14.375  56.741  48.626  0.00  0.00    +0.000 NA
ATOM     24  C   UNL     1     -13.171  56.800  46.540  0.00  0.00    +0.000 A 
ATOM     25  C   UNL     1     -14.328  56.899  47.286  0.00  0.00    +0.000 A 
BRANCH  17  26
ATOM     26  O   UNL     1      -9.649  55.831  48.550  0.00  0.00    +0.000 OA
ATOM     27  H   UNL     1      -8.802  55.893  48.946  0.00  0.00    +0.000 HD
ENDBRANCH  17  26
BRANCH  19  28
ATOM     28  C   UNL     1     -14.537  56.418  51.365  0.00  0.00    +0.000 C 
BRANCH  28  29
ATOM     29  C   UNL     1     -15.324  57.636  50.864  0.00  0.00    +0.000 C 
BRANCH  29  30
ATOM     30  C   UNL     1     -14.930  58.968  51.532  0.00  0.00    +0.000 C 
ATOM     31  C   UNL     1     -14.284  58.773  52.905  0.00  0.00    +0.000 C 
ATOM     32  C   UNL     1     -13.964  59.732  50.621  0.00  0.00    +0.000 C 
ENDBRANCH  29  30
ENDBRANCH  28  29
ENDBRANCH  19  28
ENDBRANCH   6  15
BRANCH  11  33
ATOM     33  N   UNL     1      -5.386  51.389  54.446  0.00  0.00    +0.000 N 
ATOM     34  H   UNL     1      -5.443  51.138  55.395  0.00  0.00    +0.000 HD
BRANCH  33  35
ATOM     35  S   UNL     1      -4.015  51.018  53.554  0.00  0.00    +0.000 S 
ATOM     36  O   UNL     1      -3.322  52.236  53.200  0.00  0.00    +0.000 OA
ATOM     37  O   UNL     1      -3.354  49.952  54.272  0.00  0.00    +0.000 OA
ATOM     38  C   UNL     1      -4.714  50.301  52.080  0.00  0.00    +0.000 C 
ENDBRANCH  33  35
ENDBRANCH  11  33
TORSDOF 7
ENDMDL
MODEL 7
REMARK VINA RESULT:      -6.7      3.248      9.409
REMARK  Name = 350570
REMARK  10 active torsions:
REMARK  status: ('A' for Active; 'I' for Inactive)
REMARK    1  A    between atoms: C_6  and  C_10
REMARK    2  A    between atoms: C_12  and  N_16
REMARK    3  A    between atoms: C_14  and  O_19
REMARK    4  A    between atoms: N_16  and  S_21
REMARK    5  A    between atoms: N_18  and  C_23
REMARK    6  A    between atoms: S_21  and  C_27
REMARK    7  A    between atoms: C_23  and  C_29
REMARK    8  A    between atoms: C_29  and  C_32
REMARK    9  A    between atoms: C_32  and  C_33
REMARK   10  A    between atoms: C_32  and  C_34
REMARK                            x       y       z     vdW  Elec       q    Type
REMARK                         _______ _______ _______ _____ _____    ______ ____
ROOT
ATOM      1  S   UNL     1      -9.294  51.397  50.921  0.00  0.00    +0.000 S 
ATOM      2  O   UNL     1      -8.466  50.949  49.820  0.00  0.00    +0.000 OA
ATOM      3  O   UNL     1     -10.088  50.445  51.672  0.00  0.00    +0.000 OA
ATOM      4  N   UNL     1     -10.281  52.551  50.368  0.00  0.00    +0.000 N 
ATOM      5  C   UNL     1      -8.202  52.123  52.082  0.00  0.00    +0.000 A 
ATOM      6  C   UNL     1     -10.120  53.798  50.703  0.00  0.00    +0.000 C 
ATOM      7  C   UNL     1      -8.243  53.501  52.240  0.00  0.00    +0.000 A 
ATOM      8  C   UNL     1      -7.326  51.309  52.802  0.00  0.00    +0.000 A 
ATOM      9  N   UNL     1      -9.111  54.293  51.495  0.00  0.00    +0.000 N 
ATOM     10  C   UNL     1      -7.323  54.091  53.110  0.00  0.00    +0.000 A 
ATOM     11  C   UNL     1      -6.423  51.916  53.662  0.00  0.00    +0.000 A 
ATOM     12  C   UNL     1      -6.419  53.302  53.820  0.00  0.00    +0.000 A 
ATOM     13  H   UNL     1     -11.020  52.305  49.765  0.00  0.00    +0.000 HD
ATOM     14  H   UNL     1      -8.995  55.269  51.539  0.00  0.00    +0.000 HD
ENDROOT
BRANCH   6  15
ATOM     15  C   UNL     1     -11.167  54.762  50.188  0.00  0.00    +0.000 A 
ATOM     16  C   UNL     1     -12.210  55.287  51.125  0.00  0.00    +0.000 A 
ATOM     17  C   UNL     1     -11.163  55.155  48.901  0.00  0.00    +0.000 A 
ATOM     18  O   UNL     1     -12.128  54.995  52.321  0.00  0.00    +0.000 OA
ATOM     19  N   UNL     1     -13.215  56.080  50.610  0.00  0.00    +0.000 N 
ATOM     20  C   UNL     1     -12.232  56.015  48.392  0.00  0.00    +0.000 A 
ATOM     21  C   UNL     1     -13.260  56.439  49.239  0.00  0.00    +0.000 A 
ATOM     22  C   UNL     1     -12.293  56.392  47.045  0.00  0.00    +0.000 A 
ATOM     23  N   UNL     1     -14.303  57.185  48.802  0.00  0.00    +0.000 NA
ATOM     24  C   UNL     1     -13.361  57.150  46.584  0.00  0.00    +0.000 A 
ATOM     25  C   UNL     1     -14.333  57.516  47.492  0.00  0.00    +0.000 A 
BRANCH  17  26
ATOM     26  O   UNL     1     -10.219  54.780  47.962  0.00  0.00    +0.000 OA
ATOM     27  H   UNL     1      -9.307  54.885  48.147  0.00  0.00    +0.000 HD
ENDBRANCH  17  26
BRANCH  19  28
ATOM     28  C   UNL     1     -14.303  56.531  51.485  0.00  0.00    +0.000 C 
BRANCH  28  29
ATOM     29  C   UNL     1     -13.811  57.547  52.525  0.00  0.00    +0.000 C 
BRANCH  29  30
ATOM     30  C   UNL     1     -14.426  58.952  52.383  0.00  0.00    +0.000 C 
ATOM     31  C   UNL     1     -15.146  59.152  51.048  0.00  0.00    +0.000 C 
ATOM     32  C   UNL     1     -15.409  59.200  53.532  0.00  0.00    +0.000 C 
ENDBRANCH  29  30
ENDBRANCH  28  29
ENDBRANCH  19  28
ENDBRANCH   6  15
BRANCH  11  33
ATOM     33  N   UNL     1      -5.471  51.146  54.360  0.00  0.00    +0.000 N 
ATOM     34  H   UNL     1      -5.706  50.724  55.217  0.00  0.00    +0.000 HD
BRANCH  33  35
ATOM     35  S   UNL     1      -3.933  50.956  53.718  0.00  0.00    +0.000 S 
ATOM     36  O   UNL     1      -3.320  52.252  53.535  0.00  0.00    +0.000 OA
ATOM     37  O   UNL     1      -3.300  49.924  54.508  0.00  0.00    +0.000 OA
ATOM     38  C   UNL     1      -4.282  50.250  52.120  0.00  0.00    +0.000 C 
ENDBRANCH  33  35
ENDBRANCH  11  33
TORSDOF 7
ENDMDL
MODEL 8
REMARK VINA RESULT:      -6.5      4.480      9.097
REMARK  Name = 350570
REMARK  10 active torsions:
REMARK  status: ('A' for Active; 'I' for Inactive)
REMARK    1  A    between atoms: C_6  and  C_10
REMARK    2  A    between atoms: C_12  and  N_16
REMARK    3  A    between atoms: C_14  and  O_19
REMARK    4  A    between atoms: N_16  and  S_21
REMARK    5  A    between atoms: N_18  and  C_23
REMARK    6  A    between atoms: S_21  and  C_27
REMARK    7  A    between atoms: C_23  and  C_29
REMARK    8  A    between atoms: C_29  and  C_32
REMARK    9  A    between atoms: C_32  and  C_33
REMARK   10  A    between atoms: C_32  and  C_34
REMARK                            x       y       z     vdW  Elec       q    Type
REMARK                         _______ _______ _______ _____ _____    ______ ____
ROOT
ATOM      1  S   UNL     1      -7.655  55.029  50.544  0.00  0.00    +0.000 S 
ATOM      2  O   UNL     1      -7.290  54.199  51.674  0.00  0.00    +0.000 OA
ATOM      3  O   UNL     1      -6.836  56.168  50.180  0.00  0.00    +0.000 OA
ATOM      4  N   UNL     1      -9.168  55.548  50.773  0.00  0.00    +0.000 N 
ATOM      5  C   UNL     1      -7.645  53.974  49.146  0.00  0.00    +0.000 A 
ATOM      6  C   UNL     1     -10.156  55.095  50.056  0.00  0.00    +0.000 C 
ATOM      7  C   UNL     1      -8.865  53.646  48.569  0.00  0.00    +0.000 A 
ATOM      8  C   UNL     1      -6.430  53.489  48.660  0.00  0.00    +0.000 A 
ATOM      9  N   UNL     1     -10.064  54.126  49.085  0.00  0.00    +0.000 N 
ATOM     10  C   UNL     1      -8.867  52.747  47.501  0.00  0.00    +0.000 A 
ATOM     11  C   UNL     1      -6.456  52.599  47.597  0.00  0.00    +0.000 A 
ATOM     12  C   UNL     1      -7.668  52.227  47.015  0.00  0.00    +0.000 A 
ATOM     13  H   UNL     1      -9.347  56.222  51.469  0.00  0.00    +0.000 HD
ATOM     14  H   UNL     1     -10.901  53.747  48.732  0.00  0.00    +0.000 HD
ENDROOT
BRANCH   6  15
ATOM     15  C   UNL     1     -11.505  55.732  50.312  0.00  0.00    +0.000 A 
ATOM     16  C   UNL     1     -12.355  56.149  49.153  0.00  0.00    +0.000 A 
ATOM     17  C   UNL     1     -11.948  55.917  51.569  0.00  0.00    +0.000 A 
ATOM     18  O   UNL     1     -11.973  55.872  48.013  0.00  0.00    +0.000 OA
ATOM     19  N   UNL     1     -13.531  56.821  49.410  0.00  0.00    +0.000 N 
ATOM     20  C   UNL     1     -13.212  56.614  51.807  0.00  0.00    +0.000 A 
ATOM     21  C   UNL     1     -13.970  57.087  50.733  0.00  0.00    +0.000 A 
ATOM     22  C   UNL     1     -13.672  56.879  53.102  0.00  0.00    +0.000 A 
ATOM     23  N   UNL     1     -15.116  57.790  50.903  0.00  0.00    +0.000 NA
ATOM     24  C   UNL     1     -14.840  57.605  53.289  0.00  0.00    +0.000 A 
ATOM     25  C   UNL     1     -15.519  58.038  52.168  0.00  0.00    +0.000 A 
BRANCH  17  26
ATOM     26  O   UNL     1     -11.275  55.522  52.712  0.00  0.00    +0.000 OA
ATOM     27  H   UNL     1     -11.083  56.148  53.382  0.00  0.00    +0.000 HD
ENDBRANCH  17  26
BRANCH  19  28
ATOM     28  C   UNL     1     -14.338  57.326  48.293  0.00  0.00    +0.000 C 
BRANCH  28  29
ATOM     29  C   UNL     1     -13.949  58.761  47.914  0.00  0.00    +0.000 C 
BRANCH  29  30
ATOM     30  C   UNL     1     -14.219  59.806  49.013  0.00  0.00    +0.000 C 
ATOM     31  C   UNL     1     -12.937  60.329  49.662  0.00  0.00    +0.000 C 
ATOM     32  C   UNL     1     -15.004  60.982  48.420  0.00  0.00    +0.000 C 
ENDBRANCH  29  30
ENDBRANCH  28  29
ENDBRANCH  19  28
ENDBRANCH   6  15
BRANCH  11  33
ATOM     33  N   UNL     1      -5.262  52.026  47.114  0.00  0.00    +0.000 N 
ATOM     34  H   UNL     1      -4.902  52.295  46.239  0.00  0.00    +0.000 HD
BRANCH  33  35
ATOM     35  S   UNL     1      -4.461  50.882  48.043  0.00  0.00    +0.000 S 
ATOM     36  O   UNL     1      -3.593  51.546  48.989  0.00  0.00    +0.000 OA
ATOM     37  O   UNL     1      -5.473  49.944  48.473  0.00  0.00    +0.000 OA
ATOM     38  C   UNL     1      -3.461  50.049  46.826  0.00  0.00    +0.000 C 
ENDBRANCH  33  35
ENDBRANCH  11  33
TORSDOF 7
ENDMDL
MODEL 9
REMARK VINA RESULT:      -5.8      3.853      9.083
REMARK  Name = 350570
REMARK  10 active torsions:
REMARK  status: ('A' for Active; 'I' for Inactive)
REMARK    1  A    between atoms: C_6  and  C_10
REMARK    2  A    between atoms: C_12  and  N_16
REMARK    3  A    between atoms: C_14  and  O_19
REMARK    4  A    between atoms: N_16  and  S_21
REMARK    5  A    between atoms: N_18  and  C_23
REMARK    6  A    between atoms: S_21  and  C_27
REMARK    7  A    between atoms: C_23  and  C_29
REMARK    8  A    between atoms: C_29  and  C_32
REMARK    9  A    between atoms: C_32  and  C_33
REMARK   10  A    between atoms: C_32  and  C_34
REMARK                            x       y       z     vdW  Elec       q    Type
REMARK                         _______ _______ _______ _____ _____    ______ ____
ROOT
ATOM      1  S   UNL     1      -9.116  53.214  48.422  0.00  0.00    +0.000 S 
ATOM      2  O   UNL     1      -8.635  53.700  47.144  0.00  0.00    +0.000 OA
ATOM      3  O   UNL     1      -9.441  51.812  48.594  0.00  0.00    +0.000 OA
ATOM      4  N   UNL     1     -10.413  54.087  48.832  0.00  0.00    +0.000 N 
ATOM      5  C   UNL     1      -7.844  53.551  49.577  0.00  0.00    +0.000 A 
ATOM      6  C   UNL     1     -10.367  54.955  49.801  0.00  0.00    +0.000 C 
ATOM      7  C   UNL     1      -8.066  54.547  50.518  0.00  0.00    +0.000 A 
ATOM      8  C   UNL     1      -6.653  52.825  49.518  0.00  0.00    +0.000 A 
ATOM      9  N   UNL     1      -9.253  55.270  50.544  0.00  0.00    +0.000 N 
ATOM     10  C   UNL     1      -7.026  54.869  51.393  0.00  0.00    +0.000 A 
ATOM     11  C   UNL     1      -5.635  53.160  50.398  0.00  0.00    +0.000 A 
ATOM     12  C   UNL     1      -5.817  54.176  51.335  0.00  0.00    +0.000 A 
ATOM     13  H   UNL     1     -11.256  53.959  48.339  0.00  0.00    +0.000 HD
ATOM     14  H   UNL     1      -9.299  56.059  51.131  0.00  0.00    +0.000 HD
ENDROOT
BRANCH   6  15
ATOM     15  C   UNL     1     -11.674  55.637  50.140  0.00  0.00    +0.000 A 
ATOM     16  C   UNL     1     -12.569  56.108  49.036  0.00  0.00    +0.000 A 
ATOM     17  C   UNL     1     -12.042  55.816  51.422  0.00  0.00    +0.000 A 
ATOM     18  O   UNL     1     -12.259  55.837  47.872  0.00  0.00    +0.000 OA
ATOM     19  N   UNL     1     -13.703  56.819  49.368  0.00  0.00    +0.000 N 
ATOM     20  C   UNL     1     -13.263  56.556  51.740  0.00  0.00    +0.000 A 
ATOM     21  C   UNL     1     -14.059  57.077  50.716  0.00  0.00    +0.000 A 
ATOM     22  C   UNL     1     -13.642  56.815  53.062  0.00  0.00    +0.000 A 
ATOM     23  N   UNL     1     -15.165  57.820  50.960  0.00  0.00    +0.000 NA
ATOM     24  C   UNL     1     -14.769  57.582  53.324  0.00  0.00    +0.000 A 
ATOM     25  C   UNL     1     -15.490  58.060  52.249  0.00  0.00    +0.000 A 
BRANCH  17  26
ATOM     26  O   UNL     1     -11.325  55.375  52.520  0.00  0.00    +0.000 OA
ATOM     27  H   UNL     1     -11.475  55.758  53.362  0.00  0.00    +0.000 HD
ENDBRANCH  17  26
BRANCH  19  28
ATOM     28  C   UNL     1     -14.548  57.375  48.305  0.00  0.00    +0.000 C 
BRANCH  28  29
ATOM     29  C   UNL     1     -14.088  58.778  47.888  0.00  0.00    +0.000 C 
BRANCH  29  30
ATOM     30  C   UNL     1     -14.312  59.865  48.957  0.00  0.00    +0.000 C 
ATOM     31  C   UNL     1     -13.018  60.278  49.661  0.00  0.00    +0.000 C 
ATOM     32  C   UNL     1     -14.953  61.097  48.308  0.00  0.00    +0.000 C 
ENDBRANCH  29  30
ENDBRANCH  28  29
ENDBRANCH  19  28
ENDBRANCH   6  15
BRANCH  11  33
ATOM     33  N   UNL     1      -4.388  52.505  50.333  0.00  0.00    +0.000 N 
ATOM     34  H   UNL     1      -3.639  52.915  49.844  0.00  0.00    +0.000 HD
BRANCH  33  35
ATOM     35  S   UNL     1      -4.193  51.024  51.095  0.00  0.00    +0.000 S 
ATOM     36  O   UNL     1      -3.356  51.185  52.262  0.00  0.00    +0.000 OA
ATOM     37  O   UNL     1      -5.516  50.449  51.185  0.00  0.00    +0.000 OA
ATOM     38  C   UNL     1      -3.301  50.090  49.868  0.00  0.00    +0.000 C 
ENDBRANCH  33  35
ENDBRANCH  11  33
TORSDOF 7
ENDMDL
