MODEL 1
REMARK VINA RESULT:      -8.3      0.000      0.000
REMARK  Name = 353127
REMARK  4 active torsions:
REMARK  status: ('A' for Active; 'I' for Inactive)
REMARK    1  A    between atoms: C_13  and  C_14
REMARK    2  A    between atoms: C_16  and  O_19
REMARK    3  A    between atoms: N_18  and  C_22
REMARK    4  A    between atoms: C_22  and  C_25
REMARK                            x       y       z     vdW  Elec       q    Type
REMARK                         _______ _______ _______ _____ _____    ______ ____
ROOT
ATOM      1  C   UNL     1     -12.309  54.372  49.330  0.00  0.00    +0.000 A 
ATOM      2  C   UNL     1     -12.146  54.057  50.775  0.00  0.00    +0.000 A 
ATOM      3  C   UNL     1     -13.028  55.470  49.042  0.00  0.00    +0.000 A 
ATOM      4  O   UNL     1     -12.153  52.904  51.180  0.00  0.00    +0.000 OA
ATOM      5  N   UNL     1     -11.877  55.204  51.547  0.00  0.00    +0.000 N 
ATOM      6  C   UNL     1     -13.619  56.207  50.164  0.00  0.00    +0.000 A 
ATOM      7  C   UNL     1     -12.948  56.157  51.405  0.00  0.00    +0.000 A 
ATOM      8  C   UNL     1     -14.819  56.904  50.069  0.00  0.00    +0.000 A 
ATOM      9  N   UNL     1     -13.424  56.755  52.514  0.00  0.00    +0.000 NA
ATOM     10  C   UNL     1     -15.351  57.471  51.220  0.00  0.00    +0.000 A 
ATOM     11  C   UNL     1     -14.622  57.379  52.401  0.00  0.00    +0.000 A 
ENDROOT
BRANCH   1  24
ATOM     12 BR   UNL     1      -8.163  51.105  42.797  0.00  0.00    +0.000 Br
ATOM     13  C   UNL     1      -9.280  51.908  44.088  0.00  0.00    +0.000 A 
ATOM     14  C   UNL     1      -9.006  51.727  45.433  0.00  0.00    +0.000 A 
ATOM     15  C   UNL     1     -10.369  52.687  43.696  0.00  0.00    +0.000 A 
ATOM     16  C   UNL     1      -9.839  52.340  46.372  0.00  0.00    +0.000 A 
ATOM     17  C   UNL     1     -11.195  53.287  44.659  0.00  0.00    +0.000 A 
ATOM     18  S   UNL     1      -9.463  52.132  48.066  0.00  0.00    +0.000 S 
ATOM     19  C   UNL     1     -10.942  53.112  46.023  0.00  0.00    +0.000 A 
ATOM     20  O   UNL     1      -8.115  52.627  48.243  0.00  0.00    +0.000 OA
ATOM     21  O   UNL     1      -9.802  50.761  48.390  0.00  0.00    +0.000 OA
ATOM     22  N   UNL     1     -10.437  53.099  48.904  0.00  0.00    +0.000 N 
ATOM     23  N   UNL     1     -11.722  53.742  46.995  0.00  0.00    +0.000 N 
ATOM     24  C   UNL     1     -11.422  53.722  48.335  0.00  0.00    +0.000 C 
ATOM     25  H   UNL     1     -10.284  53.219  49.869  0.00  0.00    +0.000 HD
ATOM     26  H   UNL     1     -12.529  54.227  46.705  0.00  0.00    +0.000 HD
ENDBRANCH   1  24
BRANCH   3  27
ATOM     27  O   UNL     1     -13.150  56.055  47.802  0.00  0.00    +0.000 OA
ATOM     28  H   UNL     1     -13.600  56.872  47.712  0.00  0.00    +0.000 HD
ENDBRANCH   3  27
BRANCH   5  29
ATOM     29  C   UNL     1     -10.549  55.755  51.203  0.00  0.00    +0.000 C 
BRANCH  29  30
ATOM     30  C   UNL     1      -9.349  55.071  51.792  0.00  0.00    +0.000 A 
ATOM     31  C   UNL     1      -8.191  54.893  51.026  0.00  0.00    +0.000 A 
ATOM     32  C   UNL     1      -9.332  54.713  53.149  0.00  0.00    +0.000 A 
ATOM     33  C   UNL     1      -7.051  54.325  51.595  0.00  0.00    +0.000 A 
ATOM     34  C   UNL     1      -8.191  54.144  53.715  0.00  0.00    +0.000 A 
ATOM     35  C   UNL     1      -7.055  53.941  52.935  0.00  0.00    +0.000 A 
ENDBRANCH  29  30
ENDBRANCH   5  29
TORSDOF 4
ENDMDL
MODEL 2
REMARK VINA RESULT:      -8.3      3.506      6.600
REMARK  Name = 353127
REMARK  4 active torsions:
REMARK  status: ('A' for Active; 'I' for Inactive)
REMARK    1  A    between atoms: C_13  and  C_14
REMARK    2  A    between atoms: C_16  and  O_19
REMARK    3  A    between atoms: N_18  and  C_22
REMARK    4  A    between atoms: C_22  and  C_25
REMARK                            x       y       z     vdW  Elec       q    Type
REMARK                         _______ _______ _______ _____ _____    ______ ____
ROOT
ATOM      1  C   UNL     1     -10.543  55.819  50.627  0.00  0.00    +0.000 A 
ATOM      2  C   UNL     1     -10.113  56.030  49.219  0.00  0.00    +0.000 A 
ATOM      3  C   UNL     1     -11.835  56.076  50.895  0.00  0.00    +0.000 A 
ATOM      4  O   UNL     1      -9.011  56.486  48.952  0.00  0.00    +0.000 OA
ATOM      5  N   UNL     1     -11.056  55.546  48.291  0.00  0.00    +0.000 N 
ATOM      6  C   UNL     1     -12.666  56.586  49.800  0.00  0.00    +0.000 A 
ATOM      7  C   UNL     1     -12.322  56.204  48.485  0.00  0.00    +0.000 A 
ATOM      8  C   UNL     1     -13.734  57.455  49.996  0.00  0.00    +0.000 A 
ATOM      9  N   UNL     1     -12.985  56.650  47.401  0.00  0.00    +0.000 NA
ATOM     10  C   UNL     1     -14.384  57.971  48.882  0.00  0.00    +0.000 A 
ATOM     11  C   UNL     1     -13.985  57.537  47.623  0.00  0.00    +0.000 A 
ENDROOT
BRANCH   1  24
ATOM     12 BR   UNL     1      -6.766  50.618  56.034  0.00  0.00    +0.000 Br
ATOM     13  C   UNL     1      -7.838  51.652  54.874  0.00  0.00    +0.000 A 
ATOM     14  C   UNL     1      -7.321  52.813  54.324  0.00  0.00    +0.000 A 
ATOM     15  C   UNL     1      -9.137  51.250  54.564  0.00  0.00    +0.000 A 
ATOM     16  C   UNL     1      -8.126  53.558  53.460  0.00  0.00    +0.000 A 
ATOM     17  C   UNL     1      -9.929  52.020  53.698  0.00  0.00    +0.000 A 
ATOM     18  S   UNL     1      -7.451  55.003  52.745  0.00  0.00    +0.000 S 
ATOM     19  C   UNL     1      -9.430  53.200  53.136  0.00  0.00    +0.000 A 
ATOM     20  O   UNL     1      -6.264  54.583  52.033  0.00  0.00    +0.000 OA
ATOM     21  O   UNL     1      -7.373  55.982  53.811  0.00  0.00    +0.000 OA
ATOM     22  N   UNL     1      -8.498  55.540  51.649  0.00  0.00    +0.000 N 
ATOM     23  N   UNL     1     -10.185  53.952  52.232  0.00  0.00    +0.000 N 
ATOM     24  C   UNL     1      -9.685  55.029  51.544  0.00  0.00    +0.000 C 
ATOM     25  H   UNL     1      -8.232  56.271  51.046  0.00  0.00    +0.000 HD
ATOM     26  H   UNL     1     -11.124  53.695  52.081  0.00  0.00    +0.000 HD
ENDBRANCH   1  24
BRANCH   3  27
ATOM     27  O   UNL     1     -12.493  55.775  52.065  0.00  0.00    +0.000 OA
ATOM     28  H   UNL     1     -12.420  56.345  52.804  0.00  0.00    +0.000 HD
ENDBRANCH   3  27
BRANCH   5  29
ATOM     29  C   UNL     1     -11.139  54.071  48.367  0.00  0.00    +0.000 C 
BRANCH  29  30
ATOM     30  C   UNL     1     -11.427  53.334  47.091  0.00  0.00    +0.000 A 
ATOM     31  C   UNL     1     -11.026  53.868  45.861  0.00  0.00    +0.000 A 
ATOM     32  C   UNL     1     -11.991  52.050  47.126  0.00  0.00    +0.000 A 
ATOM     33  C   UNL     1     -11.226  53.150  44.682  0.00  0.00    +0.000 A 
ATOM     34  C   UNL     1     -12.192  51.334  45.945  0.00  0.00    +0.000 A 
ATOM     35  C   UNL     1     -11.819  51.890  44.724  0.00  0.00    +0.000 A 
ENDBRANCH  29  30
ENDBRANCH   5  29
TORSDOF 4
ENDMDL
MODEL 3
REMARK VINA RESULT:      -8.2      3.261      5.800
REMARK  Name = 353127
REMARK  4 active torsions:
REMARK  status: ('A' for Active; 'I' for Inactive)
REMARK    1  A    between atoms: C_13  and  C_14
REMARK    2  A    between atoms: C_16  and  O_19
REMARK    3  A    between atoms: N_18  and  C_22
REMARK    4  A    between atoms: C_22  and  C_25
REMARK                            x       y       z     vdW  Elec       q    Type
REMARK                         _______ _______ _______ _____ _____    ______ ____
ROOT
ATOM      1  C   UNL     1     -10.258  55.488  50.923  0.00  0.00    +0.000 A 
ATOM      2  C   UNL     1     -10.149  56.275  49.665  0.00  0.00    +0.000 A 
ATOM      3  C   UNL     1     -11.505  55.232  51.353  0.00  0.00    +0.000 A 
ATOM      4  O   UNL     1      -9.268  57.109  49.511  0.00  0.00    +0.000 OA
ATOM      5  N   UNL     1     -11.076  55.860  48.690  0.00  0.00    +0.000 N 
ATOM      6  C   UNL     1     -12.618  55.794  50.580  0.00  0.00    +0.000 A 
ATOM      7  C   UNL     1     -12.418  55.994  49.196  0.00  0.00    +0.000 A 
ATOM      8  C   UNL     1     -13.826  56.176  51.152  0.00  0.00    +0.000 A 
ATOM      9  N   UNL     1     -13.352  56.547  48.399  0.00  0.00    +0.000 NA
ATOM     10  C   UNL     1     -14.771  56.805  50.352  0.00  0.00    +0.000 A 
ATOM     11  C   UNL     1     -14.496  56.958  48.999  0.00  0.00    +0.000 A 
ENDROOT
BRANCH   1  24
ATOM     12 BR   UNL     1      -3.302  51.050  52.491  0.00  0.00    +0.000 Br
ATOM     13  C   UNL     1      -4.822  51.989  51.883  0.00  0.00    +0.000 A 
ATOM     14  C   UNL     1      -5.754  52.443  52.801  0.00  0.00    +0.000 A 
ATOM     15  C   UNL     1      -5.004  52.235  50.522  0.00  0.00    +0.000 A 
ATOM     16  C   UNL     1      -6.866  53.145  52.331  0.00  0.00    +0.000 A 
ATOM     17  C   UNL     1      -6.134  52.937  50.074  0.00  0.00    +0.000 A 
ATOM     18  S   UNL     1      -8.018  53.743  53.501  0.00  0.00    +0.000 S 
ATOM     19  C   UNL     1      -7.092  53.399  50.982  0.00  0.00    +0.000 A 
ATOM     20  O   UNL     1      -7.272  54.595  54.402  0.00  0.00    +0.000 OA
ATOM     21  O   UNL     1      -8.731  52.582  53.995  0.00  0.00    +0.000 OA
ATOM     22  N   UNL     1      -9.066  54.679  52.720  0.00  0.00    +0.000 N 
ATOM     23  N   UNL     1      -8.196  54.144  50.561  0.00  0.00    +0.000 N 
ATOM     24  C   UNL     1      -9.077  54.743  51.425  0.00  0.00    +0.000 C 
ATOM     25  H   UNL     1      -9.712  55.213  53.236  0.00  0.00    +0.000 HD
ATOM     26  H   UNL     1      -8.349  54.245  49.593  0.00  0.00    +0.000 HD
ENDBRANCH   1  24
BRANCH   3  27
ATOM     27  O   UNL     1     -11.849  54.373  52.372  0.00  0.00    +0.000 OA
ATOM     28  H   UNL     1     -12.220  54.710  53.163  0.00  0.00    +0.000 HD
ENDBRANCH   3  27
BRANCH   5  29
ATOM     29  C   UNL     1     -10.754  54.494  48.224  0.00  0.00    +0.000 C 
BRANCH  29  30
ATOM     30  C   UNL     1      -9.954  54.372  46.959  0.00  0.00    +0.000 A 
ATOM     31  C   UNL     1      -8.676  54.935  46.875  0.00  0.00    +0.000 A 
ATOM     32  C   UNL     1     -10.427  53.590  45.894  0.00  0.00    +0.000 A 
ATOM     33  C   UNL     1      -7.901  54.757  45.729  0.00  0.00    +0.000 A 
ATOM     34  C   UNL     1      -9.652  53.416  44.747  0.00  0.00    +0.000 A 
ATOM     35  C   UNL     1      -8.394  54.008  44.662  0.00  0.00    +0.000 A 
ENDBRANCH  29  30
ENDBRANCH   5  29
TORSDOF 4
ENDMDL
MODEL 4
REMARK VINA RESULT:      -8.2      2.860      6.130
REMARK  Name = 353127
REMARK  4 active torsions:
REMARK  status: ('A' for Active; 'I' for Inactive)
REMARK    1  A    between atoms: C_13  and  C_14
REMARK    2  A    between atoms: C_16  and  O_19
REMARK    3  A    between atoms: N_18  and  C_22
REMARK    4  A    between atoms: C_22  and  C_25
REMARK                            x       y       z     vdW  Elec       q    Type
REMARK                         _______ _______ _______ _____ _____    ______ ____
ROOT
ATOM      1  C   UNL     1     -10.284  55.404  50.999  0.00  0.00    +0.000 A 
ATOM      2  C   UNL     1     -10.589  55.914  49.634  0.00  0.00    +0.000 A 
ATOM      3  C   UNL     1     -11.300  55.426  51.878  0.00  0.00    +0.000 A 
ATOM      4  O   UNL     1      -9.769  56.560  48.999  0.00  0.00    +0.000 OA
ATOM      5  N   UNL     1     -11.838  55.467  49.162  0.00  0.00    +0.000 N 
ATOM      6  C   UNL     1     -12.575  55.994  51.428  0.00  0.00    +0.000 A 
ATOM      7  C   UNL     1     -12.885  55.896  50.054  0.00  0.00    +0.000 A 
ATOM      8  C   UNL     1     -13.455  56.655  52.276  0.00  0.00    +0.000 A 
ATOM      9  N   UNL     1     -14.005  56.423  49.521  0.00  0.00    +0.000 NA
ATOM     10  C   UNL     1     -14.581  57.258  51.728  0.00  0.00    +0.000 A 
ATOM     11  C   UNL     1     -14.814  57.108  50.366  0.00  0.00    +0.000 A 
ENDROOT
BRANCH   1  24
ATOM     12 BR   UNL     1      -3.627  50.961  53.547  0.00  0.00    +0.000 Br
ATOM     13  C   UNL     1      -5.171  52.000  53.233  0.00  0.00    +0.000 A 
ATOM     14  C   UNL     1      -5.454  52.426  51.946  0.00  0.00    +0.000 A 
ATOM     15  C   UNL     1      -6.028  52.330  54.283  0.00  0.00    +0.000 A 
ATOM     16  C   UNL     1      -6.609  53.184  51.734  0.00  0.00    +0.000 A 
ATOM     17  C   UNL     1      -7.178  53.099  54.044  0.00  0.00    +0.000 A 
ATOM     18  S   UNL     1      -6.974  53.688  50.100  0.00  0.00    +0.000 S 
ATOM     19  C   UNL     1      -7.481  53.547  52.754  0.00  0.00    +0.000 A 
ATOM     20  O   UNL     1      -7.058  52.476  49.315  0.00  0.00    +0.000 OA
ATOM     21  O   UNL     1      -6.013  54.722  49.772  0.00  0.00    +0.000 OA
ATOM     22  N   UNL     1      -8.438  54.351  50.110  0.00  0.00    +0.000 N 
ATOM     23  N   UNL     1      -8.646  54.269  52.489  0.00  0.00    +0.000 N 
ATOM     24  C   UNL     1      -9.059  54.598  51.222  0.00  0.00    +0.000 C 
ATOM     25  H   UNL     1      -8.872  54.574  49.255  0.00  0.00    +0.000 HD
ATOM     26  H   UNL     1      -9.201  54.556  53.250  0.00  0.00    +0.000 HD
ENDBRANCH   1  24
BRANCH   3  27
ATOM     27  O   UNL     1     -11.305  54.837  53.122  0.00  0.00    +0.000 OA
ATOM     28  H   UNL     1     -10.709  54.141  53.313  0.00  0.00    +0.000 HD
ENDBRANCH   3  27
BRANCH   5  29
ATOM     29  C   UNL     1     -11.811  54.005  48.943  0.00  0.00    +0.000 C 
BRANCH  29  30
ATOM     30  C   UNL     1     -11.908  53.522  47.524  0.00  0.00    +0.000 A 
ATOM     31  C   UNL     1     -11.529  54.357  46.467  0.00  0.00    +0.000 A 
ATOM     32  C   UNL     1     -12.263  52.192  47.250  0.00  0.00    +0.000 A 
ATOM     33  C   UNL     1     -11.547  53.885  45.155  0.00  0.00    +0.000 A 
ATOM     34  C   UNL     1     -12.282  51.723  45.937  0.00  0.00    +0.000 A 
ATOM     35  C   UNL     1     -11.934  52.572  44.890  0.00  0.00    +0.000 A 
ENDBRANCH  29  30
ENDBRANCH   5  29
TORSDOF 4
ENDMDL
MODEL 5
REMARK VINA RESULT:      -8.0      3.489      6.891
REMARK  Name = 353127
REMARK  4 active torsions:
REMARK  status: ('A' for Active; 'I' for Inactive)
REMARK    1  A    between atoms: C_13  and  C_14
REMARK    2  A    between atoms: C_16  and  O_19
REMARK    3  A    between atoms: N_18  and  C_22
REMARK    4  A    between atoms: C_22  and  C_25
REMARK                            x       y       z     vdW  Elec       q    Type
REMARK                         _______ _______ _______ _____ _____    ______ ____
ROOT
ATOM      1  C   UNL     1     -11.034  53.950  46.844  0.00  0.00    +0.000 A 
ATOM      2  C   UNL     1      -9.735  54.501  46.373  0.00  0.00    +0.000 A 
ATOM      3  C   UNL     1     -11.408  52.777  46.306  0.00  0.00    +0.000 A 
ATOM      4  O   UNL     1      -9.575  55.701  46.205  0.00  0.00    +0.000 OA
ATOM      5  N   UNL     1      -8.738  53.511  46.270  0.00  0.00    +0.000 N 
ATOM      6  C   UNL     1     -10.537  52.192  45.281  0.00  0.00    +0.000 A 
ATOM      7  C   UNL     1      -9.157  52.482  45.353  0.00  0.00    +0.000 A 
ATOM      8  C   UNL     1     -11.013  51.415  44.232  0.00  0.00    +0.000 A 
ATOM      9  N   UNL     1      -8.272  52.039  44.439  0.00  0.00    +0.000 NA
ATOM     10  C   UNL     1     -10.120  51.006  43.249  0.00  0.00    +0.000 A 
ATOM     11  C   UNL     1      -8.777  51.330  43.400  0.00  0.00    +0.000 A 
ENDROOT
BRANCH   1  24
ATOM     12 BR   UNL     1     -15.047  57.929  53.058  0.00  0.00    +0.000 Br
ATOM     13  C   UNL     1     -14.234  57.230  51.505  0.00  0.00    +0.000 A 
ATOM     14  C   UNL     1     -13.323  56.194  51.621  0.00  0.00    +0.000 A 
ATOM     15  C   UNL     1     -14.553  57.743  50.247  0.00  0.00    +0.000 A 
ATOM     16  C   UNL     1     -12.741  55.684  50.458  0.00  0.00    +0.000 A 
ATOM     17  C   UNL     1     -13.949  57.218  49.094  0.00  0.00    +0.000 A 
ATOM     18  S   UNL     1     -11.618  54.354  50.614  0.00  0.00    +0.000 S 
ATOM     19  C   UNL     1     -13.020  56.176  49.187  0.00  0.00    +0.000 A 
ATOM     20  O   UNL     1     -12.342  53.292  51.280  0.00  0.00    +0.000 OA
ATOM     21  O   UNL     1     -10.412  54.909  51.192  0.00  0.00    +0.000 OA
ATOM     22  N   UNL     1     -11.270  53.834  49.133  0.00  0.00    +0.000 N 
ATOM     23  N   UNL     1     -12.448  55.606  48.048  0.00  0.00    +0.000 N 
ATOM     24  C   UNL     1     -11.652  54.489  48.081  0.00  0.00    +0.000 C 
ATOM     25  H   UNL     1     -10.755  53.002  49.023  0.00  0.00    +0.000 HD
ATOM     26  H   UNL     1     -12.626  56.027  47.176  0.00  0.00    +0.000 HD
ENDBRANCH   1  24
BRANCH   3  27
ATOM     27  O   UNL     1     -12.461  51.996  46.724  0.00  0.00    +0.000 OA
ATOM     28  H   UNL     1     -13.244  52.397  47.045  0.00  0.00    +0.000 HD
ENDBRANCH   3  27
BRANCH   5  29
ATOM     29  C   UNL     1      -8.384  52.998  47.611  0.00  0.00    +0.000 C 
BRANCH  29  30
ATOM     30  C   UNL     1      -7.228  53.652  48.312  0.00  0.00    +0.000 A 
ATOM     31  C   UNL     1      -5.914  53.287  47.998  0.00  0.00    +0.000 A 
ATOM     32  C   UNL     1      -7.448  54.717  49.199  0.00  0.00    +0.000 A 
ATOM     33  C   UNL     1      -4.839  53.946  48.593  0.00  0.00    +0.000 A 
ATOM     34  C   UNL     1      -6.370  55.373  49.795  0.00  0.00    +0.000 A 
ATOM     35  C   UNL     1      -5.067  54.980  49.500  0.00  0.00    +0.000 A 
ENDBRANCH  29  30
ENDBRANCH   5  29
TORSDOF 4
ENDMDL
MODEL 6
REMARK VINA RESULT:      -8.0      3.159      6.458
REMARK  Name = 353127
REMARK  4 active torsions:
REMARK  status: ('A' for Active; 'I' for Inactive)
REMARK    1  A    between atoms: C_13  and  C_14
REMARK    2  A    between atoms: C_16  and  O_19
REMARK    3  A    between atoms: N_18  and  C_22
REMARK    4  A    between atoms: C_22  and  C_25
REMARK                            x       y       z     vdW  Elec       q    Type
REMARK                         _______ _______ _______ _____ _____    ______ ____
ROOT
ATOM      1  C   UNL     1     -11.040  55.652  50.574  0.00  0.00    +0.000 A 
ATOM      2  C   UNL     1     -10.581  55.764  49.163  0.00  0.00    +0.000 A 
ATOM      3  C   UNL     1     -12.256  56.158  50.840  0.00  0.00    +0.000 A 
ATOM      4  O   UNL     1      -9.412  55.994  48.890  0.00  0.00    +0.000 OA
ATOM      5  N   UNL     1     -11.602  55.464  48.240  0.00  0.00    +0.000 N 
ATOM      6  C   UNL     1     -12.975  56.811  49.741  0.00  0.00    +0.000 A 
ATOM      7  C   UNL     1     -12.716  56.357  48.429  0.00  0.00    +0.000 A 
ATOM      8  C   UNL     1     -13.853  57.872  49.930  0.00  0.00    +0.000 A 
ATOM      9  N   UNL     1     -13.283  56.914  47.342  0.00  0.00    +0.000 NA
ATOM     10  C   UNL     1     -14.394  58.495  48.813  0.00  0.00    +0.000 A 
ATOM     11  C   UNL     1     -14.090  57.981  47.557  0.00  0.00    +0.000 A 
ENDROOT
BRANCH   1  24
ATOM     12 BR   UNL     1      -6.069  51.133  55.615  0.00  0.00    +0.000 Br
ATOM     13  C   UNL     1      -6.970  52.294  54.430  0.00  0.00    +0.000 A 
ATOM     14  C   UNL     1      -8.250  51.977  54.009  0.00  0.00    +0.000 A 
ATOM     15  C   UNL     1      -6.359  53.467  53.988  0.00  0.00    +0.000 A 
ATOM     16  C   UNL     1      -8.903  52.856  53.142  0.00  0.00    +0.000 A 
ATOM     17  C   UNL     1      -7.033  54.330  53.110  0.00  0.00    +0.000 A 
ATOM     18  S   UNL     1     -10.532  52.464  52.644  0.00  0.00    +0.000 S 
ATOM     19  C   UNL     1      -8.325  54.028  52.666  0.00  0.00    +0.000 A 
ATOM     20  O   UNL     1     -11.307  52.344  53.860  0.00  0.00    +0.000 OA
ATOM     21  O   UNL     1     -10.416  51.351  51.723  0.00  0.00    +0.000 OA
ATOM     22  N   UNL     1     -11.112  53.725  51.833  0.00  0.00    +0.000 N 
ATOM     23  N   UNL     1      -9.031  54.899  51.834  0.00  0.00    +0.000 N 
ATOM     24  C   UNL     1     -10.349  54.718  51.496  0.00  0.00    +0.000 C 
ATOM     25  H   UNL     1     -12.065  53.743  51.588  0.00  0.00    +0.000 HD
ATOM     26  H   UNL     1      -8.560  55.685  51.472  0.00  0.00    +0.000 HD
ENDBRANCH   1  24
BRANCH   3  27
ATOM     27  O   UNL     1     -12.957  56.001  52.014  0.00  0.00    +0.000 OA
ATOM     28  H   UNL     1     -13.868  55.782  51.989  0.00  0.00    +0.000 HD
ENDBRANCH   3  27
BRANCH   5  29
ATOM     29  C   UNL     1     -11.970  54.034  48.329  0.00  0.00    +0.000 C 
BRANCH  29  30
ATOM     30  C   UNL     1     -11.832  53.212  47.081  0.00  0.00    +0.000 A 
ATOM     31  C   UNL     1     -12.293  51.890  47.052  0.00  0.00    +0.000 A 
ATOM     32  C   UNL     1     -11.352  53.793  45.898  0.00  0.00    +0.000 A 
ATOM     33  C   UNL     1     -12.233  51.149  45.872  0.00  0.00    +0.000 A 
ATOM     34  C   UNL     1     -11.292  53.049  44.719  0.00  0.00    +0.000 A 
ATOM     35  C   UNL     1     -11.723  51.725  44.710  0.00  0.00    +0.000 A 
ENDBRANCH  29  30
ENDBRANCH   5  29
TORSDOF 4
ENDMDL
MODEL 7
REMARK VINA RESULT:      -7.9      3.394      7.354
REMARK  Name = 353127
REMARK  4 active torsions:
REMARK  status: ('A' for Active; 'I' for Inactive)
REMARK    1  A    between atoms: C_13  and  C_14
REMARK    2  A    between atoms: C_16  and  O_19
REMARK    3  A    between atoms: N_18  and  C_22
REMARK    4  A    between atoms: C_22  and  C_25
REMARK                            x       y       z     vdW  Elec       q    Type
REMARK                         _______ _______ _______ _____ _____    ______ ____
ROOT
ATOM      1  C   UNL     1      -8.683  52.925  47.705  0.00  0.00    +0.000 A 
ATOM      2  C   UNL     1     -10.165  52.866  47.596  0.00  0.00    +0.000 A 
ATOM      3  C   UNL     1      -8.002  52.858  46.548  0.00  0.00    +0.000 A 
ATOM      4  O   UNL     1     -10.841  52.273  48.423  0.00  0.00    +0.000 OA
ATOM      5  N   UNL     1     -10.656  53.648  46.532  0.00  0.00    +0.000 N 
ATOM      6  C   UNL     1      -8.776  52.680  45.315  0.00  0.00    +0.000 A 
ATOM      7  C   UNL     1     -10.089  53.199  45.287  0.00  0.00    +0.000 A 
ATOM      8  C   UNL     1      -8.295  51.992  44.208  0.00  0.00    +0.000 A 
ATOM      9  N   UNL     1     -10.906  53.053  44.226  0.00  0.00    +0.000 NA
ATOM     10  C   UNL     1      -9.150  51.779  43.133  0.00  0.00    +0.000 A 
ATOM     11  C   UNL     1     -10.425  52.329  43.185  0.00  0.00    +0.000 A 
ENDROOT
BRANCH   1  24
ATOM     12 BR   UNL     1      -4.037  55.107  54.354  0.00  0.00    +0.000 Br
ATOM     13  C   UNL     1      -4.861  54.501  52.767  0.00  0.00    +0.000 A 
ATOM     14  C   UNL     1      -6.237  54.583  52.641  0.00  0.00    +0.000 A 
ATOM     15  C   UNL     1      -4.093  53.982  51.725  0.00  0.00    +0.000 A 
ATOM     16  C   UNL     1      -6.825  54.139  51.454  0.00  0.00    +0.000 A 
ATOM     17  C   UNL     1      -4.708  53.536  50.545  0.00  0.00    +0.000 A 
ATOM     18  S   UNL     1      -8.560  54.279  51.291  0.00  0.00    +0.000 S 
ATOM     19  C   UNL     1      -6.098  53.603  50.397  0.00  0.00    +0.000 A 
ATOM     20  O   UNL     1      -8.869  55.682  51.471  0.00  0.00    +0.000 OA
ATOM     21  O   UNL     1      -9.130  53.274  52.165  0.00  0.00    +0.000 OA
ATOM     22  N   UNL     1      -8.940  53.900  49.776  0.00  0.00    +0.000 N 
ATOM     23  N   UNL     1      -6.723  53.212  49.211  0.00  0.00    +0.000 N 
ATOM     24  C   UNL     1      -8.060  53.399  48.966  0.00  0.00    +0.000 C 
ATOM     25  H   UNL     1      -9.859  54.050  49.458  0.00  0.00    +0.000 HD
ATOM     26  H   UNL     1      -6.176  52.780  48.515  0.00  0.00    +0.000 HD
ENDBRANCH   1  24
BRANCH   3  27
ATOM     27  O   UNL     1      -6.653  53.082  46.390  0.00  0.00    +0.000 OA
ATOM     28  H   UNL     1      -6.193  52.684  45.678  0.00  0.00    +0.000 HD
ENDBRANCH   3  27
BRANCH   5  29
ATOM     29  C   UNL     1     -10.427  55.083  46.802  0.00  0.00    +0.000 C 
BRANCH  29  30
ATOM     30  C   UNL     1     -11.509  55.826  47.531  0.00  0.00    +0.000 A 
ATOM     31  C   UNL     1     -11.320  56.226  48.859  0.00  0.00    +0.000 A 
ATOM     32  C   UNL     1     -12.670  56.232  46.855  0.00  0.00    +0.000 A 
ATOM     33  C   UNL     1     -12.294  56.980  49.513  0.00  0.00    +0.000 A 
ATOM     34  C   UNL     1     -13.643  56.985  47.512  0.00  0.00    +0.000 A 
ATOM     35  C   UNL     1     -13.459  57.349  48.844  0.00  0.00    +0.000 A 
ENDBRANCH  29  30
ENDBRANCH   5  29
TORSDOF 4
ENDMDL
MODEL 8
REMARK VINA RESULT:      -7.7      3.340      6.184
REMARK  Name = 353127
REMARK  4 active torsions:
REMARK  status: ('A' for Active; 'I' for Inactive)
REMARK    1  A    between atoms: C_13  and  C_14
REMARK    2  A    between atoms: C_16  and  O_19
REMARK    3  A    between atoms: N_18  and  C_22
REMARK    4  A    between atoms: C_22  and  C_25
REMARK                            x       y       z     vdW  Elec       q    Type
REMARK                         _______ _______ _______ _____ _____    ______ ____
ROOT
ATOM      1  C   UNL     1      -9.492  52.109  52.290  0.00  0.00    +0.000 A 
ATOM      2  C   UNL     1      -8.069  51.742  52.056  0.00  0.00    +0.000 A 
ATOM      3  C   UNL     1      -9.930  51.997  53.556  0.00  0.00    +0.000 A 
ATOM      4  O   UNL     1      -7.720  51.163  51.038  0.00  0.00    +0.000 OA
ATOM      5  N   UNL     1      -7.215  52.236  53.062  0.00  0.00    +0.000 N 
ATOM      6  C   UNL     1      -8.990  51.480  54.556  0.00  0.00    +0.000 A 
ATOM      7  C   UNL     1      -7.614  51.719  54.346  0.00  0.00    +0.000 A 
ATOM      8  C   UNL     1      -9.388  50.736  55.661  0.00  0.00    +0.000 A 
ATOM      9  N   UNL     1      -6.660  51.251  55.173  0.00  0.00    +0.000 NA
ATOM     10  C   UNL     1      -8.410  50.194  56.485  0.00  0.00    +0.000 A 
ATOM     11  C   UNL     1      -7.078  50.483  56.209  0.00  0.00    +0.000 A 
ENDROOT
BRANCH   1  24
ATOM     12 BR   UNL     1     -13.958  57.330  47.459  0.00  0.00    +0.000 Br
ATOM     13  C   UNL     1     -13.030  56.310  48.748  0.00  0.00    +0.000 A 
ATOM     14  C   UNL     1     -12.498  55.083  48.391  0.00  0.00    +0.000 A 
ATOM     15  C   UNL     1     -12.871  56.788  50.049  0.00  0.00    +0.000 A 
ATOM     16  C   UNL     1     -11.805  54.349  49.357  0.00  0.00    +0.000 A 
ATOM     17  C   UNL     1     -12.177  56.029  51.004  0.00  0.00    +0.000 A 
ATOM     18  S   UNL     1     -11.108  52.818  48.885  0.00  0.00    +0.000 S 
ATOM     19  C   UNL     1     -11.636  54.783  50.667  0.00  0.00    +0.000 A 
ATOM     20  O   UNL     1     -10.213  53.105  47.784  0.00  0.00    +0.000 OA
ATOM     21  O   UNL     1     -12.219  51.902  48.722  0.00  0.00    +0.000 OA
ATOM     22  N   UNL     1     -10.204  52.295  50.108  0.00  0.00    +0.000 N 
ATOM     23  N   UNL     1     -10.899  54.037  51.589  0.00  0.00    +0.000 N 
ATOM     24  C   UNL     1     -10.226  52.886  51.262  0.00  0.00    +0.000 C 
ATOM     25  H   UNL     1      -9.624  51.511  49.977  0.00  0.00    +0.000 HD
ATOM     26  H   UNL     1     -10.859  54.353  52.520  0.00  0.00    +0.000 HD
ENDBRANCH   1  24
BRANCH   3  27
ATOM     27  O   UNL     1     -11.135  52.455  54.037  0.00  0.00    +0.000 OA
ATOM     28  H   UNL     1     -11.633  51.929  54.630  0.00  0.00    +0.000 HD
ENDBRANCH   3  27
BRANCH   5  29
ATOM     29  C   UNL     1      -7.163  53.713  53.010  0.00  0.00    +0.000 C 
BRANCH  29  30
ATOM     30  C   UNL     1      -6.569  54.335  51.780  0.00  0.00    +0.000 A 
ATOM     31  C   UNL     1      -5.309  53.933  51.322  0.00  0.00    +0.000 A 
ATOM     32  C   UNL     1      -7.320  55.236  51.008  0.00  0.00    +0.000 A 
ATOM     33  C   UNL     1      -4.789  54.456  50.138  0.00  0.00    +0.000 A 
ATOM     34  C   UNL     1      -6.797  55.759  49.825  0.00  0.00    +0.000 A 
ATOM     35  C   UNL     1      -5.528  55.376  49.397  0.00  0.00    +0.000 A 
ENDBRANCH  29  30
ENDBRANCH   5  29
TORSDOF 4
ENDMDL
MODEL 9
REMARK VINA RESULT:      -7.6      3.584      7.013
REMARK  Name = 353127
REMARK  4 active torsions:
REMARK  status: ('A' for Active; 'I' for Inactive)
REMARK    1  A    between atoms: C_13  and  C_14
REMARK    2  A    between atoms: C_16  and  O_19
REMARK    3  A    between atoms: N_18  and  C_22
REMARK    4  A    between atoms: C_22  and  C_25
REMARK                            x       y       z     vdW  Elec       q    Type
REMARK                         _______ _______ _______ _____ _____    ______ ____
ROOT
ATOM      1  C   UNL     1     -10.182  53.904  47.127  0.00  0.00    +0.000 A 
ATOM      2  C   UNL     1      -8.961  53.092  47.382  0.00  0.00    +0.000 A 
ATOM      3  C   UNL     1     -10.707  53.808  45.894  0.00  0.00    +0.000 A 
ATOM      4  O   UNL     1      -8.049  53.515  48.078  0.00  0.00    +0.000 OA
ATOM      5  N   UNL     1      -9.054  51.797  46.837  0.00  0.00    +0.000 N 
ATOM      6  C   UNL     1     -10.003  52.969  44.919  0.00  0.00    +0.000 A 
ATOM      7  C   UNL     1      -9.263  51.873  45.414  0.00  0.00    +0.000 A 
ATOM      8  C   UNL     1      -9.996  53.231  43.554  0.00  0.00    +0.000 A 
ATOM      9  N   UNL     1      -8.539  51.064  44.616  0.00  0.00    +0.000 NA
ATOM     10  C   UNL     1      -9.203  52.443  42.730  0.00  0.00    +0.000 A 
ATOM     11  C   UNL     1      -8.510  51.380  43.298  0.00  0.00    +0.000 A 
ENDROOT
BRANCH   1  24
ATOM     12 BR   UNL     1     -15.129  57.773  52.704  0.00  0.00    +0.000 Br
ATOM     13  C   UNL     1     -14.134  57.057  51.268  0.00  0.00    +0.000 A 
ATOM     14  C   UNL     1     -13.050  56.237  51.533  0.00  0.00    +0.000 A 
ATOM     15  C   UNL     1     -14.489  57.342  49.950  0.00  0.00    +0.000 A 
ATOM     16  C   UNL     1     -12.335  55.708  50.456  0.00  0.00    +0.000 A 
ATOM     17  C   UNL     1     -13.749  56.805  48.885  0.00  0.00    +0.000 A 
ATOM     18  S   UNL     1     -10.991  54.647  50.802  0.00  0.00    +0.000 S 
ATOM     19  C   UNL     1     -12.647  55.979  49.128  0.00  0.00    +0.000 A 
ATOM     20  O   UNL     1     -11.530  53.556  51.586  0.00  0.00    +0.000 OA
ATOM     21  O   UNL     1      -9.935  55.489  51.327  0.00  0.00    +0.000 OA
ATOM     22  N   UNL     1     -10.488  54.025  49.407  0.00  0.00    +0.000 N 
ATOM     23  N   UNL     1     -11.931  55.394  48.082  0.00  0.00    +0.000 N 
ATOM     24  C   UNL     1     -10.941  54.462  48.273  0.00  0.00    +0.000 C 
ATOM     25  H   UNL     1      -9.823  53.300  49.414  0.00  0.00    +0.000 HD
ATOM     26  H   UNL     1     -12.147  55.663  47.160  0.00  0.00    +0.000 HD
ENDBRANCH   1  24
BRANCH   3  27
ATOM     27  O   UNL     1     -11.924  54.311  45.493  0.00  0.00    +0.000 OA
ATOM     28  H   UNL     1     -12.467  53.816  44.914  0.00  0.00    +0.000 HD
ENDBRANCH   3  27
BRANCH   5  29
ATOM     29  C   UNL     1     -10.093  51.016  47.544  0.00  0.00    +0.000 C 
BRANCH  29  30
ATOM     30  C   UNL     1      -9.751  50.501  48.912  0.00  0.00    +0.000 A 
ATOM     31  C   UNL     1     -10.726  50.457  49.915  0.00  0.00    +0.000 A 
ATOM     32  C   UNL     1      -8.487  49.947  49.166  0.00  0.00    +0.000 A 
ATOM     33  C   UNL     1     -10.431  49.910  51.163  0.00  0.00    +0.000 A 
ATOM     34  C   UNL     1      -8.192  49.402  50.416  0.00  0.00    +0.000 A 
ATOM     35  C   UNL     1      -9.161  49.393  51.416  0.00  0.00    +0.000 A 
ENDBRANCH  29  30
ENDBRANCH   5  29
TORSDOF 4
ENDMDL
