MODEL 1
REMARK VINA RESULT:      -9.1      0.000      0.000
REMARK  Name = 352895
REMARK  5 active torsions:
REMARK  status: ('A' for Active; 'I' for Inactive)
REMARK    1  A    between atoms: C_6  and  C_10
REMARK    2  A    between atoms: C_12  and  C_16
REMARK    3  A    between atoms: C_14  and  O_19
REMARK    4  A    between atoms: N_18  and  C_22
REMARK    5  A    between atoms: C_22  and  C_25
REMARK                            x       y       z     vdW  Elec       q    Type
REMARK                         _______ _______ _______ _____ _____    ______ ____
ROOT
ATOM      1  C   UNL     1      -9.867  55.160  51.012  0.00  0.00    +0.000 A 
ATOM      2  C   UNL     1      -9.743  56.181  49.923  0.00  0.00    +0.000 A 
ATOM      3  C   UNL     1     -11.115  55.076  51.522  0.00  0.00    +0.000 A 
ATOM      4  O   UNL     1      -8.824  56.989  49.897  0.00  0.00    +0.000 OA
ATOM      5  N   UNL     1     -10.791  56.110  48.983  0.00  0.00    +0.000 N 
ATOM      6  C   UNL     1     -12.166  55.972  50.973  0.00  0.00    +0.000 A 
ATOM      7  C   UNL     1     -12.032  56.397  49.636  0.00  0.00    +0.000 A 
ATOM      8  C   UNL     1     -13.235  56.483  51.715  0.00  0.00    +0.000 A 
ATOM      9  N   UNL     1     -12.904  57.224  49.021  0.00  0.00    +0.000 NA
ATOM     10  C   UNL     1     -14.112  57.384  51.110  0.00  0.00    +0.000 A 
ATOM     11  C   UNL     1     -13.918  57.709  49.775  0.00  0.00    +0.000 A 
ENDROOT
BRANCH   1  17
ATOM     12  S   UNL     1      -6.237  53.626  50.505  0.00  0.00    +0.000 S 
ATOM     13  O   UNL     1      -5.363  54.576  49.851  0.00  0.00    +0.000 OA
ATOM     14  O   UNL     1      -6.207  52.216  50.194  0.00  0.00    +0.000 OA
ATOM     15  N   UNL     1      -7.784  54.182  50.333  0.00  0.00    +0.000 N 
ATOM     16  C   UNL     1      -6.077  53.808  52.221  0.00  0.00    +0.000 A 
ATOM     17  C   UNL     1      -8.654  54.389  51.419  0.00  0.00    +0.000 C 
ATOM     18  C   UNL     1      -7.160  53.328  52.926  0.00  0.00    +0.000 A 
ATOM     19  C   UNL     1      -5.165  54.648  52.857  0.00  0.00    +0.000 A 
ATOM     20  N   UNL     1      -8.429  53.921  52.612  0.00  0.00    +0.000 N 
ATOM     21  C   UNL     1      -6.840  53.049  54.256  0.00  0.00    +0.000 A 
ATOM     22  C   UNL     1      -5.349  54.891  54.230  0.00  0.00    +0.000 A 
ATOM     23  C   UNL     1      -6.261  54.114  54.947  0.00  0.00    +0.000 A 
ATOM     24  C   UNL     1      -6.026  51.745  54.502  0.00  0.00    +0.000 C 
ATOM     25  H   UNL     1      -8.112  54.378  49.426  0.00  0.00    +0.000 HD
ATOM     26  H   UNL     1      -9.131  53.972  53.300  0.00  0.00    +0.000 HD
ENDBRANCH   1  17
BRANCH   3  27
ATOM     27  O   UNL     1     -11.496  54.177  52.490  0.00  0.00    +0.000 OA
ATOM     28  H   UNL     1     -11.705  53.295  52.255  0.00  0.00    +0.000 HD
ENDBRANCH   3  27
BRANCH   5  29
ATOM     29  C   UNL     1     -10.787  54.799  48.317  0.00  0.00    +0.000 C 
BRANCH  29  30
ATOM     30  C   UNL     1     -10.019  54.630  47.042  0.00  0.00    +0.000 A 
ATOM     31  C   UNL     1      -8.745  55.168  46.847  0.00  0.00    +0.000 A 
ATOM     32  C   UNL     1     -10.546  53.750  46.077  0.00  0.00    +0.000 A 
ATOM     33  C   UNL     1      -8.019  54.841  45.701  0.00  0.00    +0.000 A 
ATOM     34  C   UNL     1      -9.819  53.423  44.937  0.00  0.00    +0.000 A 
ATOM     35  C   UNL     1      -8.553  53.970  44.750  0.00  0.00    +0.000 A 
ENDBRANCH  29  30
ENDBRANCH   5  29
TORSDOF 4
ENDMDL
MODEL 2
REMARK VINA RESULT:      -8.9      2.133      2.941
REMARK  Name = 352895
REMARK  5 active torsions:
REMARK  status: ('A' for Active; 'I' for Inactive)
REMARK    1  A    between atoms: C_6  and  C_10
REMARK    2  A    between atoms: C_12  and  C_16
REMARK    3  A    between atoms: C_14  and  O_19
REMARK    4  A    between atoms: N_18  and  C_22
REMARK    5  A    between atoms: C_22  and  C_25
REMARK                            x       y       z     vdW  Elec       q    Type
REMARK                         _______ _______ _______ _____ _____    ______ ____
ROOT
ATOM      1  C   UNL     1     -11.095  55.544  50.811  0.00  0.00    +0.000 A 
ATOM      2  C   UNL     1     -10.599  55.777  49.417  0.00  0.00    +0.000 A 
ATOM      3  C   UNL     1     -12.320  56.070  51.035  0.00  0.00    +0.000 A 
ATOM      4  O   UNL     1      -9.465  56.177  49.194  0.00  0.00    +0.000 OA
ATOM      5  N   UNL     1     -11.575  55.509  48.436  0.00  0.00    +0.000 N 
ATOM      6  C   UNL     1     -12.994  56.791  49.924  0.00  0.00    +0.000 A 
ATOM      7  C   UNL     1     -12.675  56.409  48.605  0.00  0.00    +0.000 A 
ATOM      8  C   UNL     1     -13.860  57.875  50.097  0.00  0.00    +0.000 A 
ATOM      9  N   UNL     1     -13.201  56.993  47.508  0.00  0.00    +0.000 NA
ATOM     10  C   UNL     1     -14.366  58.526  48.972  0.00  0.00    +0.000 A 
ATOM     11  C   UNL     1     -14.025  58.046  47.714  0.00  0.00    +0.000 A 
ENDROOT
BRANCH   1  17
ATOM     12  S   UNL     1      -9.978  52.416  52.992  0.00  0.00    +0.000 S 
ATOM     13  O   UNL     1     -10.117  51.187  52.239  0.00  0.00    +0.000 OA
ATOM     14  O   UNL     1     -10.313  52.498  54.394  0.00  0.00    +0.000 OA
ATOM     15  N   UNL     1     -10.805  53.590  52.173  0.00  0.00    +0.000 N 
ATOM     16  C   UNL     1      -8.370  53.024  52.779  0.00  0.00    +0.000 A 
ATOM     17  C   UNL     1     -10.222  54.807  51.773  0.00  0.00    +0.000 C 
ATOM     18  C   UNL     1      -8.257  54.375  53.031  0.00  0.00    +0.000 A 
ATOM     19  C   UNL     1      -7.348  52.368  52.095  0.00  0.00    +0.000 A 
ATOM     20  N   UNL     1      -9.082  55.235  52.231  0.00  0.00    +0.000 N 
ATOM     21  C   UNL     1      -6.942  54.749  53.314  0.00  0.00    +0.000 A 
ATOM     22  C   UNL     1      -6.197  53.110  51.774  0.00  0.00    +0.000 A 
ATOM     23  C   UNL     1      -6.012  54.370  52.347  0.00  0.00    +0.000 A 
ATOM     24  C   UNL     1      -6.420  54.381  54.734  0.00  0.00    +0.000 C 
ATOM     25  H   UNL     1     -11.751  53.430  51.954  0.00  0.00    +0.000 HD
ATOM     26  H   UNL     1      -8.785  56.152  52.029  0.00  0.00    +0.000 HD
ENDBRANCH   1  17
BRANCH   3  27
ATOM     27  O   UNL     1     -13.013  55.941  52.215  0.00  0.00    +0.000 OA
ATOM     28  H   UNL     1     -12.550  55.893  53.028  0.00  0.00    +0.000 HD
ENDBRANCH   3  27
BRANCH   5  29
ATOM     29  C   UNL     1     -11.980  54.097  48.496  0.00  0.00    +0.000 C 
BRANCH  29  30
ATOM     30  C   UNL     1     -11.850  53.247  47.268  0.00  0.00    +0.000 A 
ATOM     31  C   UNL     1     -12.267  51.916  47.220  0.00  0.00    +0.000 A 
ATOM     32  C   UNL     1     -11.447  53.883  46.078  0.00  0.00    +0.000 A 
ATOM     33  C   UNL     1     -12.267  51.229  46.004  0.00  0.00    +0.000 A 
ATOM     34  C   UNL     1     -11.451  53.197  44.867  0.00  0.00    +0.000 A 
ATOM     35  C   UNL     1     -11.863  51.869  44.832  0.00  0.00    +0.000 A 
ENDBRANCH  29  30
ENDBRANCH   5  29
TORSDOF 4
ENDMDL
MODEL 3
REMARK VINA RESULT:      -8.9      3.062      6.577
REMARK  Name = 352895
REMARK  5 active torsions:
REMARK  status: ('A' for Active; 'I' for Inactive)
REMARK    1  A    between atoms: C_6  and  C_10
REMARK    2  A    between atoms: C_12  and  C_16
REMARK    3  A    between atoms: C_14  and  O_19
REMARK    4  A    between atoms: N_18  and  C_22
REMARK    5  A    between atoms: C_22  and  C_25
REMARK                            x       y       z     vdW  Elec       q    Type
REMARK                         _______ _______ _______ _____ _____    ______ ____
ROOT
ATOM      1  C   UNL     1     -11.110  54.320  51.491  0.00  0.00    +0.000 A 
ATOM      2  C   UNL     1     -10.983  53.266  50.435  0.00  0.00    +0.000 A 
ATOM      3  C   UNL     1     -10.422  54.030  52.618  0.00  0.00    +0.000 A 
ATOM      4  O   UNL     1     -11.956  52.839  49.828  0.00  0.00    +0.000 OA
ATOM      5  N   UNL     1      -9.654  52.831  50.252  0.00  0.00    +0.000 N 
ATOM      6  C   UNL     1      -9.662  52.755  52.674  0.00  0.00    +0.000 A 
ATOM      7  C   UNL     1      -9.188  52.220  51.460  0.00  0.00    +0.000 A 
ATOM      8  C   UNL     1      -9.457  52.009  53.838  0.00  0.00    +0.000 A 
ATOM      9  N   UNL     1      -8.500  51.061  51.368  0.00  0.00    +0.000 NA
ATOM     10  C   UNL     1      -8.799  50.782  53.751  0.00  0.00    +0.000 A 
ATOM     11  C   UNL     1      -8.332  50.362  52.514  0.00  0.00    +0.000 A 
ENDROOT
BRANCH   1  17
ATOM     12  S   UNL     1     -12.877  57.029  49.182  0.00  0.00    +0.000 S 
ATOM     13  O   UNL     1     -13.438  56.410  48.000  0.00  0.00    +0.000 OA
ATOM     14  O   UNL     1     -12.221  58.315  49.137  0.00  0.00    +0.000 OA
ATOM     15  N   UNL     1     -11.855  55.929  49.874  0.00  0.00    +0.000 N 
ATOM     16  C   UNL     1     -14.092  57.079  50.417  0.00  0.00    +0.000 A 
ATOM     17  C   UNL     1     -11.959  55.519  51.216  0.00  0.00    +0.000 C 
ATOM     18  C   UNL     1     -13.574  57.191  51.690  0.00  0.00    +0.000 A 
ATOM     19  C   UNL     1     -15.422  56.698  50.250  0.00  0.00    +0.000 A 
ATOM     20  N   UNL     1     -12.679  56.146  52.100  0.00  0.00    +0.000 N 
ATOM     21  C   UNL     1     -14.511  57.691  52.596  0.00  0.00    +0.000 A 
ATOM     22  C   UNL     1     -16.203  56.534  51.408  0.00  0.00    +0.000 A 
ATOM     23  C   UNL     1     -15.712  56.983  52.635  0.00  0.00    +0.000 A 
ATOM     24  C   UNL     1     -14.792  59.220  52.512  0.00  0.00    +0.000 C 
ATOM     25  H   UNL     1     -11.140  55.542  49.320  0.00  0.00    +0.000 HD
ATOM     26  H   UNL     1     -12.609  55.904  53.051  0.00  0.00    +0.000 HD
ENDBRANCH   1  17
BRANCH   3  27
ATOM     27  O   UNL     1     -10.336  54.865  53.707  0.00  0.00    +0.000 OA
ATOM     28  H   UNL     1     -10.383  55.793  53.592  0.00  0.00    +0.000 HD
ENDBRANCH   3  27
BRANCH   5  29
ATOM     29  C   UNL     1      -8.809  53.952  49.816  0.00  0.00    +0.000 C 
BRANCH  29  30
ATOM     30  C   UNL     1      -8.549  54.144  48.353  0.00  0.00    +0.000 A 
ATOM     31  C   UNL     1      -9.430  54.824  47.509  0.00  0.00    +0.000 A 
ATOM     32  C   UNL     1      -7.284  53.767  47.863  0.00  0.00    +0.000 A 
ATOM     33  C   UNL     1      -9.055  55.108  46.194  0.00  0.00    +0.000 A 
ATOM     34  C   UNL     1      -6.912  54.054  46.553  0.00  0.00    +0.000 A 
ATOM     35  C   UNL     1      -7.800  54.726  45.719  0.00  0.00    +0.000 A 
ENDBRANCH  29  30
ENDBRANCH   5  29
TORSDOF 4
ENDMDL
MODEL 4
REMARK VINA RESULT:      -8.8      3.007      7.593
REMARK  Name = 352895
REMARK  5 active torsions:
REMARK  status: ('A' for Active; 'I' for Inactive)
REMARK    1  A    between atoms: C_6  and  C_10
REMARK    2  A    between atoms: C_12  and  C_16
REMARK    3  A    between atoms: C_14  and  O_19
REMARK    4  A    between atoms: N_18  and  C_22
REMARK    5  A    between atoms: C_22  and  C_25
REMARK                            x       y       z     vdW  Elec       q    Type
REMARK                         _______ _______ _______ _____ _____    ______ ____
ROOT
ATOM      1  C   UNL     1     -11.374  54.450  50.832  0.00  0.00    +0.000 A 
ATOM      2  C   UNL     1      -9.950  54.563  50.383  0.00  0.00    +0.000 A 
ATOM      3  C   UNL     1     -11.723  53.192  51.182  0.00  0.00    +0.000 A 
ATOM      4  O   UNL     1      -9.640  55.171  49.368  0.00  0.00    +0.000 OA
ATOM      5  N   UNL     1      -9.052  53.888  51.234  0.00  0.00    +0.000 N 
ATOM      6  C   UNL     1     -10.701  52.119  51.077  0.00  0.00    +0.000 A 
ATOM      7  C   UNL     1      -9.347  52.487  51.216  0.00  0.00    +0.000 A 
ATOM      8  C   UNL     1     -10.984  50.785  50.770  0.00  0.00    +0.000 A 
ATOM      9  N   UNL     1      -8.320  51.616  51.124  0.00  0.00    +0.000 NA
ATOM     10  C   UNL     1      -9.930  49.885  50.614  0.00  0.00    +0.000 A 
ATOM     11  C   UNL     1      -8.633  50.337  50.814  0.00  0.00    +0.000 A 
ENDROOT
BRANCH   1  17
ATOM     12  S   UNL     1     -13.322  57.479  49.154  0.00  0.00    +0.000 S 
ATOM     13  O   UNL     1     -14.000  57.052  47.949  0.00  0.00    +0.000 OA
ATOM     14  O   UNL     1     -12.658  58.759  49.248  0.00  0.00    +0.000 OA
ATOM     15  N   UNL     1     -12.251  56.289  49.565  0.00  0.00    +0.000 N 
ATOM     16  C   UNL     1     -14.412  57.332  50.492  0.00  0.00    +0.000 A 
ATOM     17  C   UNL     1     -12.231  55.673  50.830  0.00  0.00    +0.000 C 
ATOM     18  C   UNL     1     -13.774  57.245  51.712  0.00  0.00    +0.000 A 
ATOM     19  C   UNL     1     -15.757  56.977  50.397  0.00  0.00    +0.000 A 
ATOM     20  N   UNL     1     -12.857  56.152  51.866  0.00  0.00    +0.000 N 
ATOM     21  C   UNL     1     -14.615  57.594  52.771  0.00  0.00    +0.000 A 
ATOM     22  C   UNL     1     -16.426  56.631  51.584  0.00  0.00    +0.000 A 
ATOM     23  C   UNL     1     -15.815  56.885  52.814  0.00  0.00    +0.000 A 
ATOM     24  C   UNL     1     -14.884  59.117  52.953  0.00  0.00    +0.000 C 
ATOM     25  H   UNL     1     -11.596  55.996  48.891  0.00  0.00    +0.000 HD
ATOM     26  H   UNL     1     -12.699  55.765  52.757  0.00  0.00    +0.000 HD
ENDBRANCH   1  17
BRANCH   3  27
ATOM     27  O   UNL     1     -12.956  52.841  51.680  0.00  0.00    +0.000 OA
ATOM     28  H   UNL     1     -13.661  53.458  51.664  0.00  0.00    +0.000 HD
ENDBRANCH   3  27
BRANCH   5  29
ATOM     29  C   UNL     1      -9.103  54.464  52.586  0.00  0.00    +0.000 C 
BRANCH  29  30
ATOM     30  C   UNL     1      -7.862  54.462  53.427  0.00  0.00    +0.000 A 
ATOM     31  C   UNL     1      -7.411  53.330  54.108  0.00  0.00    +0.000 A 
ATOM     32  C   UNL     1      -7.043  55.606  53.379  0.00  0.00    +0.000 A 
ATOM     33  C   UNL     1      -6.167  53.349  54.742  0.00  0.00    +0.000 A 
ATOM     34  C   UNL     1      -5.803  55.621  54.009  0.00  0.00    +0.000 A 
ATOM     35  C   UNL     1      -5.365  54.490  54.691  0.00  0.00    +0.000 A 
ENDBRANCH  29  30
ENDBRANCH   5  29
TORSDOF 4
ENDMDL
MODEL 5
REMARK VINA RESULT:      -8.6      1.826      4.889
REMARK  Name = 352895
REMARK  5 active torsions:
REMARK  status: ('A' for Active; 'I' for Inactive)
REMARK    1  A    between atoms: C_6  and  C_10
REMARK    2  A    between atoms: C_12  and  C_16
REMARK    3  A    between atoms: C_14  and  O_19
REMARK    4  A    between atoms: N_18  and  C_22
REMARK    5  A    between atoms: C_22  and  C_25
REMARK                            x       y       z     vdW  Elec       q    Type
REMARK                         _______ _______ _______ _____ _____    ______ ____
ROOT
ATOM      1  C   UNL     1      -8.535  54.533  49.731  0.00  0.00    +0.000 A 
ATOM      2  C   UNL     1      -9.877  53.916  49.975  0.00  0.00    +0.000 A 
ATOM      3  C   UNL     1      -8.319  54.842  48.433  0.00  0.00    +0.000 A 
ATOM      4  O   UNL     1     -10.011  52.911  50.660  0.00  0.00    +0.000 OA
ATOM      5  N   UNL     1     -10.922  54.601  49.322  0.00  0.00    +0.000 N 
ATOM      6  C   UNL     1      -9.388  54.539  47.447  0.00  0.00    +0.000 A 
ATOM      7  C   UNL     1     -10.721  54.530  47.906  0.00  0.00    +0.000 A 
ATOM      8  C   UNL     1      -9.156  54.185  46.114  0.00  0.00    +0.000 A 
ATOM      9  N   UNL     1     -11.783  54.252  47.120  0.00  0.00    +0.000 NA
ATOM     10  C   UNL     1     -10.239  53.840  45.305  0.00  0.00    +0.000 A 
ATOM     11  C   UNL     1     -11.518  53.902  45.841  0.00  0.00    +0.000 A 
ENDROOT
BRANCH   1  17
ATOM     12  S   UNL     1      -7.557  55.599  53.432  0.00  0.00    +0.000 S 
ATOM     13  O   UNL     1      -8.580  55.192  54.372  0.00  0.00    +0.000 OA
ATOM     14  O   UNL     1      -6.875  56.868  53.542  0.00  0.00    +0.000 OA
ATOM     15  N   UNL     1      -8.203  55.468  51.916  0.00  0.00    +0.000 N 
ATOM     16  C   UNL     1      -6.365  54.347  53.324  0.00  0.00    +0.000 A 
ATOM     17  C   UNL     1      -7.606  54.719  50.886  0.00  0.00    +0.000 C 
ATOM     18  C   UNL     1      -5.630  54.389  52.158  0.00  0.00    +0.000 A 
ATOM     19  C   UNL     1      -6.338  53.195  54.109  0.00  0.00    +0.000 A 
ATOM     20  N   UNL     1      -6.379  54.287  50.938  0.00  0.00    +0.000 N 
ATOM     21  C   UNL     1      -4.414  53.714  52.279  0.00  0.00    +0.000 A 
ATOM     22  C   UNL     1      -5.478  52.156  53.711  0.00  0.00    +0.000 A 
ATOM     23  C   UNL     1      -4.525  52.395  52.720  0.00  0.00    +0.000 A 
ATOM     24  C   UNL     1      -3.301  54.455  53.078  0.00  0.00    +0.000 C 
ATOM     25  H   UNL     1      -9.048  55.936  51.725  0.00  0.00    +0.000 HD
ATOM     26  H   UNL     1      -5.964  53.890  50.139  0.00  0.00    +0.000 HD
ENDBRANCH   1  17
BRANCH   3  27
ATOM     27  O   UNL     1      -7.188  55.469  47.965  0.00  0.00    +0.000 OA
ATOM     28  H   UNL     1      -7.262  56.177  47.357  0.00  0.00    +0.000 HD
ENDBRANCH   3  27
BRANCH   5  29
ATOM     29  C   UNL     1     -11.011  55.982  49.817  0.00  0.00    +0.000 C 
BRANCH  29  30
ATOM     30  C   UNL     1     -12.327  56.496  50.316  0.00  0.00    +0.000 A 
ATOM     31  C   UNL     1     -12.821  56.202  51.588  0.00  0.00    +0.000 A 
ATOM     32  C   UNL     1     -12.997  57.447  49.523  0.00  0.00    +0.000 A 
ATOM     33  C   UNL     1     -13.974  56.840  52.052  0.00  0.00    +0.000 A 
ATOM     34  C   UNL     1     -14.143  58.083  49.989  0.00  0.00    +0.000 A 
ATOM     35  C   UNL     1     -14.631  57.778  51.256  0.00  0.00    +0.000 A 
ENDBRANCH  29  30
ENDBRANCH   5  29
TORSDOF 4
ENDMDL
MODEL 6
REMARK VINA RESULT:      -8.6      1.792      2.387
REMARK  Name = 352895
REMARK  5 active torsions:
REMARK  status: ('A' for Active; 'I' for Inactive)
REMARK    1  A    between atoms: C_6  and  C_10
REMARK    2  A    between atoms: C_12  and  C_16
REMARK    3  A    between atoms: C_14  and  O_19
REMARK    4  A    between atoms: N_18  and  C_22
REMARK    5  A    between atoms: C_22  and  C_25
REMARK                            x       y       z     vdW  Elec       q    Type
REMARK                         _______ _______ _______ _____ _____    ______ ____
ROOT
ATOM      1  C   UNL     1      -9.981  55.142  50.964  0.00  0.00    +0.000 A 
ATOM      2  C   UNL     1      -9.949  56.179  49.884  0.00  0.00    +0.000 A 
ATOM      3  C   UNL     1     -11.174  55.065  51.593  0.00  0.00    +0.000 A 
ATOM      4  O   UNL     1      -9.026  56.975  49.780  0.00  0.00    +0.000 OA
ATOM      5  N   UNL     1     -11.085  56.136  49.050  0.00  0.00    +0.000 N 
ATOM      6  C   UNL     1     -12.261  55.982  51.163  0.00  0.00    +0.000 A 
ATOM      7  C   UNL     1     -12.252  56.428  49.826  0.00  0.00    +0.000 A 
ATOM      8  C   UNL     1     -13.245  56.495  52.014  0.00  0.00    +0.000 A 
ATOM      9  N   UNL     1     -13.168  57.276  49.312  0.00  0.00    +0.000 NA
ATOM     10  C   UNL     1     -14.164  57.417  51.511  0.00  0.00    +0.000 A 
ATOM     11  C   UNL     1     -14.096  57.761  50.168  0.00  0.00    +0.000 A 
ENDROOT
BRANCH   1  17
ATOM     12  S   UNL     1      -7.922  51.827  51.714  0.00  0.00    +0.000 S 
ATOM     13  O   UNL     1      -8.395  50.730  50.897  0.00  0.00    +0.000 OA
ATOM     14  O   UNL     1      -7.539  51.645  53.095  0.00  0.00    +0.000 OA
ATOM     15  N   UNL     1      -9.051  53.031  51.625  0.00  0.00    +0.000 N 
ATOM     16  C   UNL     1      -6.621  52.620  50.888  0.00  0.00    +0.000 A 
ATOM     17  C   UNL     1      -8.745  54.348  51.239  0.00  0.00    +0.000 C 
ATOM     18  C   UNL     1      -6.413  53.916  51.310  0.00  0.00    +0.000 A 
ATOM     19  C   UNL     1      -6.050  52.190  49.691  0.00  0.00    +0.000 A 
ATOM     20  N   UNL     1      -7.530  54.808  51.176  0.00  0.00    +0.000 N 
ATOM     21  C   UNL     1      -5.128  54.368  51.005  0.00  0.00    +0.000 A 
ATOM     22  C   UNL     1      -5.205  53.086  49.014  0.00  0.00    +0.000 A 
ATOM     23  C   UNL     1      -4.777  54.248  49.660  0.00  0.00    +0.000 A 
ATOM     24  C   UNL     1      -3.982  53.827  51.910  0.00  0.00    +0.000 C 
ATOM     25  H   UNL     1      -9.985  52.814  51.852  0.00  0.00    +0.000 HD
ATOM     26  H   UNL     1      -7.375  55.770  51.037  0.00  0.00    +0.000 HD
ENDBRANCH   1  17
BRANCH   3  27
ATOM     27  O   UNL     1     -11.471  54.155  52.580  0.00  0.00    +0.000 OA
ATOM     28  H   UNL     1     -12.300  54.188  53.016  0.00  0.00    +0.000 HD
ENDBRANCH   3  27
BRANCH   5  29
ATOM     29  C   UNL     1     -11.164  54.836  48.368  0.00  0.00    +0.000 C 
BRANCH  29  30
ATOM     30  C   UNL     1     -10.033  54.405  47.484  0.00  0.00    +0.000 A 
ATOM     31  C   UNL     1      -9.394  55.271  46.595  0.00  0.00    +0.000 A 
ATOM     32  C   UNL     1      -9.496  53.121  47.697  0.00  0.00    +0.000 A 
ATOM     33  C   UNL     1      -8.246  54.852  45.919  0.00  0.00    +0.000 A 
ATOM     34  C   UNL     1      -8.350  52.708  47.025  0.00  0.00    +0.000 A 
ATOM     35  C   UNL     1      -7.725  53.576  46.135  0.00  0.00    +0.000 A 
ENDBRANCH  29  30
ENDBRANCH   5  29
TORSDOF 4
ENDMDL
MODEL 7
REMARK VINA RESULT:      -8.6      1.440      1.901
REMARK  Name = 352895
REMARK  5 active torsions:
REMARK  status: ('A' for Active; 'I' for Inactive)
REMARK    1  A    between atoms: C_6  and  C_10
REMARK    2  A    between atoms: C_12  and  C_16
REMARK    3  A    between atoms: C_14  and  O_19
REMARK    4  A    between atoms: N_18  and  C_22
REMARK    5  A    between atoms: C_22  and  C_25
REMARK                            x       y       z     vdW  Elec       q    Type
REMARK                         _______ _______ _______ _____ _____    ______ ____
ROOT
ATOM      1  C   UNL     1     -10.088  55.264  50.874  0.00  0.00    +0.000 A 
ATOM      2  C   UNL     1      -9.921  56.267  49.774  0.00  0.00    +0.000 A 
ATOM      3  C   UNL     1     -11.346  55.218  51.365  0.00  0.00    +0.000 A 
ATOM      4  O   UNL     1      -8.982  57.051  49.752  0.00  0.00    +0.000 OA
ATOM      5  N   UNL     1     -10.955  56.208  48.818  0.00  0.00    +0.000 N 
ATOM      6  C   UNL     1     -12.365  56.131  50.787  0.00  0.00    +0.000 A 
ATOM      7  C   UNL     1     -12.199  56.535  49.447  0.00  0.00    +0.000 A 
ATOM      8  C   UNL     1     -13.432  56.679  51.505  0.00  0.00    +0.000 A 
ATOM      9  N   UNL     1     -13.040  57.375  48.807  0.00  0.00    +0.000 NA
ATOM     10  C   UNL     1     -14.276  57.593  50.874  0.00  0.00    +0.000 A 
ATOM     11  C   UNL     1     -14.053  57.895  49.538  0.00  0.00    +0.000 A 
ENDROOT
BRANCH   1  17
ATOM     12  S   UNL     1      -6.569  54.717  52.637  0.00  0.00    +0.000 S 
ATOM     13  O   UNL     1      -6.510  55.422  53.900  0.00  0.00    +0.000 OA
ATOM     14  O   UNL     1      -5.438  54.656  51.739  0.00  0.00    +0.000 OA
ATOM     15  N   UNL     1      -7.879  55.295  51.811  0.00  0.00    +0.000 N 
ATOM     16  C   UNL     1      -7.124  53.101  52.922  0.00  0.00    +0.000 A 
ATOM     17  C   UNL     1      -8.901  54.468  51.311  0.00  0.00    +0.000 C 
ATOM     18  C   UNL     1      -7.667  52.503  51.805  0.00  0.00    +0.000 A 
ATOM     19  C   UNL     1      -7.357  52.543  54.178  0.00  0.00    +0.000 A 
ATOM     20  N   UNL     1      -8.788  53.176  51.212  0.00  0.00    +0.000 N 
ATOM     21  C   UNL     1      -7.673  51.110  51.905  0.00  0.00    +0.000 A 
ATOM     22  C   UNL     1      -8.065  51.330  54.231  0.00  0.00    +0.000 A 
ATOM     23  C   UNL     1      -8.292  50.615  53.053  0.00  0.00    +0.000 A 
ATOM     24  C   UNL     1      -6.301  50.406  51.689  0.00  0.00    +0.000 C 
ATOM     25  H   UNL     1      -7.948  56.266  51.663  0.00  0.00    +0.000 HD
ATOM     26  H   UNL     1      -9.472  52.658  50.729  0.00  0.00    +0.000 HD
ENDBRANCH   1  17
BRANCH   3  27
ATOM     27  O   UNL     1     -11.764  54.341  52.339  0.00  0.00    +0.000 OA
ATOM     28  H   UNL     1     -11.570  54.512  53.239  0.00  0.00    +0.000 HD
ENDBRANCH   3  27
BRANCH   5  29
ATOM     29  C   UNL     1     -10.973  54.889  48.170  0.00  0.00    +0.000 C 
BRANCH  29  30
ATOM     30  C   UNL     1     -10.148  54.669  46.938  0.00  0.00    +0.000 A 
ATOM     31  C   UNL     1      -8.853  55.168  46.795  0.00  0.00    +0.000 A 
ATOM     32  C   UNL     1     -10.651  53.780  45.970  0.00  0.00    +0.000 A 
ATOM     33  C   UNL     1      -8.080  54.795  45.694  0.00  0.00    +0.000 A 
ATOM     34  C   UNL     1      -9.878  53.406  44.875  0.00  0.00    +0.000 A 
ATOM     35  C   UNL     1      -8.590  53.915  44.738  0.00  0.00    +0.000 A 
ENDBRANCH  29  30
ENDBRANCH   5  29
TORSDOF 4
ENDMDL
MODEL 8
REMARK VINA RESULT:      -8.5      2.922      5.704
REMARK  Name = 352895
REMARK  5 active torsions:
REMARK  status: ('A' for Active; 'I' for Inactive)
REMARK    1  A    between atoms: C_6  and  C_10
REMARK    2  A    between atoms: C_12  and  C_16
REMARK    3  A    between atoms: C_14  and  O_19
REMARK    4  A    between atoms: N_18  and  C_22
REMARK    5  A    between atoms: C_22  and  C_25
REMARK                            x       y       z     vdW  Elec       q    Type
REMARK                         _______ _______ _______ _____ _____    ______ ____
ROOT
ATOM      1  C   UNL     1     -11.967  54.440  49.013  0.00  0.00    +0.000 A 
ATOM      2  C   UNL     1     -12.013  54.027  50.451  0.00  0.00    +0.000 A 
ATOM      3  C   UNL     1     -12.794  55.471  48.729  0.00  0.00    +0.000 A 
ATOM      4  O   UNL     1     -12.105  52.852  50.783  0.00  0.00    +0.000 OA
ATOM      5  N   UNL     1     -11.963  55.121  51.338  0.00  0.00    +0.000 N 
ATOM      6  C   UNL     1     -13.619  56.039  49.826  0.00  0.00    +0.000 A 
ATOM      7  C   UNL     1     -13.119  55.943  51.140  0.00  0.00    +0.000 A 
ATOM      8  C   UNL     1     -14.892  56.590  49.653  0.00  0.00    +0.000 A 
ATOM      9  N   UNL     1     -13.774  56.401  52.228  0.00  0.00    +0.000 NA
ATOM     10  C   UNL     1     -15.606  57.015  50.774  0.00  0.00    +0.000 A 
ATOM     11  C   UNL     1     -15.008  56.916  52.022  0.00  0.00    +0.000 A 
ENDROOT
BRANCH   1  17
ATOM     12  S   UNL     1     -11.005  52.682  45.582  0.00  0.00    +0.000 S 
ATOM     13  O   UNL     1     -11.465  53.465  44.455  0.00  0.00    +0.000 OA
ATOM     14  O   UNL     1     -11.076  51.239  45.593  0.00  0.00    +0.000 OA
ATOM     15  N   UNL     1     -11.762  53.268  46.929  0.00  0.00    +0.000 N 
ATOM     16  C   UNL     1      -9.381  53.150  45.963  0.00  0.00    +0.000 A 
ATOM     17  C   UNL     1     -11.071  53.697  48.077  0.00  0.00    +0.000 C 
ATOM     18  C   UNL     1      -9.013  52.847  47.257  0.00  0.00    +0.000 A 
ATOM     19  C   UNL     1      -8.609  54.046  45.224  0.00  0.00    +0.000 A 
ATOM     20  N   UNL     1      -9.815  53.433  48.293  0.00  0.00    +0.000 N 
ATOM     21  C   UNL     1      -7.626  52.788  47.409  0.00  0.00    +0.000 A 
ATOM     22  C   UNL     1      -7.428  54.530  45.814  0.00  0.00    +0.000 A 
ATOM     23  C   UNL     1      -6.948  53.929  46.980  0.00  0.00    +0.000 A 
ATOM     24  C   UNL     1      -6.933  51.511  46.849  0.00  0.00    +0.000 C 
ATOM     25  H   UNL     1     -12.745  53.319  46.929  0.00  0.00    +0.000 HD
ATOM     26  H   UNL     1      -9.415  53.633  49.170  0.00  0.00    +0.000 HD
ENDBRANCH   1  17
BRANCH   3  27
ATOM     27  O   UNL     1     -12.890  56.067  47.494  0.00  0.00    +0.000 OA
ATOM     28  H   UNL     1     -12.404  55.727  46.769  0.00  0.00    +0.000 HD
ENDBRANCH   3  27
BRANCH   5  29
ATOM     29  C   UNL     1     -10.703  55.857  51.164  0.00  0.00    +0.000 C 
BRANCH  29  30
ATOM     30  C   UNL     1      -9.426  55.246  51.657  0.00  0.00    +0.000 A 
ATOM     31  C   UNL     1      -8.253  55.229  50.901  0.00  0.00    +0.000 A 
ATOM     32  C   UNL     1      -9.382  54.831  53.002  0.00  0.00    +0.000 A 
ATOM     33  C   UNL     1      -7.059  54.790  51.477  0.00  0.00    +0.000 A 
ATOM     34  C   UNL     1      -8.190  54.397  53.575  0.00  0.00    +0.000 A 
ATOM     35  C   UNL     1      -7.028  54.378  52.810  0.00  0.00    +0.000 A 
ENDBRANCH  29  30
ENDBRANCH   5  29
TORSDOF 4
ENDMDL
MODEL 9
REMARK VINA RESULT:      -8.4      2.290      6.845
REMARK  Name = 352895
REMARK  5 active torsions:
REMARK  status: ('A' for Active; 'I' for Inactive)
REMARK    1  A    between atoms: C_6  and  C_10
REMARK    2  A    between atoms: C_12  and  C_16
REMARK    3  A    between atoms: C_14  and  O_19
REMARK    4  A    between atoms: N_18  and  C_22
REMARK    5  A    between atoms: C_22  and  C_25
REMARK                            x       y       z     vdW  Elec       q    Type
REMARK                         _______ _______ _______ _____ _____    ______ ____
ROOT
ATOM      1  C   UNL     1      -7.119  54.657  50.203  0.00  0.00    +0.000 A 
ATOM      2  C   UNL     1      -7.585  55.625  51.246  0.00  0.00    +0.000 A 
ATOM      3  C   UNL     1      -6.007  53.979  50.564  0.00  0.00    +0.000 A 
ATOM      4  O   UNL     1      -7.898  56.774  50.966  0.00  0.00    +0.000 OA
ATOM      5  N   UNL     1      -7.593  55.072  52.542  0.00  0.00    +0.000 N 
ATOM      6  C   UNL     1      -5.402  54.269  51.890  0.00  0.00    +0.000 A 
ATOM      7  C   UNL     1      -6.256  54.722  52.915  0.00  0.00    +0.000 A 
ATOM      8  C   UNL     1      -4.033  54.198  52.166  0.00  0.00    +0.000 A 
ATOM      9  N   UNL     1      -5.833  55.038  54.158  0.00  0.00    +0.000 NA
ATOM     10  C   UNL     1      -3.575  54.576  53.428  0.00  0.00    +0.000 A 
ATOM     11  C   UNL     1      -4.501  54.969  54.384  0.00  0.00    +0.000 A 
ENDROOT
BRANCH   1  17
ATOM     12  S   UNL     1      -7.633  53.676  46.387  0.00  0.00    +0.000 S 
ATOM     13  O   UNL     1      -7.074  52.369  46.111  0.00  0.00    +0.000 OA
ATOM     14  O   UNL     1      -7.518  54.772  45.453  0.00  0.00    +0.000 OA
ATOM     15  N   UNL     1      -7.051  54.159  47.856  0.00  0.00    +0.000 N 
ATOM     16  C   UNL     1      -9.303  53.492  46.808  0.00  0.00    +0.000 A 
ATOM     17  C   UNL     1      -7.880  54.555  48.922  0.00  0.00    +0.000 C 
ATOM     18  C   UNL     1      -9.805  54.552  47.534  0.00  0.00    +0.000 A 
ATOM     19  C   UNL     1     -10.014  52.294  46.765  0.00  0.00    +0.000 A 
ATOM     20  N   UNL     1      -9.143  54.833  48.776  0.00  0.00    +0.000 N 
ATOM     21  C   UNL     1     -11.197  54.625  47.462  0.00  0.00    +0.000 A 
ATOM     22  C   UNL     1     -11.269  52.258  47.399  0.00  0.00    +0.000 A 
ATOM     23  C   UNL     1     -11.858  53.451  47.822  0.00  0.00    +0.000 A 
ATOM     24  C   UNL     1     -11.782  55.183  46.131  0.00  0.00    +0.000 C 
ATOM     25  H   UNL     1      -6.076  54.170  47.993  0.00  0.00    +0.000 HD
ATOM     26  H   UNL     1      -9.646  55.238  49.519  0.00  0.00    +0.000 HD
ENDBRANCH   1  17
BRANCH   3  27
ATOM     27  O   UNL     1      -5.419  52.996  49.804  0.00  0.00    +0.000 OA
ATOM     28  H   UNL     1      -4.641  52.571  50.106  0.00  0.00    +0.000 HD
ENDBRANCH   3  27
BRANCH   5  29
ATOM     29  C   UNL     1      -8.518  53.931  52.601  0.00  0.00    +0.000 C 
BRANCH  29  30
ATOM     30  C   UNL     1      -9.966  54.148  52.283  0.00  0.00    +0.000 A 
ATOM     31  C   UNL     1     -10.618  55.362  52.509  0.00  0.00    +0.000 A 
ATOM     32  C   UNL     1     -10.635  53.132  51.573  0.00  0.00    +0.000 A 
ATOM     33  C   UNL     1     -11.921  55.550  52.044  0.00  0.00    +0.000 A 
ATOM     34  C   UNL     1     -11.933  53.324  51.109  0.00  0.00    +0.000 A 
ATOM     35  C   UNL     1     -12.575  54.535  51.345  0.00  0.00    +0.000 A 
ENDBRANCH  29  30
ENDBRANCH   5  29
TORSDOF 4
ENDMDL
