MODEL 1
REMARK VINA RESULT:      -9.0      0.000      0.000
REMARK  Name = 352867
REMARK  5 active torsions:
REMARK  status: ('A' for Active; 'I' for Inactive)
REMARK    1  A    between atoms: C_6  and  C_10
REMARK    2  A    between atoms: C_14  and  O_18
REMARK    3  A    between atoms: C_15  and  O_20
REMARK    4  A    between atoms: N_17  and  C_22
REMARK    5  A    between atoms: C_22  and  C_25
REMARK                            x       y       z     vdW  Elec       q    Type
REMARK                         _______ _______ _______ _____ _____    ______ ____
ROOT
ATOM      1  C   UNL     1     -10.630  55.769  50.748  0.00  0.00    +0.000 A 
ATOM      2  C   UNL     1     -10.103  56.146  49.407  0.00  0.00    +0.000 A 
ATOM      3  C   UNL     1     -11.971  55.820  50.878  0.00  0.00    +0.000 A 
ATOM      4  O   UNL     1      -9.088  56.819  49.284  0.00  0.00    +0.000 OA
ATOM      5  N   UNL     1     -10.853  55.573  48.357  0.00  0.00    +0.000 N 
ATOM      6  C   UNL     1     -12.748  56.277  49.724  0.00  0.00    +0.000 A 
ATOM      7  C   UNL     1     -12.218  56.034  48.438  0.00  0.00    +0.000 A 
ATOM      8  C   UNL     1     -13.938  56.988  49.849  0.00  0.00    +0.000 A 
ATOM      9  N   UNL     1     -12.808  56.487  47.314  0.00  0.00    +0.000 NA
ATOM     10  C   UNL     1     -14.520  57.512  48.704  0.00  0.00    +0.000 A 
ATOM     11  C   UNL     1     -13.930  57.234  47.477  0.00  0.00    +0.000 A 
ENDROOT
BRANCH   1  17
ATOM     12  S   UNL     1      -9.550  52.715  52.797  0.00  0.00    +0.000 S 
ATOM     13  O   UNL     1     -10.372  52.390  53.937  0.00  0.00    +0.000 OA
ATOM     14  O   UNL     1      -9.122  51.688  51.865  0.00  0.00    +0.000 OA
ATOM     15  N   UNL     1     -10.324  53.844  51.965  0.00  0.00    +0.000 N 
ATOM     16  C   UNL     1      -8.090  53.443  53.431  0.00  0.00    +0.000 A 
ATOM     17  C   UNL     1      -9.783  54.992  51.693  0.00  0.00    +0.000 C 
ATOM     18  C   UNL     1      -7.747  54.736  53.018  0.00  0.00    +0.000 A 
ATOM     19  C   UNL     1      -7.330  52.706  54.337  0.00  0.00    +0.000 A 
ATOM     20  N   UNL     1      -8.561  55.450  52.130  0.00  0.00    +0.000 N 
ATOM     21  C   UNL     1      -6.588  55.295  53.566  0.00  0.00    +0.000 A 
ATOM     22  C   UNL     1      -6.186  53.276  54.871  0.00  0.00    +0.000 A 
ATOM     23  C   UNL     1      -5.824  54.559  54.483  0.00  0.00    +0.000 A 
ATOM     24  H   UNL     1     -11.240  53.661  51.649  0.00  0.00    +0.000 HD
ATOM     25  H   UNL     1      -8.244  56.323  51.803  0.00  0.00    +0.000 HD
BRANCH  23  26
ATOM     26  O   UNL     1      -4.694  55.075  55.043  0.00  0.00    +0.000 OA
ATOM     27  H   UNL     1      -3.968  55.312  54.500  0.00  0.00    +0.000 HD
ENDBRANCH  23  26
ENDBRANCH   1  17
BRANCH   3  28
ATOM     28  O   UNL     1     -12.702  55.324  51.933  0.00  0.00    +0.000 OA
ATOM     29  H   UNL     1     -12.306  55.235  52.777  0.00  0.00    +0.000 HD
ENDBRANCH   3  28
BRANCH   5  30
ATOM     30  C   UNL     1     -10.710  54.097  48.379  0.00  0.00    +0.000 C 
BRANCH  30  31
ATOM     31  C   UNL     1     -11.109  53.308  47.163  0.00  0.00    +0.000 A 
ATOM     32  C   UNL     1     -11.995  52.231  47.243  0.00  0.00    +0.000 A 
ATOM     33  C   UNL     1     -10.706  53.757  45.889  0.00  0.00    +0.000 A 
ATOM     34  C   UNL     1     -12.413  51.574  46.084  0.00  0.00    +0.000 A 
ATOM     35  C   UNL     1     -11.122  53.099  44.732  0.00  0.00    +0.000 A 
ATOM     36  C   UNL     1     -11.967  51.997  44.832  0.00  0.00    +0.000 A 
ENDBRANCH  30  31
ENDBRANCH   5  30
TORSDOF 5
ENDMDL
MODEL 2
REMARK VINA RESULT:      -9.0      1.333      2.303
REMARK  Name = 352867
REMARK  5 active torsions:
REMARK  status: ('A' for Active; 'I' for Inactive)
REMARK    1  A    between atoms: C_6  and  C_10
REMARK    2  A    between atoms: C_14  and  O_18
REMARK    3  A    between atoms: C_15  and  O_20
REMARK    4  A    between atoms: N_17  and  C_22
REMARK    5  A    between atoms: C_22  and  C_25
REMARK                            x       y       z     vdW  Elec       q    Type
REMARK                         _______ _______ _______ _____ _____    ______ ____
ROOT
ATOM      1  C   UNL     1     -10.414  55.700  50.880  0.00  0.00    +0.000 A 
ATOM      2  C   UNL     1      -9.942  56.192  49.556  0.00  0.00    +0.000 A 
ATOM      3  C   UNL     1     -11.752  55.653  51.036  0.00  0.00    +0.000 A 
ATOM      4  O   UNL     1      -8.976  56.938  49.457  0.00  0.00    +0.000 OA
ATOM      5  N   UNL     1     -10.674  55.635  48.486  0.00  0.00    +0.000 N 
ATOM      6  C   UNL     1     -12.582  56.126  49.926  0.00  0.00    +0.000 A 
ATOM      7  C   UNL     1     -12.065  55.998  48.618  0.00  0.00    +0.000 A 
ATOM      8  C   UNL     1     -13.813  56.747  50.116  0.00  0.00    +0.000 A 
ATOM      9  N   UNL     1     -12.707  56.477  47.535  0.00  0.00    +0.000 NA
ATOM     10  C   UNL     1     -14.454  57.299  49.015  0.00  0.00    +0.000 A 
ATOM     11  C   UNL     1     -13.872  57.136  47.764  0.00  0.00    +0.000 A 
ENDROOT
BRANCH   1  17
ATOM     12  S   UNL     1      -7.177  54.966  52.796  0.00  0.00    +0.000 S 
ATOM     13  O   UNL     1      -6.034  54.594  51.997  0.00  0.00    +0.000 OA
ATOM     14  O   UNL     1      -7.061  55.949  53.858  0.00  0.00    +0.000 OA
ATOM     15  N   UNL     1      -8.316  55.464  51.785  0.00  0.00    +0.000 N 
ATOM     16  C   UNL     1      -7.755  53.495  53.549  0.00  0.00    +0.000 A 
ATOM     17  C   UNL     1      -9.497  54.926  51.760  0.00  0.00    +0.000 C 
ATOM     18  C   UNL     1      -9.075  53.092  53.317  0.00  0.00    +0.000 A 
ATOM     19  C   UNL     1      -6.867  52.773  54.345  0.00  0.00    +0.000 A 
ATOM     20  N   UNL     1      -9.920  53.834  52.483  0.00  0.00    +0.000 N 
ATOM     21  C   UNL     1      -9.493  51.898  53.914  0.00  0.00    +0.000 A 
ATOM     22  C   UNL     1      -7.297  51.592  54.926  0.00  0.00    +0.000 A 
ATOM     23  C   UNL     1      -8.600  51.166  54.710  0.00  0.00    +0.000 A 
ATOM     24  H   UNL     1      -8.114  56.202  51.165  0.00  0.00    +0.000 HD
ATOM     25  H   UNL     1     -10.863  53.561  52.409  0.00  0.00    +0.000 HD
BRANCH  23  26
ATOM     26  O   UNL     1      -8.970  49.995  55.300  0.00  0.00    +0.000 OA
ATOM     27  H   UNL     1      -9.364  49.316  54.788  0.00  0.00    +0.000 HD
ENDBRANCH  23  26
ENDBRANCH   1  17
BRANCH   3  28
ATOM     28  O   UNL     1     -12.426  55.046  52.071  0.00  0.00    +0.000 OA
ATOM     29  H   UNL     1     -13.075  54.395  51.890  0.00  0.00    +0.000 HD
ENDBRANCH   3  28
BRANCH   5  30
ATOM     30  C   UNL     1     -10.434  54.173  48.413  0.00  0.00    +0.000 C 
BRANCH  30  31
ATOM     31  C   UNL     1     -10.953  53.407  47.229  0.00  0.00    +0.000 A 
ATOM     32  C   UNL     1     -11.866  52.360  47.373  0.00  0.00    +0.000 A 
ATOM     33  C   UNL     1     -10.635  53.851  45.930  0.00  0.00    +0.000 A 
ATOM     34  C   UNL     1     -12.395  51.725  46.247  0.00  0.00    +0.000 A 
ATOM     35  C   UNL     1     -11.162  53.215  44.805  0.00  0.00    +0.000 A 
ATOM     36  C   UNL     1     -12.034  52.142  44.966  0.00  0.00    +0.000 A 
ENDBRANCH  30  31
ENDBRANCH   5  30
TORSDOF 5
ENDMDL
MODEL 3
REMARK VINA RESULT:      -8.6      3.108      6.393
REMARK  Name = 352867
REMARK  5 active torsions:
REMARK  status: ('A' for Active; 'I' for Inactive)
REMARK    1  A    between atoms: C_6  and  C_10
REMARK    2  A    between atoms: C_14  and  O_18
REMARK    3  A    between atoms: C_15  and  O_20
REMARK    4  A    between atoms: N_17  and  C_22
REMARK    5  A    between atoms: C_22  and  C_25
REMARK                            x       y       z     vdW  Elec       q    Type
REMARK                         _______ _______ _______ _____ _____    ______ ____
ROOT
ATOM      1  C   UNL     1     -11.415  54.957  50.774  0.00  0.00    +0.000 A 
ATOM      2  C   UNL     1     -11.846  53.532  50.791  0.00  0.00    +0.000 A 
ATOM      3  C   UNL     1     -10.181  55.182  50.282  0.00  0.00    +0.000 A 
ATOM      4  O   UNL     1     -12.473  53.064  51.734  0.00  0.00    +0.000 OA
ATOM      5  N   UNL     1     -11.521  52.860  49.594  0.00  0.00    +0.000 N 
ATOM      6  C   UNL     1      -9.392  54.019  49.869  0.00  0.00    +0.000 A 
ATOM      7  C   UNL     1     -10.091  52.884  49.405  0.00  0.00    +0.000 A 
ATOM      8  C   UNL     1      -8.005  53.971  49.978  0.00  0.00    +0.000 A 
ATOM      9  N   UNL     1      -9.469  51.732  49.082  0.00  0.00    +0.000 NA
ATOM     10  C   UNL     1      -7.361  52.773  49.707  0.00  0.00    +0.000 A 
ATOM     11  C   UNL     1      -8.124  51.699  49.263  0.00  0.00    +0.000 A 
ENDROOT
BRANCH   1  17
ATOM     12  S   UNL     1     -14.222  56.998  52.401  0.00  0.00    +0.000 S 
ATOM     13  O   UNL     1     -15.520  56.369  52.451  0.00  0.00    +0.000 OA
ATOM     14  O   UNL     1     -13.667  57.662  53.566  0.00  0.00    +0.000 OA
ATOM     15  N   UNL     1     -13.176  55.882  51.923  0.00  0.00    +0.000 N 
ATOM     16  C   UNL     1     -14.306  58.208  51.140  0.00  0.00    +0.000 A 
ATOM     17  C   UNL     1     -12.426  56.044  50.877  0.00  0.00    +0.000 C 
ATOM     18  C   UNL     1     -13.406  58.131  50.070  0.00  0.00    +0.000 A 
ATOM     19  C   UNL     1     -15.281  59.198  51.245  0.00  0.00    +0.000 A 
ATOM     20  N   UNL     1     -12.465  57.097  49.992  0.00  0.00    +0.000 N 
ATOM     21  C   UNL     1     -13.521  59.100  49.068  0.00  0.00    +0.000 A 
ATOM     22  C   UNL     1     -15.382  60.148  50.242  0.00  0.00    +0.000 A 
ATOM     23  C   UNL     1     -14.505  60.094  49.167  0.00  0.00    +0.000 A 
ATOM     24  H   UNL     1     -13.100  55.046  52.440  0.00  0.00    +0.000 HD
ATOM     25  H   UNL     1     -11.799  57.124  49.268  0.00  0.00    +0.000 HD
BRANCH  23  26
ATOM     26  O   UNL     1     -14.651  61.049  48.206  0.00  0.00    +0.000 OA
ATOM     27  H   UNL     1     -14.010  61.132  47.527  0.00  0.00    +0.000 HD
ENDBRANCH  23  26
ENDBRANCH   1  17
BRANCH   3  28
ATOM     28  O   UNL     1      -9.645  56.411  49.968  0.00  0.00    +0.000 OA
ATOM     29  H   UNL     1     -10.193  57.085  49.617  0.00  0.00    +0.000 HD
ENDBRANCH   3  28
BRANCH   5  30
ATOM     30  C   UNL     1     -12.291  53.436  48.464  0.00  0.00    +0.000 C 
BRANCH  30  31
ATOM     31  C   UNL     1     -11.942  53.027  47.061  0.00  0.00    +0.000 A 
ATOM     32  C   UNL     1     -12.224  51.748  46.576  0.00  0.00    +0.000 A 
ATOM     33  C   UNL     1     -11.462  53.999  46.161  0.00  0.00    +0.000 A 
ATOM     34  C   UNL     1     -11.967  51.427  45.241  0.00  0.00    +0.000 A 
ATOM     35  C   UNL     1     -11.204  53.677  44.828  0.00  0.00    +0.000 A 
ATOM     36  C   UNL     1     -11.445  52.384  44.373  0.00  0.00    +0.000 A 
ENDBRANCH  30  31
ENDBRANCH   5  30
TORSDOF 5
ENDMDL
MODEL 4
REMARK VINA RESULT:      -8.6      1.979      4.574
REMARK  Name = 352867
REMARK  5 active torsions:
REMARK  status: ('A' for Active; 'I' for Inactive)
REMARK    1  A    between atoms: C_6  and  C_10
REMARK    2  A    between atoms: C_14  and  O_18
REMARK    3  A    between atoms: C_15  and  O_20
REMARK    4  A    between atoms: N_17  and  C_22
REMARK    5  A    between atoms: C_22  and  C_25
REMARK                            x       y       z     vdW  Elec       q    Type
REMARK                         _______ _______ _______ _____ _____    ______ ____
ROOT
ATOM      1  C   UNL     1      -9.886  53.107  48.578  0.00  0.00    +0.000 A 
ATOM      2  C   UNL     1     -11.270  53.176  48.031  0.00  0.00    +0.000 A 
ATOM      3  C   UNL     1      -8.911  52.930  47.664  0.00  0.00    +0.000 A 
ATOM      4  O   UNL     1     -12.211  52.637  48.601  0.00  0.00    +0.000 OA
ATOM      5  N   UNL     1     -11.348  53.980  46.874  0.00  0.00    +0.000 N 
ATOM      6  C   UNL     1      -9.312  52.781  46.264  0.00  0.00    +0.000 A 
ATOM      7  C   UNL     1     -10.498  53.425  45.848  0.00  0.00    +0.000 A 
ATOM      8  C   UNL     1      -8.613  51.986  45.360  0.00  0.00    +0.000 A 
ATOM      9  N   UNL     1     -11.002  53.283  44.606  0.00  0.00    +0.000 NA
ATOM     10  C   UNL     1      -9.155  51.784  44.099  0.00  0.00    +0.000 A 
ATOM     11  C   UNL     1     -10.332  52.448  43.772  0.00  0.00    +0.000 A 
ENDROOT
BRANCH   1  17
ATOM     12  S   UNL     1     -10.666  54.100  52.197  0.00  0.00    +0.000 S 
ATOM     13  O   UNL     1     -11.455  55.296  52.374  0.00  0.00    +0.000 OA
ATOM     14  O   UNL     1     -10.971  52.886  52.932  0.00  0.00    +0.000 OA
ATOM     15  N   UNL     1     -10.686  53.749  50.633  0.00  0.00    +0.000 N 
ATOM     16  C   UNL     1      -9.020  54.526  52.615  0.00  0.00    +0.000 A 
ATOM     17  C   UNL     1      -9.595  53.627  49.941  0.00  0.00    +0.000 C 
ATOM     18  C   UNL     1      -8.014  54.350  51.658  0.00  0.00    +0.000 A 
ATOM     19  C   UNL     1      -8.779  55.039  53.888  0.00  0.00    +0.000 A 
ATOM     20  N   UNL     1      -8.311  53.862  50.379  0.00  0.00    +0.000 N 
ATOM     21  C   UNL     1      -6.717  54.727  52.019  0.00  0.00    +0.000 A 
ATOM     22  C   UNL     1      -7.488  55.409  54.228  0.00  0.00    +0.000 A 
ATOM     23  C   UNL     1      -6.471  55.249  53.297  0.00  0.00    +0.000 A 
ATOM     24  H   UNL     1     -11.553  53.622  50.184  0.00  0.00    +0.000 HD
ATOM     25  H   UNL     1      -7.566  53.677  49.764  0.00  0.00    +0.000 HD
BRANCH  23  26
ATOM     26  O   UNL     1      -5.221  55.634  53.679  0.00  0.00    +0.000 OA
ATOM     27  H   UNL     1      -4.740  56.249  53.162  0.00  0.00    +0.000 HD
ENDBRANCH  23  26
ENDBRANCH   1  17
BRANCH   3  28
ATOM     28  O   UNL     1      -7.558  53.045  47.891  0.00  0.00    +0.000 OA
ATOM     29  H   UNL     1      -6.969  53.144  47.170  0.00  0.00    +0.000 HD
ENDBRANCH   3  28
BRANCH   5  30
ATOM     30  C   UNL     1     -11.044  55.391  47.215  0.00  0.00    +0.000 C 
BRANCH  30  31
ATOM     31  C   UNL     1     -12.106  56.226  47.874  0.00  0.00    +0.000 A 
ATOM     32  C   UNL     1     -11.974  56.682  49.188  0.00  0.00    +0.000 A 
ATOM     33  C   UNL     1     -13.190  56.694  47.104  0.00  0.00    +0.000 A 
ATOM     34  C   UNL     1     -12.938  57.528  49.741  0.00  0.00    +0.000 A 
ATOM     35  C   UNL     1     -14.153  57.537  47.658  0.00  0.00    +0.000 A 
ATOM     36  C   UNL     1     -14.031  57.944  48.983  0.00  0.00    +0.000 A 
ENDBRANCH  30  31
ENDBRANCH   5  30
TORSDOF 5
ENDMDL
MODEL 5
REMARK VINA RESULT:      -8.6      1.750      4.387
REMARK  Name = 352867
REMARK  5 active torsions:
REMARK  status: ('A' for Active; 'I' for Inactive)
REMARK    1  A    between atoms: C_6  and  C_10
REMARK    2  A    between atoms: C_14  and  O_18
REMARK    3  A    between atoms: C_15  and  O_20
REMARK    4  A    between atoms: N_17  and  C_22
REMARK    5  A    between atoms: C_22  and  C_25
REMARK                            x       y       z     vdW  Elec       q    Type
REMARK                         _______ _______ _______ _____ _____    ______ ____
ROOT
ATOM      1  C   UNL     1      -9.325  53.484  49.491  0.00  0.00    +0.000 A 
ATOM      2  C   UNL     1     -10.808  53.363  49.442  0.00  0.00    +0.000 A 
ATOM      3  C   UNL     1      -8.723  53.709  48.306  0.00  0.00    +0.000 A 
ATOM      4  O   UNL     1     -11.405  52.532  50.115  0.00  0.00    +0.000 OA
ATOM      5  N   UNL     1     -11.399  54.348  48.621  0.00  0.00    +0.000 N 
ATOM      6  C   UNL     1      -9.572  53.762  47.113  0.00  0.00    +0.000 A 
ATOM      7  C   UNL     1     -10.902  54.207  47.274  0.00  0.00    +0.000 A 
ATOM      8  C   UNL     1      -9.140  53.335  45.861  0.00  0.00    +0.000 A 
ATOM      9  N   UNL     1     -11.791  54.213  46.260  0.00  0.00    +0.000 NA
ATOM     10  C   UNL     1     -10.063  53.279  44.826  0.00  0.00    +0.000 A 
ATOM     11  C   UNL     1     -11.355  53.728  45.070  0.00  0.00    +0.000 A 
ENDROOT
BRANCH   1  17
ATOM     12  S   UNL     1      -9.021  53.876  53.292  0.00  0.00    +0.000 S 
ATOM     13  O   UNL     1      -9.662  55.035  53.866  0.00  0.00    +0.000 OA
ATOM     14  O   UNL     1      -9.181  52.561  53.885  0.00  0.00    +0.000 OA
ATOM     15  N   UNL     1      -9.490  53.788  51.762  0.00  0.00    +0.000 N 
ATOM     16  C   UNL     1      -7.303  54.209  53.292  0.00  0.00    +0.000 A 
ATOM     17  C   UNL     1      -8.640  53.769  50.781  0.00  0.00    +0.000 C 
ATOM     18  C   UNL     1      -6.610  54.182  52.075  0.00  0.00    +0.000 A 
ATOM     19  C   UNL     1      -6.692  54.502  54.509  0.00  0.00    +0.000 A 
ATOM     20  N   UNL     1      -7.275  53.914  50.872  0.00  0.00    +0.000 N 
ATOM     21  C   UNL     1      -5.244  54.479  52.112  0.00  0.00    +0.000 A 
ATOM     22  C   UNL     1      -5.339  54.796  54.526  0.00  0.00    +0.000 A 
ATOM     23  C   UNL     1      -4.627  54.781  53.334  0.00  0.00    +0.000 A 
ATOM     24  H   UNL     1     -10.454  53.746  51.560  0.00  0.00    +0.000 HD
ATOM     25  H   UNL     1      -6.739  53.825  50.051  0.00  0.00    +0.000 HD
BRANCH  23  26
ATOM     26  O   UNL     1      -3.300  55.083  53.405  0.00  0.00    +0.000 OA
ATOM     27  H   UNL     1      -2.684  54.618  52.874  0.00  0.00    +0.000 HD
ENDBRANCH  23  26
ENDBRANCH   1  17
BRANCH   3  28
ATOM     28  O   UNL     1      -7.406  54.064  48.120  0.00  0.00    +0.000 OA
ATOM     29  H   UNL     1      -7.155  54.553  47.362  0.00  0.00    +0.000 HD
ENDBRANCH   3  28
BRANCH   5  30
ATOM     30  C   UNL     1     -11.185  55.693  49.209  0.00  0.00    +0.000 C 
BRANCH  30  31
ATOM     31  C   UNL     1     -12.278  56.310  50.035  0.00  0.00    +0.000 A 
ATOM     32  C   UNL     1     -12.454  55.986  51.382  0.00  0.00    +0.000 A 
ATOM     33  C   UNL     1     -13.048  57.355  49.486  0.00  0.00    +0.000 A 
ATOM     34  C   UNL     1     -13.424  56.641  52.144  0.00  0.00    +0.000 A 
ATOM     35  C   UNL     1     -14.018  58.007  50.248  0.00  0.00    +0.000 A 
ATOM     36  C   UNL     1     -14.213  57.639  51.576  0.00  0.00    +0.000 A 
ENDBRANCH  30  31
ENDBRANCH   5  30
TORSDOF 5
ENDMDL
MODEL 6
REMARK VINA RESULT:      -8.5      2.772      6.985
REMARK  Name = 352867
REMARK  5 active torsions:
REMARK  status: ('A' for Active; 'I' for Inactive)
REMARK    1  A    between atoms: C_6  and  C_10
REMARK    2  A    between atoms: C_14  and  O_18
REMARK    3  A    between atoms: C_15  and  O_20
REMARK    4  A    between atoms: N_17  and  C_22
REMARK    5  A    between atoms: C_22  and  C_25
REMARK                            x       y       z     vdW  Elec       q    Type
REMARK                         _______ _______ _______ _____ _____    ______ ____
ROOT
ATOM      1  C   UNL     1     -12.378  54.762  48.939  0.00  0.00    +0.000 A 
ATOM      2  C   UNL     1     -12.171  54.249  50.322  0.00  0.00    +0.000 A 
ATOM      3  C   UNL     1     -13.114  55.887  48.843  0.00  0.00    +0.000 A 
ATOM      4  O   UNL     1     -12.211  53.051  50.573  0.00  0.00    +0.000 OA
ATOM      5  N   UNL     1     -11.854  55.279  51.232  0.00  0.00    +0.000 N 
ATOM      6  C   UNL     1     -13.660  56.448  50.081  0.00  0.00    +0.000 A 
ATOM      7  C   UNL     1     -12.938  56.230  51.275  0.00  0.00    +0.000 A 
ATOM      8  C   UNL     1     -14.877  57.121  50.132  0.00  0.00    +0.000 A 
ATOM      9  N   UNL     1     -13.393  56.629  52.480  0.00  0.00    +0.000 NA
ATOM     10  C   UNL     1     -15.384  57.481  51.372  0.00  0.00    +0.000 A 
ATOM     11  C   UNL     1     -14.614  57.221  52.500  0.00  0.00    +0.000 A 
ENDROOT
BRANCH   1  17
ATOM     12  S   UNL     1      -9.081  54.401  47.019  0.00  0.00    +0.000 S 
ATOM     13  O   UNL     1      -8.596  55.588  46.357  0.00  0.00    +0.000 OA
ATOM     14  O   UNL     1      -8.195  53.572  47.815  0.00  0.00    +0.000 OA
ATOM     15  N   UNL     1     -10.308  54.847  47.948  0.00  0.00    +0.000 N 
ATOM     16  C   UNL     1      -9.727  53.364  45.764  0.00  0.00    +0.000 A 
ATOM     17  C   UNL     1     -11.486  54.315  47.835  0.00  0.00    +0.000 C 
ATOM     18  C   UNL     1     -11.068  52.967  45.841  0.00  0.00    +0.000 A 
ATOM     19  C   UNL     1      -8.879  52.985  44.726  0.00  0.00    +0.000 A 
ATOM     20  N   UNL     1     -11.890  53.402  46.888  0.00  0.00    +0.000 N 
ATOM     21  C   UNL     1     -11.555  52.162  44.807  0.00  0.00    +0.000 A 
ATOM     22  C   UNL     1      -9.379  52.189  43.709  0.00  0.00    +0.000 A 
ATOM     23  C   UNL     1     -10.706  51.783  43.757  0.00  0.00    +0.000 A 
ATOM     24  H   UNL     1     -10.163  55.547  48.626  0.00  0.00    +0.000 HD
ATOM     25  H   UNL     1     -12.802  53.036  46.949  0.00  0.00    +0.000 HD
BRANCH  23  26
ATOM     26  O   UNL     1     -11.150  51.006  42.729  0.00  0.00    +0.000 OA
ATOM     27  H   UNL     1     -10.968  50.087  42.724  0.00  0.00    +0.000 HD
ENDBRANCH  23  26
ENDBRANCH   1  17
BRANCH   3  28
ATOM     28  O   UNL     1     -13.266  56.663  47.716  0.00  0.00    +0.000 OA
ATOM     29  H   UNL     1     -12.927  57.536  47.699  0.00  0.00    +0.000 HD
ENDBRANCH   3  28
BRANCH   5  30
ATOM     30  C   UNL     1     -10.539  55.874  50.887  0.00  0.00    +0.000 C 
BRANCH  30  31
ATOM     31  C   UNL     1      -9.299  55.325  51.535  0.00  0.00    +0.000 A 
ATOM     32  C   UNL     1      -8.040  55.461  50.944  0.00  0.00    +0.000 A 
ATOM     33  C   UNL     1      -9.379  54.797  52.839  0.00  0.00    +0.000 A 
ATOM     34  C   UNL     1      -6.896  55.016  51.612  0.00  0.00    +0.000 A 
ATOM     35  C   UNL     1      -8.237  54.352  53.504  0.00  0.00    +0.000 A 
ATOM     36  C   UNL     1      -6.995  54.451  52.883  0.00  0.00    +0.000 A 
ENDBRANCH  30  31
ENDBRANCH   5  30
TORSDOF 5
ENDMDL
MODEL 7
REMARK VINA RESULT:      -8.4      2.831      6.251
REMARK  Name = 352867
REMARK  5 active torsions:
REMARK  status: ('A' for Active; 'I' for Inactive)
REMARK    1  A    between atoms: C_6  and  C_10
REMARK    2  A    between atoms: C_14  and  O_18
REMARK    3  A    between atoms: C_15  and  O_20
REMARK    4  A    between atoms: N_17  and  C_22
REMARK    5  A    between atoms: C_22  and  C_25
REMARK                            x       y       z     vdW  Elec       q    Type
REMARK                         _______ _______ _______ _____ _____    ______ ____
ROOT
ATOM      1  C   UNL     1     -12.671  54.647  49.562  0.00  0.00    +0.000 A 
ATOM      2  C   UNL     1     -12.437  54.282  50.987  0.00  0.00    +0.000 A 
ATOM      3  C   UNL     1     -13.349  55.795  49.362  0.00  0.00    +0.000 A 
ATOM      4  O   UNL     1     -12.531  53.125  51.375  0.00  0.00    +0.000 OA
ATOM      5  N   UNL     1     -12.030  55.389  51.762  0.00  0.00    +0.000 N 
ATOM      6  C   UNL     1     -13.815  56.522  50.544  0.00  0.00    +0.000 A 
ATOM      7  C   UNL     1     -13.060  56.399  51.731  0.00  0.00    +0.000 A 
ATOM      8  C   UNL     1     -14.993  57.265  50.557  0.00  0.00    +0.000 A 
ATOM      9  N   UNL     1     -13.446  56.956  52.896  0.00  0.00    +0.000 NA
ATOM     10  C   UNL     1     -15.431  57.790  51.764  0.00  0.00    +0.000 A 
ATOM     11  C   UNL     1     -14.632  57.617  52.888  0.00  0.00    +0.000 A 
ENDROOT
BRANCH   1  17
ATOM     12  S   UNL     1     -11.592  51.915  47.100  0.00  0.00    +0.000 S 
ATOM     13  O   UNL     1     -10.940  50.762  47.674  0.00  0.00    +0.000 OA
ATOM     14  O   UNL     1     -12.647  51.766  46.115  0.00  0.00    +0.000 OA
ATOM     15  N   UNL     1     -12.170  52.783  48.317  0.00  0.00    +0.000 N 
ATOM     16  C   UNL     1     -10.335  52.863  46.334  0.00  0.00    +0.000 A 
ATOM     17  C   UNL     1     -11.848  54.029  48.487  0.00  0.00    +0.000 C 
ATOM     18  C   UNL     1     -10.148  54.189  46.741  0.00  0.00    +0.000 A 
ATOM     19  C   UNL     1      -9.559  52.251  45.352  0.00  0.00    +0.000 A 
ATOM     20  N   UNL     1     -10.932  54.750  47.756  0.00  0.00    +0.000 N 
ATOM     21  C   UNL     1      -9.118  54.906  46.125  0.00  0.00    +0.000 A 
ATOM     22  C   UNL     1      -8.542  52.975  44.754  0.00  0.00    +0.000 A 
ATOM     23  C   UNL     1      -8.330  54.292  45.141  0.00  0.00    +0.000 A 
ATOM     24  H   UNL     1     -12.789  52.358  48.954  0.00  0.00    +0.000 HD
ATOM     25  H   UNL     1     -10.823  55.707  47.957  0.00  0.00    +0.000 HD
BRANCH  23  26
ATOM     26  O   UNL     1      -7.313  54.958  44.525  0.00  0.00    +0.000 OA
ATOM     27  H   UNL     1      -6.529  54.502  44.289  0.00  0.00    +0.000 HD
ENDBRANCH  23  26
ENDBRANCH   1  17
BRANCH   3  28
ATOM     28  O   UNL     1     -13.504  56.446  48.159  0.00  0.00    +0.000 OA
ATOM     29  H   UNL     1     -13.100  56.104  47.386  0.00  0.00    +0.000 HD
ENDBRANCH   3  28
BRANCH   5  30
ATOM     30  C   UNL     1     -10.701  55.865  51.308  0.00  0.00    +0.000 C 
BRANCH  30  31
ATOM     31  C   UNL     1      -9.473  55.105  51.727  0.00  0.00    +0.000 A 
ATOM     32  C   UNL     1      -9.190  54.849  53.071  0.00  0.00    +0.000 A 
ATOM     33  C   UNL     1      -8.668  54.502  50.741  0.00  0.00    +0.000 A 
ATOM     34  C   UNL     1      -8.088  54.066  53.422  0.00  0.00    +0.000 A 
ATOM     35  C   UNL     1      -7.566  53.722  51.093  0.00  0.00    +0.000 A 
ATOM     36  C   UNL     1      -7.269  53.516  52.437  0.00  0.00    +0.000 A 
ENDBRANCH  30  31
ENDBRANCH   5  30
TORSDOF 5
ENDMDL
MODEL 8
REMARK VINA RESULT:      -8.4      3.269      7.451
REMARK  Name = 352867
REMARK  5 active torsions:
REMARK  status: ('A' for Active; 'I' for Inactive)
REMARK    1  A    between atoms: C_6  and  C_10
REMARK    2  A    between atoms: C_14  and  O_18
REMARK    3  A    between atoms: C_15  and  O_20
REMARK    4  A    between atoms: N_17  and  C_22
REMARK    5  A    between atoms: C_22  and  C_25
REMARK                            x       y       z     vdW  Elec       q    Type
REMARK                         _______ _______ _______ _____ _____    ______ ____
ROOT
ATOM      1  C   UNL     1     -11.628  54.151  50.303  0.00  0.00    +0.000 A 
ATOM      2  C   UNL     1     -10.307  54.211  49.618  0.00  0.00    +0.000 A 
ATOM      3  C   UNL     1     -11.835  53.059  51.066  0.00  0.00    +0.000 A 
ATOM      4  O   UNL     1     -10.200  54.616  48.467  0.00  0.00    +0.000 OA
ATOM      5  N   UNL     1      -9.245  53.836  50.469  0.00  0.00    +0.000 N 
ATOM      6  C   UNL     1     -10.778  52.046  51.103  0.00  0.00    +0.000 A 
ATOM      7  C   UNL     1      -9.447  52.479  50.916  0.00  0.00    +0.000 A 
ATOM      8  C   UNL     1     -11.040  50.687  51.247  0.00  0.00    +0.000 A 
ATOM      9  N   UNL     1      -8.409  51.622  50.847  0.00  0.00    +0.000 NA
ATOM     10  C   UNL     1      -9.989  49.792  51.115  0.00  0.00    +0.000 A 
ATOM     11  C   UNL     1      -8.709  50.300  50.924  0.00  0.00    +0.000 A 
ENDROOT
BRANCH   1  17
ATOM     12  S   UNL     1     -13.439  57.338  49.185  0.00  0.00    +0.000 S 
ATOM     13  O   UNL     1     -12.599  58.453  48.817  0.00  0.00    +0.000 OA
ATOM     14  O   UNL     1     -14.561  56.940  48.355  0.00  0.00    +0.000 OA
ATOM     15  N   UNL     1     -12.482  56.066  49.365  0.00  0.00    +0.000 N 
ATOM     16  C   UNL     1     -14.103  57.718  50.759  0.00  0.00    +0.000 A 
ATOM     17  C   UNL     1     -12.440  55.386  50.470  0.00  0.00    +0.000 C 
ATOM     18  C   UNL     1     -13.866  56.838  51.822  0.00  0.00    +0.000 A 
ATOM     19  C   UNL     1     -14.834  58.897  50.896  0.00  0.00    +0.000 A 
ATOM     20  N   UNL     1     -13.096  55.681  51.643  0.00  0.00    +0.000 N 
ATOM     21  C   UNL     1     -14.390  57.188  53.070  0.00  0.00    +0.000 A 
ATOM     22  C   UNL     1     -15.344  59.228  52.140  0.00  0.00    +0.000 A 
ATOM     23  C   UNL     1     -15.121  58.376  53.213  0.00  0.00    +0.000 A 
ATOM     24  H   UNL     1     -11.908  55.790  48.613  0.00  0.00    +0.000 HD
ATOM     25  H   UNL     1     -13.021  55.049  52.393  0.00  0.00    +0.000 HD
BRANCH  23  26
ATOM     26  O   UNL     1     -15.639  58.752  54.416  0.00  0.00    +0.000 OA
ATOM     27  H   UNL     1     -16.022  59.601  54.516  0.00  0.00    +0.000 HD
ENDBRANCH  23  26
ENDBRANCH   1  17
BRANCH   3  28
ATOM     28  O   UNL     1     -12.871  52.876  51.954  0.00  0.00    +0.000 OA
ATOM     29  H   UNL     1     -13.751  52.808  51.640  0.00  0.00    +0.000 HD
ENDBRANCH   3  28
BRANCH   5  30
ATOM     30  C   UNL     1      -9.106  54.822  51.569  0.00  0.00    +0.000 C 
BRANCH  30  31
ATOM     31  C   UNL     1      -7.868  54.793  52.421  0.00  0.00    +0.000 A 
ATOM     32  C   UNL     1      -6.596  54.638  51.865  0.00  0.00    +0.000 A 
ATOM     33  C   UNL     1      -7.972  55.085  53.795  0.00  0.00    +0.000 A 
ATOM     34  C   UNL     1      -5.459  54.702  52.674  0.00  0.00    +0.000 A 
ATOM     35  C   UNL     1      -6.836  55.148  54.604  0.00  0.00    +0.000 A 
ATOM     36  C   UNL     1      -5.579  54.943  54.042  0.00  0.00    +0.000 A 
ENDBRANCH  30  31
ENDBRANCH   5  30
TORSDOF 5
ENDMDL
MODEL 9
REMARK VINA RESULT:      -8.2      2.631      4.984
REMARK  Name = 352867
REMARK  5 active torsions:
REMARK  status: ('A' for Active; 'I' for Inactive)
REMARK    1  A    between atoms: C_6  and  C_10
REMARK    2  A    between atoms: C_14  and  O_18
REMARK    3  A    between atoms: C_15  and  O_20
REMARK    4  A    between atoms: N_17  and  C_22
REMARK    5  A    between atoms: C_22  and  C_25
REMARK                            x       y       z     vdW  Elec       q    Type
REMARK                         _______ _______ _______ _____ _____    ______ ____
ROOT
ATOM      1  C   UNL     1      -8.457  53.058  48.096  0.00  0.00    +0.000 A 
ATOM      2  C   UNL     1      -9.933  52.854  48.130  0.00  0.00    +0.000 A 
ATOM      3  C   UNL     1      -7.928  53.250  46.871  0.00  0.00    +0.000 A 
ATOM      4  O   UNL     1     -10.448  52.029  48.875  0.00  0.00    +0.000 OA
ATOM      5  N   UNL     1     -10.617  53.758  47.290  0.00  0.00    +0.000 N 
ATOM      6  C   UNL     1      -8.835  53.191  45.723  0.00  0.00    +0.000 A 
ATOM      7  C   UNL     1     -10.180  53.571  45.928  0.00  0.00    +0.000 A 
ATOM      8  C   UNL     1      -8.441  52.720  44.474  0.00  0.00    +0.000 A 
ATOM      9  N   UNL     1     -11.115  53.473  44.963  0.00  0.00    +0.000 NA
ATOM     10  C   UNL     1      -9.408  52.557  43.492  0.00  0.00    +0.000 A 
ATOM     11  C   UNL     1     -10.711  52.947  43.779  0.00  0.00    +0.000 A 
ENDROOT
BRANCH   1  17
ATOM     12  S   UNL     1      -5.400  53.653  50.329  0.00  0.00    +0.000 S 
ATOM     13  O   UNL     1      -4.731  52.473  50.821  0.00  0.00    +0.000 OA
ATOM     14  O   UNL     1      -4.648  54.758  49.762  0.00  0.00    +0.000 OA
ATOM     15  N   UNL     1      -6.466  53.169  49.235  0.00  0.00    +0.000 N 
ATOM     16  C   UNL     1      -6.300  54.312  51.678  0.00  0.00    +0.000 A 
ATOM     17  C   UNL     1      -7.729  53.451  49.332  0.00  0.00    +0.000 C 
ATOM     18  C   UNL     1      -7.685  54.469  51.553  0.00  0.00    +0.000 A 
ATOM     19  C   UNL     1      -5.598  54.643  52.835  0.00  0.00    +0.000 A 
ATOM     20  N   UNL     1      -8.351  54.090  50.380  0.00  0.00    +0.000 N 
ATOM     21  C   UNL     1      -8.373  54.973  52.660  0.00  0.00    +0.000 A 
ATOM     22  C   UNL     1      -6.296  55.140  53.923  0.00  0.00    +0.000 A 
ATOM     23  C   UNL     1      -7.672  55.302  53.829  0.00  0.00    +0.000 A 
ATOM     24  H   UNL     1      -6.152  52.641  48.464  0.00  0.00    +0.000 HD
ATOM     25  H   UNL     1      -9.311  54.291  50.302  0.00  0.00    +0.000 HD
BRANCH  23  26
ATOM     26  O   UNL     1      -8.311  55.788  54.930  0.00  0.00    +0.000 OA
ATOM     27  H   UNL     1      -8.007  56.573  55.340  0.00  0.00    +0.000 HD
ENDBRANCH  23  26
ENDBRANCH   1  17
BRANCH   3  28
ATOM     28  O   UNL     1      -6.644  53.665  46.600  0.00  0.00    +0.000 OA
ATOM     29  H   UNL     1      -5.937  53.390  47.148  0.00  0.00    +0.000 HD
ENDBRANCH   3  28
BRANCH   5  30
ATOM     30  C   UNL     1     -10.452  55.143  47.795  0.00  0.00    +0.000 C 
BRANCH  30  31
ATOM     31  C   UNL     1     -11.675  55.932  48.173  0.00  0.00    +0.000 A 
ATOM     32  C   UNL     1     -11.839  56.465  49.454  0.00  0.00    +0.000 A 
ATOM     33  C   UNL     1     -12.606  56.277  47.174  0.00  0.00    +0.000 A 
ATOM     34  C   UNL     1     -12.945  57.266  49.748  0.00  0.00    +0.000 A 
ATOM     35  C   UNL     1     -13.711  57.076  47.468  0.00  0.00    +0.000 A 
ATOM     36  C   UNL     1     -13.886  57.560  48.762  0.00  0.00    +0.000 A 
ENDBRANCH  30  31
ENDBRANCH   5  30
TORSDOF 5
ENDMDL
