MODEL 1
REMARK VINA RESULT:      -9.1      0.000      0.000
REMARK  Name = 353104
REMARK  5 active torsions:
REMARK  status: ('A' for Active; 'I' for Inactive)
REMARK    1  A    between atoms: C_6  and  C_10
REMARK    2  A    between atoms: C_11  and  C_16
REMARK    3  A    between atoms: C_14  and  O_19
REMARK    4  A    between atoms: N_18  and  C_22
REMARK    5  A    between atoms: C_22  and  C_25
REMARK                            x       y       z     vdW  Elec       q    Type
REMARK                         _______ _______ _______ _____ _____    ______ ____
ROOT
ATOM      1  C   UNL     1     -10.105  55.401  50.911  0.00  0.00    +0.000 A 
ATOM      2  C   UNL     1     -10.099  56.210  49.656  0.00  0.00    +0.000 A 
ATOM      3  C   UNL     1     -11.326  55.069  51.367  0.00  0.00    +0.000 A 
ATOM      4  O   UNL     1      -9.287  57.110  49.473  0.00  0.00    +0.000 OA
ATOM      5  N   UNL     1     -11.037  55.757  48.712  0.00  0.00    +0.000 N 
ATOM      6  C   UNL     1     -12.489  55.621  50.651  0.00  0.00    +0.000 A 
ATOM      7  C   UNL     1     -12.356  55.859  49.266  0.00  0.00    +0.000 A 
ATOM      8  C   UNL     1     -13.634  56.072  51.301  0.00  0.00    +0.000 A 
ATOM      9  N   UNL     1     -13.308  56.464  48.531  0.00  0.00    +0.000 NA
ATOM     10  C   UNL     1     -14.590  56.766  50.565  0.00  0.00    +0.000 A 
ATOM     11  C   UNL     1     -14.392  56.923  49.199  0.00  0.00    +0.000 A 
ENDROOT
BRANCH   1  17
ATOM     12  S   UNL     1      -7.532  54.227  53.682  0.00  0.00    +0.000 S 
ATOM     13  O   UNL     1      -7.879  52.885  54.089  0.00  0.00    +0.000 OA
ATOM     14  O   UNL     1      -7.156  55.234  54.654  0.00  0.00    +0.000 OA
ATOM     15  N   UNL     1      -8.795  54.837  52.827  0.00  0.00    +0.000 N 
ATOM     16  C   UNL     1      -6.252  54.115  52.506  0.00  0.00    +0.000 A 
ATOM     17  C   UNL     1      -8.828  54.886  51.436  0.00  0.00    +0.000 C 
ATOM     18  C   UNL     1      -6.554  54.285  51.157  0.00  0.00    +0.000 A 
ATOM     19  C   UNL     1      -4.962  53.825  52.962  0.00  0.00    +0.000 A 
ATOM     20  N   UNL     1      -7.829  54.616  50.667  0.00  0.00    +0.000 N 
ATOM     21  C   UNL     1      -5.493  54.157  50.233  0.00  0.00    +0.000 A 
ATOM     22  C   UNL     1      -3.929  53.690  52.046  0.00  0.00    +0.000 A 
ATOM     23  C   UNL     1      -4.194  53.853  50.689  0.00  0.00    +0.000 A 
ATOM     24  C   UNL     1      -5.679  54.321  48.747  0.00  0.00    +0.000 C 
ATOM     25  H   UNL     1      -9.569  55.188  53.325  0.00  0.00    +0.000 HD
ATOM     26  H   UNL     1      -7.965  54.641  49.692  0.00  0.00    +0.000 HD
ENDBRANCH   1  17
BRANCH   3  27
ATOM     27  O   UNL     1     -11.559  54.214  52.414  0.00  0.00    +0.000 OA
ATOM     28  H   UNL     1     -12.191  53.527  52.327  0.00  0.00    +0.000 HD
ENDBRANCH   3  27
BRANCH   5  29
ATOM     29  C   UNL     1     -10.692  54.401  48.251  0.00  0.00    +0.000 C 
BRANCH  29  30
ATOM     30  C   UNL     1      -9.945  54.301  46.955  0.00  0.00    +0.000 A 
ATOM     31  C   UNL     1      -8.718  54.956  46.797  0.00  0.00    +0.000 A 
ATOM     32  C   UNL     1     -10.409  53.458  45.934  0.00  0.00    +0.000 A 
ATOM     33  C   UNL     1      -7.980  54.792  45.627  0.00  0.00    +0.000 A 
ATOM     34  C   UNL     1      -9.670  53.299  44.763  0.00  0.00    +0.000 A 
ATOM     35  C   UNL     1      -8.460  53.970  44.608  0.00  0.00    +0.000 A 
ENDBRANCH  29  30
ENDBRANCH   5  29
TORSDOF 4
ENDMDL
MODEL 2
REMARK VINA RESULT:      -8.8      2.357      2.681
REMARK  Name = 353104
REMARK  5 active torsions:
REMARK  status: ('A' for Active; 'I' for Inactive)
REMARK    1  A    between atoms: C_6  and  C_10
REMARK    2  A    between atoms: C_11  and  C_16
REMARK    3  A    between atoms: C_14  and  O_19
REMARK    4  A    between atoms: N_18  and  C_22
REMARK    5  A    between atoms: C_22  and  C_25
REMARK                            x       y       z     vdW  Elec       q    Type
REMARK                         _______ _______ _______ _____ _____    ______ ____
ROOT
ATOM      1  C   UNL     1     -10.722  55.507  50.580  0.00  0.00    +0.000 A 
ATOM      2  C   UNL     1     -10.397  55.737  49.141  0.00  0.00    +0.000 A 
ATOM      3  C   UNL     1     -11.960  55.882  50.950  0.00  0.00    +0.000 A 
ATOM      4  O   UNL     1      -9.285  56.104  48.782  0.00  0.00    +0.000 OA
ATOM      5  N   UNL     1     -11.457  55.396  48.283  0.00  0.00    +0.000 N 
ATOM      6  C   UNL     1     -12.792  56.558  49.940  0.00  0.00    +0.000 A 
ATOM      7  C   UNL     1     -12.597  56.210  48.587  0.00  0.00    +0.000 A 
ATOM      8  C   UNL     1     -13.626  57.632  50.242  0.00  0.00    +0.000 A 
ATOM      9  N   UNL     1     -13.216  56.839  47.570  0.00  0.00    +0.000 NA
ATOM     10  C   UNL     1     -14.211  58.338  49.196  0.00  0.00    +0.000 A 
ATOM     11  C   UNL     1     -13.991  57.901  47.895  0.00  0.00    +0.000 A 
ENDROOT
BRANCH   1  17
ATOM     12  S   UNL     1      -9.241  52.319  52.404  0.00  0.00    +0.000 S 
ATOM     13  O   UNL     1      -8.533  51.523  51.429  0.00  0.00    +0.000 OA
ATOM     14  O   UNL     1     -10.105  51.706  53.393  0.00  0.00    +0.000 OA
ATOM     15  N   UNL     1     -10.152  53.419  51.591  0.00  0.00    +0.000 N 
ATOM     16  C   UNL     1      -8.071  53.295  53.248  0.00  0.00    +0.000 A 
ATOM     17  C   UNL     1      -9.775  54.747  51.415  0.00  0.00    +0.000 C 
ATOM     18  C   UNL     1      -7.951  54.644  52.923  0.00  0.00    +0.000 A 
ATOM     19  C   UNL     1      -7.266  52.674  54.210  0.00  0.00    +0.000 A 
ATOM     20  N   UNL     1      -8.768  55.309  51.993  0.00  0.00    +0.000 N 
ATOM     21  C   UNL     1      -6.970  55.393  53.610  0.00  0.00    +0.000 A 
ATOM     22  C   UNL     1      -6.299  53.416  54.871  0.00  0.00    +0.000 A 
ATOM     23  C   UNL     1      -6.150  54.767  54.572  0.00  0.00    +0.000 A 
ATOM     24  C   UNL     1      -6.738  56.860  53.360  0.00  0.00    +0.000 C 
ATOM     25  H   UNL     1     -11.010  53.123  51.209  0.00  0.00    +0.000 HD
ATOM     26  H   UNL     1      -8.560  56.245  51.771  0.00  0.00    +0.000 HD
ENDBRANCH   1  17
BRANCH   3  27
ATOM     27  O   UNL     1     -12.514  55.629  52.180  0.00  0.00    +0.000 OA
ATOM     28  H   UNL     1     -12.402  56.243  52.879  0.00  0.00    +0.000 HD
ENDBRANCH   3  27
BRANCH   5  29
ATOM     29  C   UNL     1     -11.728  53.948  48.349  0.00  0.00    +0.000 C 
BRANCH  29  30
ATOM     30  C   UNL     1     -11.787  53.215  47.043  0.00  0.00    +0.000 A 
ATOM     31  C   UNL     1     -11.334  53.829  45.869  0.00  0.00    +0.000 A 
ATOM     32  C   UNL     1     -12.187  51.871  47.003  0.00  0.00    +0.000 A 
ATOM     33  C   UNL     1     -11.305  53.118  44.672  0.00  0.00    +0.000 A 
ATOM     34  C   UNL     1     -12.160  51.163  45.803  0.00  0.00    +0.000 A 
ATOM     35  C   UNL     1     -11.725  51.789  44.637  0.00  0.00    +0.000 A 
ENDBRANCH  29  30
ENDBRANCH   5  29
TORSDOF 4
ENDMDL
MODEL 3
REMARK VINA RESULT:      -8.8      2.010      2.436
REMARK  Name = 353104
REMARK  5 active torsions:
REMARK  status: ('A' for Active; 'I' for Inactive)
REMARK    1  A    between atoms: C_6  and  C_10
REMARK    2  A    between atoms: C_11  and  C_16
REMARK    3  A    between atoms: C_14  and  O_19
REMARK    4  A    between atoms: N_18  and  C_22
REMARK    5  A    between atoms: C_22  and  C_25
REMARK                            x       y       z     vdW  Elec       q    Type
REMARK                         _______ _______ _______ _____ _____    ______ ____
ROOT
ATOM      1  C   UNL     1     -10.742  54.987  50.663  0.00  0.00    +0.000 A 
ATOM      2  C   UNL     1     -10.272  55.841  49.532  0.00  0.00    +0.000 A 
ATOM      3  C   UNL     1     -12.072  54.795  50.715  0.00  0.00    +0.000 A 
ATOM      4  O   UNL     1      -9.350  56.637  49.665  0.00  0.00    +0.000 OA
ATOM      5  N   UNL     1     -10.927  55.551  48.323  0.00  0.00    +0.000 N 
ATOM      6  C   UNL     1     -12.899  55.519  49.735  0.00  0.00    +0.000 A 
ATOM      7  C   UNL     1     -12.333  55.796  48.473  0.00  0.00    +0.000 A 
ATOM      8  C   UNL     1     -14.130  56.084  50.055  0.00  0.00    +0.000 A 
ATOM      9  N   UNL     1     -12.948  56.547  47.541  0.00  0.00    +0.000 NA
ATOM     10  C   UNL     1     -14.741  56.924  49.128  0.00  0.00    +0.000 A 
ATOM     11  C   UNL     1     -14.126  57.111  47.896  0.00  0.00    +0.000 A 
ENDROOT
BRANCH   1  17
ATOM     12  S   UNL     1      -9.034  51.900  52.463  0.00  0.00    +0.000 S 
ATOM     13  O   UNL     1      -8.258  51.173  51.485  0.00  0.00    +0.000 OA
ATOM     14  O   UNL     1      -9.856  51.210  53.437  0.00  0.00    +0.000 OA
ATOM     15  N   UNL     1     -10.021  52.937  51.655  0.00  0.00    +0.000 N 
ATOM     16  C   UNL     1      -7.950  52.953  53.330  0.00  0.00    +0.000 A 
ATOM     17  C   UNL     1      -9.745  54.292  51.498  0.00  0.00    +0.000 C 
ATOM     18  C   UNL     1      -7.932  54.311  53.022  0.00  0.00    +0.000 A 
ATOM     19  C   UNL     1      -7.108  52.383  54.291  0.00  0.00    +0.000 A 
ATOM     20  N   UNL     1      -8.789  54.922  52.092  0.00  0.00    +0.000 N 
ATOM     21  C   UNL     1      -7.017  55.124  53.726  0.00  0.00    +0.000 A 
ATOM     22  C   UNL     1      -6.206  53.189  54.970  0.00  0.00    +0.000 A 
ATOM     23  C   UNL     1      -6.160  54.552  54.688  0.00  0.00    +0.000 A 
ATOM     24  C   UNL     1      -6.896  56.608  53.496  0.00  0.00    +0.000 C 
ATOM     25  H   UNL     1     -10.850  52.581  51.262  0.00  0.00    +0.000 HD
ATOM     26  H   UNL     1      -8.653  55.875  51.883  0.00  0.00    +0.000 HD
ENDBRANCH   1  17
BRANCH   3  27
ATOM     27  O   UNL     1     -12.700  53.932  51.579  0.00  0.00    +0.000 OA
ATOM     28  H   UNL     1     -12.325  53.092  51.758  0.00  0.00    +0.000 HD
ENDBRANCH   3  27
BRANCH   5  29
ATOM     29  C   UNL     1     -10.609  54.182  47.879  0.00  0.00    +0.000 C 
BRANCH  29  30
ATOM     30  C   UNL     1      -9.750  54.053  46.657  0.00  0.00    +0.000 A 
ATOM     31  C   UNL     1     -10.155  53.235  45.596  0.00  0.00    +0.000 A 
ATOM     32  C   UNL     1      -8.598  54.839  46.517  0.00  0.00    +0.000 A 
ATOM     33  C   UNL     1      -9.403  53.184  44.424  0.00  0.00    +0.000 A 
ATOM     34  C   UNL     1      -7.846  54.784  45.344  0.00  0.00    +0.000 A 
ATOM     35  C   UNL     1      -8.246  53.952  44.301  0.00  0.00    +0.000 A 
ENDBRANCH  29  30
ENDBRANCH   5  29
TORSDOF 4
ENDMDL
MODEL 4
REMARK VINA RESULT:      -8.5      2.096      3.005
REMARK  Name = 353104
REMARK  5 active torsions:
REMARK  status: ('A' for Active; 'I' for Inactive)
REMARK    1  A    between atoms: C_6  and  C_10
REMARK    2  A    between atoms: C_11  and  C_16
REMARK    3  A    between atoms: C_14  and  O_19
REMARK    4  A    between atoms: N_18  and  C_22
REMARK    5  A    between atoms: C_22  and  C_25
REMARK                            x       y       z     vdW  Elec       q    Type
REMARK                         _______ _______ _______ _____ _____    ______ ____
ROOT
ATOM      1  C   UNL     1     -10.447  55.718  50.779  0.00  0.00    +0.000 A 
ATOM      2  C   UNL     1     -10.053  55.970  49.361  0.00  0.00    +0.000 A 
ATOM      3  C   UNL     1     -11.752  55.907  51.047  0.00  0.00    +0.000 A 
ATOM      4  O   UNL     1      -8.984  56.495  49.072  0.00  0.00    +0.000 OA
ATOM      5  N   UNL     1     -10.981  55.456  48.439  0.00  0.00    +0.000 N 
ATOM      6  C   UNL     1     -12.597  56.431  49.961  0.00  0.00    +0.000 A 
ATOM      7  C   UNL     1     -12.251  56.092  48.636  0.00  0.00    +0.000 A 
ATOM      8  C   UNL     1     -13.603  57.370  50.171  0.00  0.00    +0.000 A 
ATOM      9  N   UNL     1     -12.878  56.602  47.560  0.00  0.00    +0.000 NA
ATOM     10  C   UNL     1     -14.207  57.960  49.065  0.00  0.00    +0.000 A 
ATOM     11  C   UNL     1     -13.827  57.539  47.797  0.00  0.00    +0.000 A 
ENDROOT
BRANCH   1  17
ATOM     12  S   UNL     1      -6.920  55.274  52.522  0.00  0.00    +0.000 S 
ATOM     13  O   UNL     1      -6.773  56.303  53.525  0.00  0.00    +0.000 OA
ATOM     14  O   UNL     1      -5.826  54.920  51.640  0.00  0.00    +0.000 OA
ATOM     15  N   UNL     1      -8.192  55.680  51.565  0.00  0.00    +0.000 N 
ATOM     16  C   UNL     1      -7.452  53.821  53.322  0.00  0.00    +0.000 A 
ATOM     17  C   UNL     1      -9.462  55.127  51.702  0.00  0.00    +0.000 C 
ATOM     18  C   UNL     1      -8.791  53.447  53.230  0.00  0.00    +0.000 A 
ATOM     19  C   UNL     1      -6.511  53.092  54.058  0.00  0.00    +0.000 A 
ATOM     20  N   UNL     1      -9.752  54.131  52.469  0.00  0.00    +0.000 N 
ATOM     21  C   UNL     1      -9.187  52.279  53.918  0.00  0.00    +0.000 A 
ATOM     22  C   UNL     1      -6.913  51.952  54.738  0.00  0.00    +0.000 A 
ATOM     23  C   UNL     1      -8.244  51.548  54.670  0.00  0.00    +0.000 A 
ATOM     24  C   UNL     1     -10.601  51.759  53.900  0.00  0.00    +0.000 C 
ATOM     25  H   UNL     1      -8.048  56.349  50.857  0.00  0.00    +0.000 HD
ATOM     26  H   UNL     1     -10.691  53.839  52.525  0.00  0.00    +0.000 HD
ENDBRANCH   1  17
BRANCH   3  27
ATOM     27  O   UNL     1     -12.353  55.595  52.241  0.00  0.00    +0.000 OA
ATOM     28  H   UNL     1     -12.319  54.717  52.567  0.00  0.00    +0.000 HD
ENDBRANCH   3  27
BRANCH   5  29
ATOM     29  C   UNL     1     -11.035  53.985  48.527  0.00  0.00    +0.000 C 
BRANCH  29  30
ATOM     30  C   UNL     1     -11.308  53.244  47.253  0.00  0.00    +0.000 A 
ATOM     31  C   UNL     1     -12.110  52.097  47.264  0.00  0.00    +0.000 A 
ATOM     32  C   UNL     1     -10.862  53.758  46.026  0.00  0.00    +0.000 A 
ATOM     33  C   UNL     1     -12.438  51.459  46.070  0.00  0.00    +0.000 A 
ATOM     34  C   UNL     1     -11.190  53.115  44.833  0.00  0.00    +0.000 A 
ATOM     35  C   UNL     1     -11.972  51.963  44.856  0.00  0.00    +0.000 A 
ENDBRANCH  29  30
ENDBRANCH   5  29
TORSDOF 4
ENDMDL
MODEL 5
REMARK VINA RESULT:      -8.5      2.020      2.938
REMARK  Name = 353104
REMARK  5 active torsions:
REMARK  status: ('A' for Active; 'I' for Inactive)
REMARK    1  A    between atoms: C_6  and  C_10
REMARK    2  A    between atoms: C_11  and  C_16
REMARK    3  A    between atoms: C_14  and  O_19
REMARK    4  A    between atoms: N_18  and  C_22
REMARK    5  A    between atoms: C_22  and  C_25
REMARK                            x       y       z     vdW  Elec       q    Type
REMARK                         _______ _______ _______ _____ _____    ______ ____
ROOT
ATOM      1  C   UNL     1     -10.500  55.577  50.727  0.00  0.00    +0.000 A 
ATOM      2  C   UNL     1     -11.128  55.975  49.432  0.00  0.00    +0.000 A 
ATOM      3  C   UNL     1     -11.346  55.507  51.770  0.00  0.00    +0.000 A 
ATOM      4  O   UNL     1     -10.551  56.704  48.633  0.00  0.00    +0.000 OA
ATOM      5  N   UNL     1     -12.368  55.351  49.214  0.00  0.00    +0.000 N 
ATOM      6  C   UNL     1     -12.739  55.925  51.541  0.00  0.00    +0.000 A 
ATOM      7  C   UNL     1     -13.281  55.730  50.253  0.00  0.00    +0.000 A 
ATOM      8  C   UNL     1     -13.476  56.650  52.474  0.00  0.00    +0.000 A 
ATOM      9  N   UNL     1     -14.501  56.174  49.894  0.00  0.00    +0.000 NA
ATOM     10  C   UNL     1     -14.705  57.178  52.091  0.00  0.00    +0.000 A 
ATOM     11  C   UNL     1     -15.175  56.905  50.812  0.00  0.00    +0.000 A 
ENDROOT
BRANCH   1  17
ATOM     12  S   UNL     1      -7.192  53.989  49.239  0.00  0.00    +0.000 S 
ATOM     13  O   UNL     1      -6.542  54.979  48.412  0.00  0.00    +0.000 OA
ATOM     14  O   UNL     1      -7.296  52.607  48.818  0.00  0.00    +0.000 OA
ATOM     15  N   UNL     1      -8.720  54.511  49.544  0.00  0.00    +0.000 N 
ATOM     16  C   UNL     1      -6.426  54.015  50.804  0.00  0.00    +0.000 A 
ATOM     17  C   UNL     1      -9.096  55.128  50.734  0.00  0.00    +0.000 C 
ATOM     18  C   UNL     1      -7.072  54.646  51.864  0.00  0.00    +0.000 A 
ATOM     19  C   UNL     1      -5.166  53.421  50.930  0.00  0.00    +0.000 A 
ATOM     20  N   UNL     1      -8.353  55.217  51.784  0.00  0.00    +0.000 N 
ATOM     21  C   UNL     1      -6.404  54.671  53.109  0.00  0.00    +0.000 A 
ATOM     22  C   UNL     1      -4.513  53.460  52.154  0.00  0.00    +0.000 A 
ATOM     23  C   UNL     1      -5.129  54.083  53.237  0.00  0.00    +0.000 A 
ATOM     24  C   UNL     1      -6.989  55.315  54.339  0.00  0.00    +0.000 C 
ATOM     25  H   UNL     1      -9.405  54.380  48.849  0.00  0.00    +0.000 HD
ATOM     26  H   UNL     1      -8.698  55.709  52.564  0.00  0.00    +0.000 HD
ENDBRANCH   1  17
BRANCH   3  27
ATOM     27  O   UNL     1     -11.012  55.024  53.011  0.00  0.00    +0.000 OA
ATOM     28  H   UNL     1     -10.318  55.423  53.498  0.00  0.00    +0.000 HD
ENDBRANCH   3  27
BRANCH   5  29
ATOM     29  C   UNL     1     -12.195  53.893  49.081  0.00  0.00    +0.000 C 
BRANCH  29  30
ATOM     30  C   UNL     1     -12.048  53.357  47.689  0.00  0.00    +0.000 A 
ATOM     31  C   UNL     1     -12.368  52.023  47.411  0.00  0.00    +0.000 A 
ATOM     32  C   UNL     1     -11.701  54.213  46.634  0.00  0.00    +0.000 A 
ATOM     33  C   UNL     1     -12.318  51.547  46.103  0.00  0.00    +0.000 A 
ATOM     34  C   UNL     1     -11.648  53.734  45.326  0.00  0.00    +0.000 A 
ATOM     35  C   UNL     1     -11.951  52.400  45.062  0.00  0.00    +0.000 A 
ENDBRANCH  29  30
ENDBRANCH   5  29
TORSDOF 4
ENDMDL
MODEL 6
REMARK VINA RESULT:      -8.5      1.588      4.672
REMARK  Name = 353104
REMARK  5 active torsions:
REMARK  status: ('A' for Active; 'I' for Inactive)
REMARK    1  A    between atoms: C_6  and  C_10
REMARK    2  A    between atoms: C_11  and  C_16
REMARK    3  A    between atoms: C_14  and  O_19
REMARK    4  A    between atoms: N_18  and  C_22
REMARK    5  A    between atoms: C_22  and  C_25
REMARK                            x       y       z     vdW  Elec       q    Type
REMARK                         _______ _______ _______ _____ _____    ______ ____
ROOT
ATOM      1  C   UNL     1      -9.270  53.689  49.357  0.00  0.00    +0.000 A 
ATOM      2  C   UNL     1     -10.732  53.402  49.269  0.00  0.00    +0.000 A 
ATOM      3  C   UNL     1      -8.687  54.029  48.194  0.00  0.00    +0.000 A 
ATOM      4  O   UNL     1     -11.255  52.509  49.925  0.00  0.00    +0.000 OA
ATOM      5  N   UNL     1     -11.417  54.315  48.449  0.00  0.00    +0.000 N 
ATOM      6  C   UNL     1      -9.517  53.976  46.979  0.00  0.00    +0.000 A 
ATOM      7  C   UNL     1     -10.897  54.239  47.114  0.00  0.00    +0.000 A 
ATOM      8  C   UNL     1      -9.040  53.516  45.755  0.00  0.00    +0.000 A 
ATOM      9  N   UNL     1     -11.772  54.110  46.099  0.00  0.00    +0.000 NA
ATOM     10  C   UNL     1      -9.947  53.306  44.721  0.00  0.00    +0.000 A 
ATOM     11  C   UNL     1     -11.283  53.627  44.933  0.00  0.00    +0.000 A 
ENDROOT
BRANCH   1  17
ATOM     12  S   UNL     1      -9.132  53.922  53.308  0.00  0.00    +0.000 S 
ATOM     13  O   UNL     1      -9.400  52.612  53.852  0.00  0.00    +0.000 OA
ATOM     14  O   UNL     1      -9.723  55.113  53.885  0.00  0.00    +0.000 OA
ATOM     15  N   UNL     1      -9.552  53.904  51.719  0.00  0.00    +0.000 N 
ATOM     16  C   UNL     1      -7.405  54.145  53.276  0.00  0.00    +0.000 A 
ATOM     17  C   UNL     1      -8.633  53.758  50.684  0.00  0.00    +0.000 C 
ATOM     18  C   UNL     1      -6.726  54.017  52.066  0.00  0.00    +0.000 A 
ATOM     19  C   UNL     1      -6.753  54.417  54.484  0.00  0.00    +0.000 A 
ATOM     20  N   UNL     1      -7.351  53.784  50.830  0.00  0.00    +0.000 N 
ATOM     21  C   UNL     1      -5.323  54.175  52.089  0.00  0.00    +0.000 A 
ATOM     22  C   UNL     1      -5.374  54.560  54.497  0.00  0.00    +0.000 A 
ATOM     23  C   UNL     1      -4.662  54.438  53.306  0.00  0.00    +0.000 A 
ATOM     24  C   UNL     1      -4.468  54.066  50.853  0.00  0.00    +0.000 C 
ATOM     25  H   UNL     1     -10.504  54.002  51.487  0.00  0.00    +0.000 HD
ATOM     26  H   UNL     1      -6.785  53.631  50.038  0.00  0.00    +0.000 HD
ENDBRANCH   1  17
BRANCH   3  27
ATOM     27  O   UNL     1      -7.393  54.472  48.073  0.00  0.00    +0.000 OA
ATOM     28  H   UNL     1      -7.048  55.086  48.690  0.00  0.00    +0.000 HD
ENDBRANCH   3  27
BRANCH   5  29
ATOM     29  C   UNL     1     -11.364  55.670  49.029  0.00  0.00    +0.000 C 
BRANCH  29  30
ATOM     30  C   UNL     1     -12.534  56.088  49.867  0.00  0.00    +0.000 A 
ATOM     31  C   UNL     1     -13.776  56.334  49.270  0.00  0.00    +0.000 A 
ATOM     32  C   UNL     1     -12.426  56.124  51.265  0.00  0.00    +0.000 A 
ATOM     33  C   UNL     1     -14.885  56.635  50.057  0.00  0.00    +0.000 A 
ATOM     34  C   UNL     1     -13.537  56.429  52.050  0.00  0.00    +0.000 A 
ATOM     35  C   UNL     1     -14.764  56.690  51.445  0.00  0.00    +0.000 A 
ENDBRANCH  29  30
ENDBRANCH   5  29
TORSDOF 4
ENDMDL
MODEL 7
REMARK VINA RESULT:      -8.4      2.930      5.716
REMARK  Name = 353104
REMARK  5 active torsions:
REMARK  status: ('A' for Active; 'I' for Inactive)
REMARK    1  A    between atoms: C_6  and  C_10
REMARK    2  A    between atoms: C_11  and  C_16
REMARK    3  A    between atoms: C_14  and  O_19
REMARK    4  A    between atoms: N_18  and  C_22
REMARK    5  A    between atoms: C_22  and  C_25
REMARK                            x       y       z     vdW  Elec       q    Type
REMARK                         _______ _______ _______ _____ _____    ______ ____
ROOT
ATOM      1  C   UNL     1     -12.508  54.491  49.481  0.00  0.00    +0.000 A 
ATOM      2  C   UNL     1     -12.332  54.186  50.932  0.00  0.00    +0.000 A 
ATOM      3  C   UNL     1     -13.143  55.647  49.217  0.00  0.00    +0.000 A 
ATOM      4  O   UNL     1     -12.429  53.044  51.367  0.00  0.00    +0.000 OA
ATOM      5  N   UNL     1     -11.955  55.312  51.683  0.00  0.00    +0.000 N 
ATOM      6  C   UNL     1     -13.671  56.406  50.364  0.00  0.00    +0.000 A 
ATOM      7  C   UNL     1     -12.980  56.311  51.590  0.00  0.00    +0.000 A 
ATOM      8  C   UNL     1     -14.898  57.064  50.336  0.00  0.00    +0.000 A 
ATOM      9  N   UNL     1     -13.429  56.866  52.731  0.00  0.00    +0.000 NA
ATOM     10  C   UNL     1     -15.408  57.576  51.525  0.00  0.00    +0.000 A 
ATOM     11  C   UNL     1     -14.641  57.467  52.678  0.00  0.00    +0.000 A 
ENDROOT
BRANCH   1  17
ATOM     12  S   UNL     1     -11.784  51.166  47.456  0.00  0.00    +0.000 S 
ATOM     13  O   UNL     1     -12.799  51.020  46.439  0.00  0.00    +0.000 OA
ATOM     14  O   UNL     1     -11.342  50.035  48.247  0.00  0.00    +0.000 OA
ATOM     15  N   UNL     1     -12.289  52.319  48.512  0.00  0.00    +0.000 N 
ATOM     16  C   UNL     1     -10.380  51.878  46.710  0.00  0.00    +0.000 A 
ATOM     17  C   UNL     1     -11.841  53.636  48.483  0.00  0.00    +0.000 C 
ATOM     18  C   UNL     1     -10.115  53.230  46.913  0.00  0.00    +0.000 A 
ATOM     19  C   UNL     1      -9.579  51.063  45.902  0.00  0.00    +0.000 A 
ATOM     20  N   UNL     1     -10.874  54.068  47.747  0.00  0.00    +0.000 N 
ATOM     21  C   UNL     1      -8.984  53.775  46.265  0.00  0.00    +0.000 A 
ATOM     22  C   UNL     1      -8.476  51.610  45.263  0.00  0.00    +0.000 A 
ATOM     23  C   UNL     1      -8.181  52.959  45.442  0.00  0.00    +0.000 A 
ATOM     24  C   UNL     1      -8.580  55.220  46.402  0.00  0.00    +0.000 C 
ATOM     25  H   UNL     1     -12.944  52.064  49.203  0.00  0.00    +0.000 HD
ATOM     26  H   UNL     1     -10.658  55.028  47.770  0.00  0.00    +0.000 HD
ENDBRANCH   1  17
BRANCH   3  27
ATOM     27  O   UNL     1     -13.282  56.190  47.964  0.00  0.00    +0.000 OA
ATOM     28  H   UNL     1     -12.774  56.939  47.719  0.00  0.00    +0.000 HD
ENDBRANCH   3  27
BRANCH   5  29
ATOM     29  C   UNL     1     -10.624  55.789  51.265  0.00  0.00    +0.000 C 
BRANCH  29  30
ATOM     30  C   UNL     1      -9.449  54.959  51.686  0.00  0.00    +0.000 A 
ATOM     31  C   UNL     1      -9.246  54.661  53.039  0.00  0.00    +0.000 A 
ATOM     32  C   UNL     1      -8.612  54.376  50.723  0.00  0.00    +0.000 A 
ATOM     33  C   UNL     1      -8.208  53.816  53.424  0.00  0.00    +0.000 A 
ATOM     34  C   UNL     1      -7.572  53.534  51.111  0.00  0.00    +0.000 A 
ATOM     35  C   UNL     1      -7.367  53.259  52.461  0.00  0.00    +0.000 A 
ENDBRANCH  29  30
ENDBRANCH   5  29
TORSDOF 4
ENDMDL
MODEL 8
REMARK VINA RESULT:      -8.4      2.376      5.241
REMARK  Name = 353104
REMARK  5 active torsions:
REMARK  status: ('A' for Active; 'I' for Inactive)
REMARK    1  A    between atoms: C_6  and  C_10
REMARK    2  A    between atoms: C_11  and  C_16
REMARK    3  A    between atoms: C_14  and  O_19
REMARK    4  A    between atoms: N_18  and  C_22
REMARK    5  A    between atoms: C_22  and  C_25
REMARK                            x       y       z     vdW  Elec       q    Type
REMARK                         _______ _______ _______ _____ _____    ______ ____
ROOT
ATOM      1  C   UNL     1      -8.618  53.542  48.026  0.00  0.00    +0.000 A 
ATOM      2  C   UNL     1     -10.087  53.275  47.994  0.00  0.00    +0.000 A 
ATOM      3  C   UNL     1      -8.036  53.655  46.819  0.00  0.00    +0.000 A 
ATOM      4  O   UNL     1     -10.624  52.526  48.802  0.00  0.00    +0.000 OA
ATOM      5  N   UNL     1     -10.758  54.040  47.025  0.00  0.00    +0.000 N 
ATOM      6  C   UNL     1      -8.875  53.402  45.636  0.00  0.00    +0.000 A 
ATOM      7  C   UNL     1     -10.248  53.715  45.724  0.00  0.00    +0.000 A 
ATOM      8  C   UNL     1      -8.415  52.720  44.513  0.00  0.00    +0.000 A 
ATOM      9  N   UNL     1     -11.132  53.423  44.751  0.00  0.00    +0.000 NA
ATOM     10  C   UNL     1      -9.332  52.346  43.536  0.00  0.00    +0.000 A 
ATOM     11  C   UNL     1     -10.659  52.728  43.690  0.00  0.00    +0.000 A 
ENDROOT
BRANCH   1  17
ATOM     12  S   UNL     1      -5.663  53.665  50.659  0.00  0.00    +0.000 S 
ATOM     13  O   UNL     1      -4.809  54.784  50.335  0.00  0.00    +0.000 OA
ATOM     14  O   UNL     1      -5.111  52.381  51.040  0.00  0.00    +0.000 OA
ATOM     15  N   UNL     1      -6.652  53.396  49.374  0.00  0.00    +0.000 N 
ATOM     16  C   UNL     1      -6.753  54.173  51.920  0.00  0.00    +0.000 A 
ATOM     17  C   UNL     1      -7.972  53.835  49.318  0.00  0.00    +0.000 C 
ATOM     18  C   UNL     1      -8.071  54.483  51.593  0.00  0.00    +0.000 A 
ATOM     19  C   UNL     1      -6.250  54.279  53.221  0.00  0.00    +0.000 A 
ATOM     20  N   UNL     1      -8.619  54.350  50.307  0.00  0.00    +0.000 N 
ATOM     21  C   UNL     1      -8.913  54.920  52.640  0.00  0.00    +0.000 A 
ATOM     22  C   UNL     1      -7.083  54.718  54.240  0.00  0.00    +0.000 A 
ATOM     23  C   UNL     1      -8.407  55.039  53.950  0.00  0.00    +0.000 A 
ATOM     24  C   UNL     1     -10.360  55.284  52.427  0.00  0.00    +0.000 C 
ATOM     25  H   UNL     1      -6.292  52.899  48.605  0.00  0.00    +0.000 HD
ATOM     26  H   UNL     1      -9.539  54.667  50.153  0.00  0.00    +0.000 HD
ENDBRANCH   1  17
BRANCH   3  27
ATOM     27  O   UNL     1      -6.734  54.041  46.617  0.00  0.00    +0.000 OA
ATOM     28  H   UNL     1      -6.106  53.423  46.297  0.00  0.00    +0.000 HD
ENDBRANCH   3  27
BRANCH   5  29
ATOM     29  C   UNL     1     -10.674  55.475  47.352  0.00  0.00    +0.000 C 
BRANCH  29  30
ATOM     30  C   UNL     1     -11.886  56.094  47.979  0.00  0.00    +0.000 A 
ATOM     31  C   UNL     1     -11.914  56.348  49.356  0.00  0.00    +0.000 A 
ATOM     32  C   UNL     1     -12.952  56.531  47.180  0.00  0.00    +0.000 A 
ATOM     33  C   UNL     1     -13.003  57.004  49.926  0.00  0.00    +0.000 A 
ATOM     34  C   UNL     1     -14.042  57.184  47.754  0.00  0.00    +0.000 A 
ATOM     35  C   UNL     1     -14.069  57.415  49.127  0.00  0.00    +0.000 A 
ENDBRANCH  29  30
ENDBRANCH   5  29
TORSDOF 4
ENDMDL
MODEL 9
REMARK VINA RESULT:      -8.4      1.548      4.539
REMARK  Name = 353104
REMARK  5 active torsions:
REMARK  status: ('A' for Active; 'I' for Inactive)
REMARK    1  A    between atoms: C_6  and  C_10
REMARK    2  A    between atoms: C_11  and  C_16
REMARK    3  A    between atoms: C_14  and  O_19
REMARK    4  A    between atoms: N_18  and  C_22
REMARK    5  A    between atoms: C_22  and  C_25
REMARK                            x       y       z     vdW  Elec       q    Type
REMARK                         _______ _______ _______ _____ _____    ______ ____
ROOT
ATOM      1  C   UNL     1      -8.540  54.131  49.447  0.00  0.00    +0.000 A 
ATOM      2  C   UNL     1      -9.952  53.700  49.668  0.00  0.00    +0.000 A 
ATOM      3  C   UNL     1      -8.263  54.554  48.201  0.00  0.00    +0.000 A 
ATOM      4  O   UNL     1     -10.231  52.745  50.383  0.00  0.00    +0.000 OA
ATOM      5  N   UNL     1     -10.884  54.556  49.056  0.00  0.00    +0.000 N 
ATOM      6  C   UNL     1      -9.333  54.443  47.195  0.00  0.00    +0.000 A 
ATOM      7  C   UNL     1     -10.667  54.562  47.639  0.00  0.00    +0.000 A 
ATOM      8  C   UNL     1      -9.097  54.060  45.878  0.00  0.00    +0.000 A 
ATOM      9  N   UNL     1     -11.729  54.367  46.834  0.00  0.00    +0.000 NA
ATOM     10  C   UNL     1     -10.186  53.782  45.058  0.00  0.00    +0.000 A 
ATOM     11  C   UNL     1     -11.465  53.960  45.570  0.00  0.00    +0.000 A 
ENDROOT
BRANCH   1  17
ATOM     12  S   UNL     1      -7.317  55.402  52.994  0.00  0.00    +0.000 S 
ATOM     13  O   UNL     1      -8.026  54.663  54.013  0.00  0.00    +0.000 OA
ATOM     14  O   UNL     1      -7.107  56.831  53.108  0.00  0.00    +0.000 OA
ATOM     15  N   UNL     1      -8.081  55.145  51.561  0.00  0.00    +0.000 N 
ATOM     16  C   UNL     1      -5.762  54.649  52.773  0.00  0.00    +0.000 A 
ATOM     17  C   UNL     1      -7.635  54.236  50.606  0.00  0.00    +0.000 C 
ATOM     18  C   UNL     1      -5.555  53.832  51.664  0.00  0.00    +0.000 A 
ATOM     19  C   UNL     1      -4.779  54.873  53.743  0.00  0.00    +0.000 A 
ATOM     20  N   UNL     1      -6.504  53.617  50.651  0.00  0.00    +0.000 N 
ATOM     21  C   UNL     1      -4.289  53.217  51.538  0.00  0.00    +0.000 A 
ATOM     22  C   UNL     1      -3.543  54.256  53.616  0.00  0.00    +0.000 A 
ATOM     23  C   UNL     1      -3.300  53.431  52.520  0.00  0.00    +0.000 A 
ATOM     24  C   UNL     1      -3.930  52.313  50.388  0.00  0.00    +0.000 C 
ATOM     25  H   UNL     1      -8.897  55.662  51.369  0.00  0.00    +0.000 HD
ATOM     26  H   UNL     1      -6.298  52.962  49.945  0.00  0.00    +0.000 HD
ENDBRANCH   1  17
BRANCH   3  27
ATOM     27  O   UNL     1      -7.075  55.127  47.820  0.00  0.00    +0.000 OA
ATOM     28  H   UNL     1      -6.900  55.283  46.913  0.00  0.00    +0.000 HD
ENDBRANCH   3  27
BRANCH   5  29
ATOM     29  C   UNL     1     -10.832  55.896  49.669  0.00  0.00    +0.000 C 
BRANCH  29  30
ATOM     30  C   UNL     1     -12.114  56.428  50.235  0.00  0.00    +0.000 A 
ATOM     31  C   UNL     1     -12.532  56.041  51.514  0.00  0.00    +0.000 A 
ATOM     32  C   UNL     1     -12.844  57.402  49.540  0.00  0.00    +0.000 A 
ATOM     33  C   UNL     1     -13.677  56.602  52.077  0.00  0.00    +0.000 A 
ATOM     34  C   UNL     1     -13.991  57.960  50.104  0.00  0.00    +0.000 A 
ATOM     35  C   UNL     1     -14.409  57.555  51.370  0.00  0.00    +0.000 A 
ENDBRANCH  29  30
ENDBRANCH   5  29
TORSDOF 4
ENDMDL
