MODEL 1
REMARK VINA RESULT:      -7.8      0.000      0.000
REMARK  Name = 352770
REMARK  11 active torsions:
REMARK  status: ('A' for Active; 'I' for Inactive)
REMARK    1  A    between atoms: C_6  and  C_10
REMARK    2  A    between atoms: C_12  and  O_16
REMARK    3  A    between atoms: C_14  and  O_19
REMARK    4  A    between atoms: O_16  and  C_21
REMARK    5  A    between atoms: N_18  and  C_23
REMARK    6  A    between atoms: C_21  and  C_25
REMARK    7  A    between atoms: C_23  and  C_27
REMARK    8  A    between atoms: C_25  and  N_29
REMARK    9  A    between atoms: C_27  and  C_31
REMARK   10  A    between atoms: C_31  and  C_32
REMARK   11  A    between atoms: C_31  and  C_33
REMARK                            x       y       z     vdW  Elec       q    Type
REMARK                         _______ _______ _______ _____ _____    ______ ____
ROOT
ATOM      1  S   UNL     1     -11.823  55.319  49.584  0.00  0.00    +0.000 S 
ATOM      2  O   UNL     1     -12.652  54.265  49.026  0.00  0.00    +0.000 OA
ATOM      3  O   UNL     1     -11.109  56.233  48.713  0.00  0.00    +0.000 OA
ATOM      4  N   UNL     1     -10.749  54.631  50.573  0.00  0.00    +0.000 N 
ATOM      5  C   UNL     1     -12.893  56.310  50.553  0.00  0.00    +0.000 A 
ATOM      6  C   UNL     1     -10.838  54.763  51.864  0.00  0.00    +0.000 C 
ATOM      7  C   UNL     1     -12.761  56.267  51.931  0.00  0.00    +0.000 A 
ATOM      8  C   UNL     1     -13.830  57.124  49.919  0.00  0.00    +0.000 A 
ATOM      9  N   UNL     1     -11.831  55.433  52.541  0.00  0.00    +0.000 N 
ATOM     10  C   UNL     1     -13.641  57.030  52.701  0.00  0.00    +0.000 A 
ATOM     11  C   UNL     1     -14.693  57.889  50.695  0.00  0.00    +0.000 A 
ATOM     12  C   UNL     1     -14.590  57.849  52.086  0.00  0.00    +0.000 A 
ATOM     13  H   UNL     1     -10.012  54.100  50.193  0.00  0.00    +0.000 HD
ATOM     14  H   UNL     1     -11.887  55.315  53.517  0.00  0.00    +0.000 HD
ENDROOT
BRANCH   6  15
ATOM     15  C   UNL     1      -9.720  54.143  52.669  0.00  0.00    +0.000 A 
ATOM     16  C   UNL     1      -8.355  54.752  52.620  0.00  0.00    +0.000 A 
ATOM     17  C   UNL     1      -9.949  53.063  53.436  0.00  0.00    +0.000 A 
ATOM     18  O   UNL     1      -8.199  55.803  51.993  0.00  0.00    +0.000 OA
ATOM     19  N   UNL     1      -7.329  54.113  53.284  0.00  0.00    +0.000 N 
ATOM     20  C   UNL     1      -8.844  52.426  54.152  0.00  0.00    +0.000 A 
ATOM     21  C   UNL     1      -7.546  52.934  54.042  0.00  0.00    +0.000 A 
ATOM     22  C   UNL     1      -9.037  51.271  54.918  0.00  0.00    +0.000 A 
ATOM     23  N   UNL     1      -6.482  52.344  54.637  0.00  0.00    +0.000 NA
ATOM     24  C   UNL     1      -7.953  50.656  55.528  0.00  0.00    +0.000 A 
ATOM     25  C   UNL     1      -6.706  51.225  55.357  0.00  0.00    +0.000 A 
BRANCH  17  26
ATOM     26  O   UNL     1     -11.181  52.453  53.598  0.00  0.00    +0.000 OA
ATOM     27  H   UNL     1     -11.288  51.549  53.376  0.00  0.00    +0.000 HD
ENDBRANCH  17  26
BRANCH  19  28
ATOM     28  C   UNL     1      -5.964  54.633  53.175  0.00  0.00    +0.000 C 
BRANCH  28  29
ATOM     29  C   UNL     1      -5.249  54.087  51.930  0.00  0.00    +0.000 C 
BRANCH  29  30
ATOM     30  C   UNL     1      -3.743  53.823  52.126  0.00  0.00    +0.000 C 
ATOM     31  C   UNL     1      -3.303  53.963  53.583  0.00  0.00    +0.000 C 
ATOM     32  C   UNL     1      -3.403  52.415  51.625  0.00  0.00    +0.000 C 
ENDBRANCH  29  30
ENDBRANCH  28  29
ENDBRANCH  19  28
ENDBRANCH   6  15
BRANCH  11  33
ATOM     33  O   UNL     1     -15.648  58.728  50.194  0.00  0.00    +0.000 OA
BRANCH  33  34
ATOM     34  C   UNL     1     -15.377  60.120  50.386  0.00  0.00    +0.000 C 
BRANCH  34  35
ATOM     35  C   UNL     1     -14.248  60.527  49.442  0.00  0.00    +0.000 C 
BRANCH  35  36
ATOM     36  N   UNL     1     -14.766  61.169  48.234  0.00  0.00    +0.000 N 
ATOM     37  H   UNL     1     -15.133  62.091  48.470  0.00  0.00    +0.000 HD
ATOM     38  H   UNL     1     -15.511  60.598  47.838  0.00  0.00    +0.000 HD
ATOM     39  H   UNL     1     -14.013  61.266  47.553  0.00  0.00    +0.000 HD
ENDBRANCH  35  36
ENDBRANCH  34  35
ENDBRANCH  33  34
ENDBRANCH  11  33
TORSDOF 9
ENDMDL
MODEL 2
REMARK VINA RESULT:      -7.4      3.588      5.533
REMARK  Name = 352770
REMARK  11 active torsions:
REMARK  status: ('A' for Active; 'I' for Inactive)
REMARK    1  A    between atoms: C_6  and  C_10
REMARK    2  A    between atoms: C_12  and  O_16
REMARK    3  A    between atoms: C_14  and  O_19
REMARK    4  A    between atoms: O_16  and  C_21
REMARK    5  A    between atoms: N_18  and  C_23
REMARK    6  A    between atoms: C_21  and  C_25
REMARK    7  A    between atoms: C_23  and  C_27
REMARK    8  A    between atoms: C_25  and  N_29
REMARK    9  A    between atoms: C_27  and  C_31
REMARK   10  A    between atoms: C_31  and  C_32
REMARK   11  A    between atoms: C_31  and  C_33
REMARK                            x       y       z     vdW  Elec       q    Type
REMARK                         _______ _______ _______ _____ _____    ______ ____
ROOT
ATOM      1  S   UNL     1     -13.512  59.180  49.404  0.00  0.00    +0.000 S 
ATOM      2  O   UNL     1     -14.643  59.327  48.505  0.00  0.00    +0.000 OA
ATOM      3  O   UNL     1     -12.647  60.309  49.689  0.00  0.00    +0.000 OA
ATOM      4  N   UNL     1     -12.593  57.975  48.848  0.00  0.00    +0.000 N 
ATOM      5  C   UNL     1     -14.182  58.683  50.944  0.00  0.00    +0.000 A 
ATOM      6  C   UNL     1     -12.535  56.830  49.463  0.00  0.00    +0.000 C 
ATOM      7  C   UNL     1     -13.953  57.386  51.371  0.00  0.00    +0.000 A 
ATOM      8  C   UNL     1     -14.906  59.602  51.701  0.00  0.00    +0.000 A 
ATOM      9  N   UNL     1     -13.244  56.482  50.589  0.00  0.00    +0.000 N 
ATOM     10  C   UNL     1     -14.521  56.982  52.582  0.00  0.00    +0.000 A 
ATOM     11  C   UNL     1     -15.456  59.193  52.911  0.00  0.00    +0.000 A 
ATOM     12  C   UNL     1     -15.254  57.885  53.354  0.00  0.00    +0.000 A 
ATOM     13  H   UNL     1     -12.065  58.109  48.027  0.00  0.00    +0.000 HD
ATOM     14  H   UNL     1     -13.250  55.535  50.858  0.00  0.00    +0.000 HD
ENDROOT
BRANCH   6  15
ATOM     15  C   UNL     1     -11.570  55.821  48.887  0.00  0.00    +0.000 A 
ATOM     16  C   UNL     1     -10.538  55.201  49.775  0.00  0.00    +0.000 A 
ATOM     17  C   UNL     1     -11.644  55.467  47.592  0.00  0.00    +0.000 A 
ATOM     18  O   UNL     1     -10.562  55.464  50.981  0.00  0.00    +0.000 OA
ATOM     19  N   UNL     1      -9.608  54.357  49.207  0.00  0.00    +0.000 N 
ATOM     20  C   UNL     1     -10.659  54.547  47.027  0.00  0.00    +0.000 A 
ATOM     21  C   UNL     1      -9.635  54.031  47.828  0.00  0.00    +0.000 A 
ATOM     22  C   UNL     1     -10.676  54.196  45.673  0.00  0.00    +0.000 A 
ATOM     23  N   UNL     1      -8.666  53.222  47.337  0.00  0.00    +0.000 NA
ATOM     24  C   UNL     1      -9.684  53.373  45.158  0.00  0.00    +0.000 A 
ATOM     25  C   UNL     1      -8.708  52.918  46.022  0.00  0.00    +0.000 A 
BRANCH  17  26
ATOM     26  O   UNL     1     -12.590  55.934  46.696  0.00  0.00    +0.000 OA
ATOM     27  H   UNL     1     -13.213  56.580  46.967  0.00  0.00    +0.000 HD
ENDBRANCH  17  26
BRANCH  19  28
ATOM     28  C   UNL     1      -8.528  53.812  50.034  0.00  0.00    +0.000 C 
BRANCH  28  29
ATOM     29  C   UNL     1      -7.265  54.683  49.961  0.00  0.00    +0.000 C 
BRANCH  29  30
ATOM     30  C   UNL     1      -6.961  55.472  51.249  0.00  0.00    +0.000 C 
ATOM     31  C   UNL     1      -7.512  56.898  51.213  0.00  0.00    +0.000 C 
ATOM     32  C   UNL     1      -7.551  54.730  52.453  0.00  0.00    +0.000 C 
ENDBRANCH  29  30
ENDBRANCH  28  29
ENDBRANCH  19  28
ENDBRANCH   6  15
BRANCH  11  33
ATOM     33  O   UNL     1     -16.179  59.998  53.745  0.00  0.00    +0.000 OA
BRANCH  33  34
ATOM     34  C   UNL     1     -16.090  59.652  55.131  0.00  0.00    +0.000 C 
BRANCH  34  35
ATOM     35  C   UNL     1     -16.814  60.723  55.945  0.00  0.00    +0.000 C 
BRANCH  35  36
ATOM     36  N   UNL     1     -17.744  61.487  55.115  0.00  0.00    +0.000 N 
ATOM     37  H   UNL     1     -18.483  60.871  54.777  0.00  0.00    +0.000 HD
ATOM     38  H   UNL     1     -17.243  61.885  54.321  0.00  0.00    +0.000 HD
ATOM     39  H   UNL     1     -18.153  62.239  55.670  0.00  0.00    +0.000 HD
ENDBRANCH  35  36
ENDBRANCH  34  35
ENDBRANCH  33  34
ENDBRANCH  11  33
TORSDOF 9
ENDMDL
MODEL 3
REMARK VINA RESULT:      -7.1      4.024      6.097
REMARK  Name = 352770
REMARK  11 active torsions:
REMARK  status: ('A' for Active; 'I' for Inactive)
REMARK    1  A    between atoms: C_6  and  C_10
REMARK    2  A    between atoms: C_12  and  O_16
REMARK    3  A    between atoms: C_14  and  O_19
REMARK    4  A    between atoms: O_16  and  C_21
REMARK    5  A    between atoms: N_18  and  C_23
REMARK    6  A    between atoms: C_21  and  C_25
REMARK    7  A    between atoms: C_23  and  C_27
REMARK    8  A    between atoms: C_25  and  N_29
REMARK    9  A    between atoms: C_27  and  C_31
REMARK   10  A    between atoms: C_31  and  C_32
REMARK   11  A    between atoms: C_31  and  C_33
REMARK                            x       y       z     vdW  Elec       q    Type
REMARK                         _______ _______ _______ _____ _____    ______ ____
ROOT
ATOM      1  S   UNL     1     -13.460  59.107  49.394  0.00  0.00    +0.000 S 
ATOM      2  O   UNL     1     -14.590  59.172  48.484  0.00  0.00    +0.000 OA
ATOM      3  O   UNL     1     -12.654  60.286  49.651  0.00  0.00    +0.000 OA
ATOM      4  N   UNL     1     -12.478  57.934  48.879  0.00  0.00    +0.000 N 
ATOM      5  C   UNL     1     -14.116  58.623  50.944  0.00  0.00    +0.000 A 
ATOM      6  C   UNL     1     -12.369  56.812  49.528  0.00  0.00    +0.000 C 
ATOM      7  C   UNL     1     -13.828  57.352  51.411  0.00  0.00    +0.000 A 
ATOM      8  C   UNL     1     -14.890  59.527  51.669  0.00  0.00    +0.000 A 
ATOM      9  N   UNL     1     -13.069  56.462  50.660  0.00  0.00    +0.000 N 
ATOM     10  C   UNL     1     -14.384  56.956  52.629  0.00  0.00    +0.000 A 
ATOM     11  C   UNL     1     -15.429  59.127  52.886  0.00  0.00    +0.000 A 
ATOM     12  C   UNL     1     -15.166  57.845  53.369  0.00  0.00    +0.000 A 
ATOM     13  H   UNL     1     -11.952  58.069  48.058  0.00  0.00    +0.000 HD
ATOM     14  H   UNL     1     -13.030  55.524  50.957  0.00  0.00    +0.000 HD
ENDROOT
BRANCH   6  15
ATOM     15  C   UNL     1     -11.352  55.834  48.988  0.00  0.00    +0.000 A 
ATOM     16  C   UNL     1     -11.368  55.485  47.534  0.00  0.00    +0.000 A 
ATOM     17  C   UNL     1     -10.428  55.292  49.800  0.00  0.00    +0.000 A 
ATOM     18  O   UNL     1     -12.158  56.078  46.793  0.00  0.00    +0.000 OA
ATOM     19  N   UNL     1     -10.494  54.518  47.083  0.00  0.00    +0.000 N 
ATOM     20  C   UNL     1      -9.496  54.291  49.284  0.00  0.00    +0.000 A 
ATOM     21  C   UNL     1      -9.561  53.891  47.946  0.00  0.00    +0.000 A 
ATOM     22  C   UNL     1      -8.555  53.670  50.112  0.00  0.00    +0.000 A 
ATOM     23  N   UNL     1      -8.759  52.925  47.436  0.00  0.00    +0.000 NA
ATOM     24  C   UNL     1      -7.732  52.675  49.602  0.00  0.00    +0.000 A 
ATOM     25  C   UNL     1      -7.874  52.340  48.270  0.00  0.00    +0.000 A 
BRANCH  17  26
ATOM     26  O   UNL     1     -10.286  55.585  51.146  0.00  0.00    +0.000 OA
ATOM     27  H   UNL     1      -9.447  55.508  51.556  0.00  0.00    +0.000 HD
ENDBRANCH  17  26
BRANCH  19  28
ATOM     28  C   UNL     1     -10.554  54.088  45.684  0.00  0.00    +0.000 C 
BRANCH  28  29
ATOM     29  C   UNL     1     -11.770  53.187  45.421  0.00  0.00    +0.000 C 
BRANCH  29  30
ATOM     30  C   UNL     1     -11.556  51.706  45.791  0.00  0.00    +0.000 C 
ATOM     31  C   UNL     1     -12.599  51.188  46.782  0.00  0.00    +0.000 C 
ATOM     32  C   UNL     1     -11.594  50.852  44.519  0.00  0.00    +0.000 C 
ENDBRANCH  29  30
ENDBRANCH  28  29
ENDBRANCH  19  28
ENDBRANCH   6  15
BRANCH  11  33
ATOM     33  O   UNL     1     -16.197  59.920  53.692  0.00  0.00    +0.000 OA
BRANCH  33  34
ATOM     34  C   UNL     1     -16.095  59.625  55.089  0.00  0.00    +0.000 C 
BRANCH  34  35
ATOM     35  C   UNL     1     -16.823  60.718  55.868  0.00  0.00    +0.000 C 
BRANCH  35  36
ATOM     36  N   UNL     1     -17.692  61.507  54.997  0.00  0.00    +0.000 N 
ATOM     37  H   UNL     1     -18.655  61.441  55.327  0.00  0.00    +0.000 HD
ATOM     38  H   UNL     1     -17.634  61.150  54.044  0.00  0.00    +0.000 HD
ATOM     39  H   UNL     1     -17.393  62.482  55.013  0.00  0.00    +0.000 HD
ENDBRANCH  35  36
ENDBRANCH  34  35
ENDBRANCH  33  34
ENDBRANCH  11  33
TORSDOF 9
ENDMDL
MODEL 4
REMARK VINA RESULT:      -7.0      4.672      6.135
REMARK  Name = 352770
REMARK  11 active torsions:
REMARK  status: ('A' for Active; 'I' for Inactive)
REMARK    1  A    between atoms: C_6  and  C_10
REMARK    2  A    between atoms: C_12  and  O_16
REMARK    3  A    between atoms: C_14  and  O_19
REMARK    4  A    between atoms: O_16  and  C_21
REMARK    5  A    between atoms: N_18  and  C_23
REMARK    6  A    between atoms: C_21  and  C_25
REMARK    7  A    between atoms: C_23  and  C_27
REMARK    8  A    between atoms: C_25  and  N_29
REMARK    9  A    between atoms: C_27  and  C_31
REMARK   10  A    between atoms: C_31  and  C_32
REMARK   11  A    between atoms: C_31  and  C_33
REMARK                            x       y       z     vdW  Elec       q    Type
REMARK                         _______ _______ _______ _____ _____    ______ ____
ROOT
ATOM      1  S   UNL     1     -11.661  54.769  50.622  0.00  0.00    +0.000 S 
ATOM      2  O   UNL     1     -10.718  55.510  51.440  0.00  0.00    +0.000 OA
ATOM      3  O   UNL     1     -12.562  53.805  51.226  0.00  0.00    +0.000 OA
ATOM      4  N   UNL     1     -10.824  54.013  49.467  0.00  0.00    +0.000 N 
ATOM      5  C   UNL     1     -12.681  55.968  49.854  0.00  0.00    +0.000 A 
ATOM      6  C   UNL     1     -10.885  54.399  48.226  0.00  0.00    +0.000 C 
ATOM      7  C   UNL     1     -12.543  56.173  48.492  0.00  0.00    +0.000 A 
ATOM      8  C   UNL     1     -13.609  56.667  50.624  0.00  0.00    +0.000 A 
ATOM      9  N   UNL     1     -11.596  55.477  47.750  0.00  0.00    +0.000 N 
ATOM     10  C   UNL     1     -13.331  57.157  47.891  0.00  0.00    +0.000 A 
ATOM     11  C   UNL     1     -14.397  57.635  50.013  0.00  0.00    +0.000 A 
ATOM     12  C   UNL     1     -14.264  57.872  48.644  0.00  0.00    +0.000 A 
ATOM     13  H   UNL     1     -10.256  53.245  49.705  0.00  0.00    +0.000 HD
ATOM     14  H   UNL     1     -11.425  55.773  46.826  0.00  0.00    +0.000 HD
ENDROOT
BRANCH   6  15
ATOM     15  C   UNL     1     -10.123  53.553  47.234  0.00  0.00    +0.000 A 
ATOM     16  C   UNL     1      -8.763  53.044  47.594  0.00  0.00    +0.000 A 
ATOM     17  C   UNL     1     -10.664  53.243  46.043  0.00  0.00    +0.000 A 
ATOM     18  O   UNL     1      -8.336  53.254  48.733  0.00  0.00    +0.000 OA
ATOM     19  N   UNL     1      -8.048  52.357  46.637  0.00  0.00    +0.000 N 
ATOM     20  C   UNL     1      -9.889  52.487  45.060  0.00  0.00    +0.000 A 
ATOM     21  C   UNL     1      -8.582  52.083  45.353  0.00  0.00    +0.000 A 
ATOM     22  C   UNL     1     -10.402  52.191  43.793  0.00  0.00    +0.000 A 
ATOM     23  N   UNL     1      -7.805  51.433  44.454  0.00  0.00    +0.000 NA
ATOM     24  C   UNL     1      -9.611  51.530  42.863  0.00  0.00    +0.000 A 
ATOM     25  C   UNL     1      -8.330  51.178  43.238  0.00  0.00    +0.000 A 
BRANCH  17  26
ATOM     26  O   UNL     1     -11.932  53.613  45.629  0.00  0.00    +0.000 OA
ATOM     27  H   UNL     1     -12.623  52.980  45.614  0.00  0.00    +0.000 HD
ENDBRANCH  17  26
BRANCH  19  28
ATOM     28  C   UNL     1      -6.676  51.930  46.929  0.00  0.00    +0.000 C 
BRANCH  28  29
ATOM     29  C   UNL     1      -5.717  53.127  47.008  0.00  0.00    +0.000 C 
BRANCH  29  30
ATOM     30  C   UNL     1      -4.764  53.100  48.219  0.00  0.00    +0.000 C 
ATOM     31  C   UNL     1      -4.869  54.358  49.082  0.00  0.00    +0.000 C 
ATOM     32  C   UNL     1      -5.067  51.868  49.078  0.00  0.00    +0.000 C 
ENDBRANCH  29  30
ENDBRANCH  28  29
ENDBRANCH  19  28
ENDBRANCH   6  15
BRANCH  11  33
ATOM     33  O   UNL     1     -15.345  58.383  50.655  0.00  0.00    +0.000 OA
BRANCH  33  34
ATOM     34  C   UNL     1     -14.820  59.413  51.498  0.00  0.00    +0.000 C 
BRANCH  34  35
ATOM     35  C   UNL     1     -15.354  59.198  52.913  0.00  0.00    +0.000 C 
BRANCH  35  36
ATOM     36  N   UNL     1     -14.612  58.150  53.611  0.00  0.00    +0.000 N 
ATOM     37  H   UNL     1     -15.105  57.263  53.515  0.00  0.00    +0.000 HD
ATOM     38  H   UNL     1     -14.532  58.390  54.599  0.00  0.00    +0.000 HD
ATOM     39  H   UNL     1     -13.680  58.067  53.206  0.00  0.00    +0.000 HD
ENDBRANCH  35  36
ENDBRANCH  34  35
ENDBRANCH  33  34
ENDBRANCH  11  33
TORSDOF 9
ENDMDL
MODEL 5
REMARK VINA RESULT:      -6.9      2.556      3.672
REMARK  Name = 352770
REMARK  11 active torsions:
REMARK  status: ('A' for Active; 'I' for Inactive)
REMARK    1  A    between atoms: C_6  and  C_10
REMARK    2  A    between atoms: C_12  and  O_16
REMARK    3  A    between atoms: C_14  and  O_19
REMARK    4  A    between atoms: O_16  and  C_21
REMARK    5  A    between atoms: N_18  and  C_23
REMARK    6  A    between atoms: C_21  and  C_25
REMARK    7  A    between atoms: C_23  and  C_27
REMARK    8  A    between atoms: C_25  and  N_29
REMARK    9  A    between atoms: C_27  and  C_31
REMARK   10  A    between atoms: C_31  and  C_32
REMARK   11  A    between atoms: C_31  and  C_33
REMARK                            x       y       z     vdW  Elec       q    Type
REMARK                         _______ _______ _______ _____ _____    ______ ____
ROOT
ATOM      1  S   UNL     1     -11.288  54.668  48.138  0.00  0.00    +0.000 S 
ATOM      2  O   UNL     1     -12.216  53.619  47.753  0.00  0.00    +0.000 OA
ATOM      3  O   UNL     1     -11.079  55.817  47.277  0.00  0.00    +0.000 OA
ATOM      4  N   UNL     1      -9.853  53.981  48.411  0.00  0.00    +0.000 N 
ATOM      5  C   UNL     1     -11.882  55.304  49.658  0.00  0.00    +0.000 A 
ATOM      6  C   UNL     1      -9.377  53.868  49.617  0.00  0.00    +0.000 C 
ATOM      7  C   UNL     1     -11.160  55.038  50.808  0.00  0.00    +0.000 A 
ATOM      8  C   UNL     1     -13.047  56.070  49.668  0.00  0.00    +0.000 A 
ATOM      9  N   UNL     1     -10.012  54.255  50.775  0.00  0.00    +0.000 N 
ATOM     10  C   UNL     1     -11.657  55.514  52.023  0.00  0.00    +0.000 A 
ATOM     11  C   UNL     1     -13.526  56.550  50.880  0.00  0.00    +0.000 A 
ATOM     12  C   UNL     1     -12.824  56.280  52.056  0.00  0.00    +0.000 A 
ATOM     13  H   UNL     1      -9.327  53.641  47.652  0.00  0.00    +0.000 HD
ATOM     14  H   UNL     1      -9.629  53.959  51.633  0.00  0.00    +0.000 HD
ENDROOT
BRANCH   6  15
ATOM     15  C   UNL     1      -7.987  53.287  49.725  0.00  0.00    +0.000 A 
ATOM     16  C   UNL     1      -6.965  53.980  50.570  0.00  0.00    +0.000 A 
ATOM     17  C   UNL     1      -7.671  52.149  49.083  0.00  0.00    +0.000 A 
ATOM     18  O   UNL     1      -7.313  54.963  51.231  0.00  0.00    +0.000 OA
ATOM     19  N   UNL     1      -5.678  53.486  50.575  0.00  0.00    +0.000 N 
ATOM     20  C   UNL     1      -6.303  51.636  49.134  0.00  0.00    +0.000 A 
ATOM     21  C   UNL     1      -5.317  52.324  49.847  0.00  0.00    +0.000 A 
ATOM     22  C   UNL     1      -5.927  50.482  48.437  0.00  0.00    +0.000 A 
ATOM     23  N   UNL     1      -4.024  51.921  49.874  0.00  0.00    +0.000 NA
ATOM     24  C   UNL     1      -4.604  50.063  48.454  0.00  0.00    +0.000 A 
ATOM     25  C   UNL     1      -3.698  50.811  49.179  0.00  0.00    +0.000 A 
BRANCH  17  26
ATOM     26  O   UNL     1      -8.551  51.398  48.322  0.00  0.00    +0.000 OA
ATOM     27  H   UNL     1      -9.432  51.693  48.199  0.00  0.00    +0.000 HD
ENDBRANCH  17  26
BRANCH  19  28
ATOM     28  C   UNL     1      -4.634  54.200  51.316  0.00  0.00    +0.000 C 
BRANCH  28  29
ATOM     29  C   UNL     1      -4.604  53.782  52.794  0.00  0.00    +0.000 C 
BRANCH  29  30
ATOM     30  C   UNL     1      -4.991  54.902  53.779  0.00  0.00    +0.000 C 
ATOM     31  C   UNL     1      -5.963  54.428  54.860  0.00  0.00    +0.000 C 
ATOM     32  C   UNL     1      -3.726  55.458  54.442  0.00  0.00    +0.000 C 
ENDBRANCH  29  30
ENDBRANCH  28  29
ENDBRANCH  19  28
ENDBRANCH   6  15
BRANCH  11  33
ATOM     33  O   UNL     1     -14.650  57.315  51.022  0.00  0.00    +0.000 OA
BRANCH  33  34
ATOM     34  C   UNL     1     -14.763  58.387  50.082  0.00  0.00    +0.000 C 
BRANCH  34  35
ATOM     35  C   UNL     1     -14.065  59.616  50.662  0.00  0.00    +0.000 C 
BRANCH  35  36
ATOM     36  N   UNL     1     -13.305  60.332  49.639  0.00  0.00    +0.000 N 
ATOM     37  H   UNL     1     -13.562  61.319  49.654  0.00  0.00    +0.000 HD
ATOM     38  H   UNL     1     -13.515  59.940  48.722  0.00  0.00    +0.000 HD
ATOM     39  H   UNL     1     -12.307  60.237  49.830  0.00  0.00    +0.000 HD
ENDBRANCH  35  36
ENDBRANCH  34  35
ENDBRANCH  33  34
ENDBRANCH  11  33
TORSDOF 9
ENDMDL
MODEL 6
REMARK VINA RESULT:      -6.9      2.010      2.958
REMARK  Name = 352770
REMARK  11 active torsions:
REMARK  status: ('A' for Active; 'I' for Inactive)
REMARK    1  A    between atoms: C_6  and  C_10
REMARK    2  A    between atoms: C_12  and  O_16
REMARK    3  A    between atoms: C_14  and  O_19
REMARK    4  A    between atoms: O_16  and  C_21
REMARK    5  A    between atoms: N_18  and  C_23
REMARK    6  A    between atoms: C_21  and  C_25
REMARK    7  A    between atoms: C_23  and  C_27
REMARK    8  A    between atoms: C_25  and  N_29
REMARK    9  A    between atoms: C_27  and  C_31
REMARK   10  A    between atoms: C_31  and  C_32
REMARK   11  A    between atoms: C_31  and  C_33
REMARK                            x       y       z     vdW  Elec       q    Type
REMARK                         _______ _______ _______ _____ _____    ______ ____
ROOT
ATOM      1  S   UNL     1     -11.405  54.840  48.878  0.00  0.00    +0.000 S 
ATOM      2  O   UNL     1     -12.266  53.739  48.484  0.00  0.00    +0.000 OA
ATOM      3  O   UNL     1     -10.992  55.835  47.906  0.00  0.00    +0.000 OA
ATOM      4  N   UNL     1     -10.076  54.212  49.545  0.00  0.00    +0.000 N 
ATOM      5  C   UNL     1     -12.276  55.711  50.123  0.00  0.00    +0.000 A 
ATOM      6  C   UNL     1      -9.857  54.298  50.825  0.00  0.00    +0.000 C 
ATOM      7  C   UNL     1     -11.810  55.637  51.424  0.00  0.00    +0.000 A 
ATOM      8  C   UNL     1     -13.395  56.464  49.772  0.00  0.00    +0.000 A 
ATOM      9  N   UNL     1     -10.702  54.864  51.752  0.00  0.00    +0.000 N 
ATOM     10  C   UNL     1     -12.528  56.303  52.420  0.00  0.00    +0.000 A 
ATOM     11  C   UNL     1     -14.096  57.132  50.768  0.00  0.00    +0.000 A 
ATOM     12  C   UNL     1     -13.655  57.059  52.090  0.00  0.00    +0.000 A 
ATOM     13  H   UNL     1      -9.417  53.756  48.974  0.00  0.00    +0.000 HD
ATOM     14  H   UNL     1     -10.510  54.713  52.706  0.00  0.00    +0.000 HD
ENDROOT
BRANCH   6  15
ATOM     15  C   UNL     1      -8.536  53.748  51.307  0.00  0.00    +0.000 A 
ATOM     16  C   UNL     1      -8.193  52.317  51.033  0.00  0.00    +0.000 A 
ATOM     17  C   UNL     1      -7.666  54.535  51.962  0.00  0.00    +0.000 A 
ATOM     18  O   UNL     1      -8.962  51.647  50.338  0.00  0.00    +0.000 OA
ATOM     19  N   UNL     1      -7.026  51.812  51.567  0.00  0.00    +0.000 N 
ATOM     20  C   UNL     1      -6.424  53.974  52.490  0.00  0.00    +0.000 A 
ATOM     21  C   UNL     1      -6.134  52.617  52.318  0.00  0.00    +0.000 A 
ATOM     22  C   UNL     1      -5.520  54.753  53.220  0.00  0.00    +0.000 A 
ATOM     23  N   UNL     1      -5.025  52.039  52.839  0.00  0.00    +0.000 NA
ATOM     24  C   UNL     1      -4.383  54.170  53.763  0.00  0.00    +0.000 A 
ATOM     25  C   UNL     1      -4.184  52.820  53.549  0.00  0.00    +0.000 A 
BRANCH  17  26
ATOM     26  O   UNL     1      -7.856  55.882  52.221  0.00  0.00    +0.000 OA
ATOM     27  H   UNL     1      -7.117  56.448  52.323  0.00  0.00    +0.000 HD
ENDBRANCH  17  26
BRANCH  19  28
ATOM     28  C   UNL     1      -6.712  50.390  51.396  0.00  0.00    +0.000 C 
BRANCH  28  29
ATOM     29  C   UNL     1      -6.151  50.099  49.997  0.00  0.00    +0.000 C 
BRANCH  29  30
ATOM     30  C   UNL     1      -4.654  49.736  49.974  0.00  0.00    +0.000 C 
ATOM     31  C   UNL     1      -3.757  50.943  49.698  0.00  0.00    +0.000 C 
ATOM     32  C   UNL     1      -4.262  49.107  51.316  0.00  0.00    +0.000 C 
ENDBRANCH  29  30
ENDBRANCH  28  29
ENDBRANCH  19  28
ENDBRANCH   6  15
BRANCH  11  33
ATOM     33  O   UNL     1     -15.202  57.906  50.554  0.00  0.00    +0.000 OA
BRANCH  33  34
ATOM     34  C   UNL     1     -15.034  59.289  50.878  0.00  0.00    +0.000 C 
BRANCH  34  35
ATOM     35  C   UNL     1     -14.579  60.029  49.622  0.00  0.00    +0.000 C 
BRANCH  35  36
ATOM     36  N   UNL     1     -13.167  60.398  49.700  0.00  0.00    +0.000 N 
ATOM     37  H   UNL     1     -12.614  59.747  49.144  0.00  0.00    +0.000 HD
ATOM     38  H   UNL     1     -12.859  60.362  50.672  0.00  0.00    +0.000 HD
ATOM     39  H   UNL     1     -13.044  61.344  49.340  0.00  0.00    +0.000 HD
ENDBRANCH  35  36
ENDBRANCH  34  35
ENDBRANCH  33  34
ENDBRANCH  11  33
TORSDOF 9
ENDMDL
MODEL 7
REMARK VINA RESULT:      -6.9      3.676      5.716
REMARK  Name = 352770
REMARK  11 active torsions:
REMARK  status: ('A' for Active; 'I' for Inactive)
REMARK    1  A    between atoms: C_6  and  C_10
REMARK    2  A    between atoms: C_12  and  O_16
REMARK    3  A    between atoms: C_14  and  O_19
REMARK    4  A    between atoms: O_16  and  C_21
REMARK    5  A    between atoms: N_18  and  C_23
REMARK    6  A    between atoms: C_21  and  C_25
REMARK    7  A    between atoms: C_23  and  C_27
REMARK    8  A    between atoms: C_25  and  N_29
REMARK    9  A    between atoms: C_27  and  C_31
REMARK   10  A    between atoms: C_31  and  C_32
REMARK   11  A    between atoms: C_31  and  C_33
REMARK                            x       y       z     vdW  Elec       q    Type
REMARK                         _______ _______ _______ _____ _____    ______ ____
ROOT
ATOM      1  S   UNL     1     -13.478  59.043  49.359  0.00  0.00    +0.000 S 
ATOM      2  O   UNL     1     -14.620  59.137  48.467  0.00  0.00    +0.000 OA
ATOM      3  O   UNL     1     -12.626  60.195  49.587  0.00  0.00    +0.000 OA
ATOM      4  N   UNL     1     -12.547  57.829  48.843  0.00  0.00    +0.000 N 
ATOM      5  C   UNL     1     -14.124  58.601  50.925  0.00  0.00    +0.000 A 
ATOM      6  C   UNL     1     -12.466  56.712  49.504  0.00  0.00    +0.000 C 
ATOM      7  C   UNL     1     -13.872  57.326  51.404  0.00  0.00    +0.000 A 
ATOM      8  C   UNL     1     -14.853  59.540  51.652  0.00  0.00    +0.000 A 
ATOM      9  N   UNL     1     -13.158  56.401  50.651  0.00  0.00    +0.000 N 
ATOM     10  C   UNL     1     -14.421  56.965  52.636  0.00  0.00    +0.000 A 
ATOM     11  C   UNL     1     -15.384  59.174  52.883  0.00  0.00    +0.000 A 
ATOM     12  C   UNL     1     -15.159  57.889  53.378  0.00  0.00    +0.000 A 
ATOM     13  H   UNL     1     -12.030  57.936  48.012  0.00  0.00    +0.000 HD
ATOM     14  H   UNL     1     -13.147  55.465  50.959  0.00  0.00    +0.000 HD
ENDROOT
BRANCH   6  15
ATOM     15  C   UNL     1     -11.493  55.693  48.960  0.00  0.00    +0.000 A 
ATOM     16  C   UNL     1     -10.519  55.039  49.888  0.00  0.00    +0.000 A 
ATOM     17  C   UNL     1     -11.509  55.361  47.657  0.00  0.00    +0.000 A 
ATOM     18  O   UNL     1     -10.597  55.283  51.095  0.00  0.00    +0.000 OA
ATOM     19  N   UNL     1      -9.577  54.186  49.352  0.00  0.00    +0.000 N 
ATOM     20  C   UNL     1     -10.514  54.430  47.126  0.00  0.00    +0.000 A 
ATOM     21  C   UNL     1      -9.541  53.882  47.968  0.00  0.00    +0.000 A 
ATOM     22  C   UNL     1     -10.470  54.102  45.767  0.00  0.00    +0.000 A 
ATOM     23  N   UNL     1      -8.564  53.062  47.512  0.00  0.00    +0.000 NA
ATOM     24  C   UNL     1      -9.469  53.267  45.288  0.00  0.00    +0.000 A 
ATOM     25  C   UNL     1      -8.547  52.780  46.192  0.00  0.00    +0.000 A 
BRANCH  17  26
ATOM     26  O   UNL     1     -12.400  55.861  46.723  0.00  0.00    +0.000 OA
ATOM     27  H   UNL     1     -12.552  55.394  45.925  0.00  0.00    +0.000 HD
ENDBRANCH  17  26
BRANCH  19  28
ATOM     28  C   UNL     1      -8.550  53.606  50.223  0.00  0.00    +0.000 C 
BRANCH  28  29
ATOM     29  C   UNL     1      -9.141  52.553  51.171  0.00  0.00    +0.000 C 
BRANCH  29  30
ATOM     30  C   UNL     1      -9.650  51.279  50.468  0.00  0.00    +0.000 C 
ATOM     31  C   UNL     1      -9.147  49.997  51.131  0.00  0.00    +0.000 C 
ATOM     32  C   UNL     1     -11.183  51.280  50.459  0.00  0.00    +0.000 C 
ENDBRANCH  29  30
ENDBRANCH  28  29
ENDBRANCH  19  28
ENDBRANCH   6  15
BRANCH  11  33
ATOM     33  O   UNL     1     -16.111  60.003  53.692  0.00  0.00    +0.000 OA
BRANCH  33  34
ATOM     34  C   UNL     1     -16.241  59.552  55.043  0.00  0.00    +0.000 C 
BRANCH  34  35
ATOM     35  C   UNL     1     -16.751  60.713  55.894  0.00  0.00    +0.000 C 
BRANCH  35  36
ATOM     36  N   UNL     1     -17.747  61.505  55.176  0.00  0.00    +0.000 N 
ATOM     37  H   UNL     1     -17.281  62.249  54.657  0.00  0.00    +0.000 HD
ATOM     38  H   UNL     1     -18.402  61.914  55.842  0.00  0.00    +0.000 HD
ATOM     39  H   UNL     1     -18.255  60.904  54.526  0.00  0.00    +0.000 HD
ENDBRANCH  35  36
ENDBRANCH  34  35
ENDBRANCH  33  34
ENDBRANCH  11  33
TORSDOF 9
ENDMDL
MODEL 8
REMARK VINA RESULT:      -6.8      2.995      9.412
REMARK  Name = 352770
REMARK  11 active torsions:
REMARK  status: ('A' for Active; 'I' for Inactive)
REMARK    1  A    between atoms: C_6  and  C_10
REMARK    2  A    between atoms: C_12  and  O_16
REMARK    3  A    between atoms: C_14  and  O_19
REMARK    4  A    between atoms: O_16  and  C_21
REMARK    5  A    between atoms: N_18  and  C_23
REMARK    6  A    between atoms: C_21  and  C_25
REMARK    7  A    between atoms: C_23  and  C_27
REMARK    8  A    between atoms: C_25  and  N_29
REMARK    9  A    between atoms: C_27  and  C_31
REMARK   10  A    between atoms: C_31  and  C_32
REMARK   11  A    between atoms: C_31  and  C_33
REMARK                            x       y       z     vdW  Elec       q    Type
REMARK                         _______ _______ _______ _____ _____    ______ ____
ROOT
ATOM      1  S   UNL     1      -6.701  54.861  51.397  0.00  0.00    +0.000 S 
ATOM      2  O   UNL     1      -6.405  55.350  52.732  0.00  0.00    +0.000 OA
ATOM      3  O   UNL     1      -5.792  55.126  50.298  0.00  0.00    +0.000 OA
ATOM      4  N   UNL     1      -8.161  55.412  50.982  0.00  0.00    +0.000 N 
ATOM      5  C   UNL     1      -6.800  53.118  51.533  0.00  0.00    +0.000 A 
ATOM      6  C   UNL     1      -9.188  54.617  50.911  0.00  0.00    +0.000 C 
ATOM      7  C   UNL     1      -8.041  52.518  51.403  0.00  0.00    +0.000 A 
ATOM      8  C   UNL     1      -5.635  52.384  51.748  0.00  0.00    +0.000 A 
ATOM      9  N   UNL     1      -9.191  53.274  51.208  0.00  0.00    +0.000 N 
ATOM     10  C   UNL     1      -8.121  51.132  51.550  0.00  0.00    +0.000 A 
ATOM     11  C   UNL     1      -5.724  51.003  51.880  0.00  0.00    +0.000 A 
ATOM     12  C   UNL     1      -6.967  50.378  51.771  0.00  0.00    +0.000 A 
ATOM     13  H   UNL     1      -8.276  56.368  50.777  0.00  0.00    +0.000 HD
ATOM     14  H   UNL     1     -10.061  52.819  51.287  0.00  0.00    +0.000 HD
ENDROOT
BRANCH   6  15
ATOM     15  C   UNL     1     -10.474  55.243  50.427  0.00  0.00    +0.000 A 
ATOM     16  C   UNL     1     -11.582  55.493  51.401  0.00  0.00    +0.000 A 
ATOM     17  C   UNL     1     -10.622  55.589  49.136  0.00  0.00    +0.000 A 
ATOM     18  O   UNL     1     -11.380  55.265  52.597  0.00  0.00    +0.000 OA
ATOM     19  N   UNL     1     -12.781  55.975  50.918  0.00  0.00    +0.000 N 
ATOM     20  C   UNL     1     -11.897  56.124  48.662  0.00  0.00    +0.000 A 
ATOM     21  C   UNL     1     -12.969  56.279  49.546  0.00  0.00    +0.000 A 
ATOM     22  C   UNL     1     -12.102  56.447  47.316  0.00  0.00    +0.000 A 
ATOM     23  N   UNL     1     -14.187  56.715  49.143  0.00  0.00    +0.000 NA
ATOM     24  C   UNL     1     -13.347  56.890  46.892  0.00  0.00    +0.000 A 
ATOM     25  C   UNL     1     -14.349  57.003  47.835  0.00  0.00    +0.000 A 
BRANCH  17  26
ATOM     26  O   UNL     1      -9.646  55.454  48.164  0.00  0.00    +0.000 OA
ATOM     27  H   UNL     1      -9.811  55.752  47.291  0.00  0.00    +0.000 HD
ENDBRANCH  17  26
BRANCH  19  28
ATOM     28  C   UNL     1     -13.914  56.138  51.834  0.00  0.00    +0.000 C 
BRANCH  28  29
ATOM     29  C   UNL     1     -13.843  57.475  52.587  0.00  0.00    +0.000 C 
BRANCH  29  30
ATOM     30  C   UNL     1     -14.917  58.498  52.169  0.00  0.00    +0.000 C 
ATOM     31  C   UNL     1     -15.462  59.300  53.351  0.00  0.00    +0.000 C 
ATOM     32  C   UNL     1     -14.329  59.458  51.130  0.00  0.00    +0.000 C 
ENDBRANCH  29  30
ENDBRANCH  28  29
ENDBRANCH  19  28
ENDBRANCH   6  15
BRANCH  11  33
ATOM     33  O   UNL     1      -4.658  50.173  52.087  0.00  0.00    +0.000 OA
BRANCH  33  34
ATOM     34  C   UNL     1      -4.486  49.165  51.087  0.00  0.00    +0.000 C 
BRANCH  34  35
ATOM     35  C   UNL     1      -3.526  49.696  50.024  0.00  0.00    +0.000 C 
BRANCH  35  36
ATOM     36  N   UNL     1      -4.210  49.928  48.753  0.00  0.00    +0.000 N 
ATOM     37  H   UNL     1      -3.921  49.221  48.078  0.00  0.00    +0.000 HD
ATOM     38  H   UNL     1      -3.968  50.853  48.401  0.00  0.00    +0.000 HD
ATOM     39  H   UNL     1      -5.218  49.871  48.896  0.00  0.00    +0.000 HD
ENDBRANCH  35  36
ENDBRANCH  34  35
ENDBRANCH  33  34
ENDBRANCH  11  33
TORSDOF 9
ENDMDL
MODEL 9
REMARK VINA RESULT:      -6.6      3.638      8.891
REMARK  Name = 352770
REMARK  11 active torsions:
REMARK  status: ('A' for Active; 'I' for Inactive)
REMARK    1  A    between atoms: C_6  and  C_10
REMARK    2  A    between atoms: C_12  and  O_16
REMARK    3  A    between atoms: C_14  and  O_19
REMARK    4  A    between atoms: O_16  and  C_21
REMARK    5  A    between atoms: N_18  and  C_23
REMARK    6  A    between atoms: C_21  and  C_25
REMARK    7  A    between atoms: C_23  and  C_27
REMARK    8  A    between atoms: C_25  and  N_29
REMARK    9  A    between atoms: C_27  and  C_31
REMARK   10  A    between atoms: C_31  and  C_32
REMARK   11  A    between atoms: C_31  and  C_33
REMARK                            x       y       z     vdW  Elec       q    Type
REMARK                         _______ _______ _______ _____ _____    ______ ____
ROOT
ATOM      1  S   UNL     1      -9.361  52.485  52.803  0.00  0.00    +0.000 S 
ATOM      2  O   UNL     1      -9.647  51.061  52.773  0.00  0.00    +0.000 OA
ATOM      3  O   UNL     1      -9.458  53.229  54.044  0.00  0.00    +0.000 OA
ATOM      4  N   UNL     1     -10.314  53.202  51.715  0.00  0.00    +0.000 N 
ATOM      5  C   UNL     1      -7.703  52.655  52.265  0.00  0.00    +0.000 A 
ATOM      6  C   UNL     1      -9.831  53.681  50.605  0.00  0.00    +0.000 C 
ATOM      7  C   UNL     1      -7.470  53.219  51.023  0.00  0.00    +0.000 A 
ATOM      8  C   UNL     1      -6.669  52.238  53.102  0.00  0.00    +0.000 A 
ATOM      9  N   UNL     1      -8.519  53.609  50.199  0.00  0.00    +0.000 N 
ATOM     10  C   UNL     1      -6.148  53.319  50.582  0.00  0.00    +0.000 A 
ATOM     11  C   UNL     1      -5.356  52.353  52.659  0.00  0.00    +0.000 A 
ATOM     12  C   UNL     1      -5.098  52.903  51.403  0.00  0.00    +0.000 A 
ATOM     13  H   UNL     1     -11.279  53.279  51.893  0.00  0.00    +0.000 HD
ATOM     14  H   UNL     1      -8.309  53.850  49.267  0.00  0.00    +0.000 HD
ENDROOT
BRANCH   6  15
ATOM     15  C   UNL     1     -10.815  54.403  49.716  0.00  0.00    +0.000 A 
ATOM     16  C   UNL     1     -11.003  53.945  48.305  0.00  0.00    +0.000 A 
ATOM     17  C   UNL     1     -11.529  55.440  50.188  0.00  0.00    +0.000 A 
ATOM     18  O   UNL     1     -10.415  52.927  47.931  0.00  0.00    +0.000 OA
ATOM     19  N   UNL     1     -11.833  54.679  47.484  0.00  0.00    +0.000 N 
ATOM     20  C   UNL     1     -12.423  56.180  49.298  0.00  0.00    +0.000 A 
ATOM     21  C   UNL     1     -12.539  55.815  47.954  0.00  0.00    +0.000 A 
ATOM     22  C   UNL     1     -13.142  57.294  49.744  0.00  0.00    +0.000 A 
ATOM     23  N   UNL     1     -13.308  56.505  47.077  0.00  0.00    +0.000 NA
ATOM     24  C   UNL     1     -13.929  58.011  48.853  0.00  0.00    +0.000 A 
ATOM     25  C   UNL     1     -13.976  57.582  47.541  0.00  0.00    +0.000 A 
BRANCH  17  26
ATOM     26  O   UNL     1     -11.475  55.912  51.488  0.00  0.00    +0.000 OA
ATOM     27  H   UNL     1     -12.260  55.976  51.996  0.00  0.00    +0.000 HD
ENDBRANCH  17  26
BRANCH  19  28
ATOM     28  C   UNL     1     -11.961  54.310  46.071  0.00  0.00    +0.000 C 
BRANCH  28  29
ATOM     29  C   UNL     1     -10.597  54.286  45.367  0.00  0.00    +0.000 C 
BRANCH  29  30
ATOM     30  C   UNL     1     -10.399  53.099  44.403  0.00  0.00    +0.000 C 
ATOM     31  C   UNL     1      -9.032  52.434  44.558  0.00  0.00    +0.000 C 
ATOM     32  C   UNL     1     -11.500  52.060  44.642  0.00  0.00    +0.000 C 
ENDBRANCH  29  30
ENDBRANCH  28  29
ENDBRANCH  19  28
ENDBRANCH   6  15
BRANCH  11  33
ATOM     33  O   UNL     1      -4.258  51.987  53.385  0.00  0.00    +0.000 OA
BRANCH  33  34
ATOM     34  C   UNL     1      -3.301  53.032  53.584  0.00  0.00    +0.000 C 
BRANCH  34  35
ATOM     35  C   UNL     1      -4.030  54.257  54.133  0.00  0.00    +0.000 C 
BRANCH  35  36
ATOM     36  N   UNL     1      -3.456  55.498  53.616  0.00  0.00    +0.000 N 
ATOM     37  H   UNL     1      -3.173  56.092  54.395  0.00  0.00    +0.000 HD
ATOM     38  H   UNL     1      -4.151  55.985  53.051  0.00  0.00    +0.000 HD
ATOM     39  H   UNL     1      -2.642  55.280  53.041  0.00  0.00    +0.000 HD
ENDBRANCH  35  36
ENDBRANCH  34  35
ENDBRANCH  33  34
ENDBRANCH  11  33
TORSDOF 9
ENDMDL
