MODEL 1
REMARK VINA RESULT:      -7.3      0.000      0.000
REMARK  Name = 353262
REMARK  12 active torsions:
REMARK  status: ('A' for Active; 'I' for Inactive)
REMARK    1  A    between atoms: C_6  and  C_10
REMARK    2  A    between atoms: C_12  and  N_16
REMARK    3  A    between atoms: C_14  and  O_19
REMARK    4  A    between atoms: N_16  and  S_21
REMARK    5  A    between atoms: N_18  and  C_23
REMARK    6  A    between atoms: S_21  and  C_27
REMARK    7  A    between atoms: C_23  and  C_29
REMARK    8  A    between atoms: C_27  and  C_31
REMARK    9  A    between atoms: C_27  and  C_32
REMARK   10  A    between atoms: C_29  and  C_34
REMARK   11  A    between atoms: C_34  and  C_35
REMARK   12  A    between atoms: C_34  and  C_36
REMARK                            x       y       z     vdW  Elec       q    Type
REMARK                         _______ _______ _______ _____ _____    ______ ____
ROOT
ATOM      1  S   UNL     1     -11.374  54.178  48.371  0.00  0.00    +0.000 S 
ATOM      2  O   UNL     1     -12.274  53.066  48.152  0.00  0.00    +0.000 OA
ATOM      3  O   UNL     1     -11.238  55.225  47.377  0.00  0.00    +0.000 OA
ATOM      4  N   UNL     1      -9.903  53.569  48.653  0.00  0.00    +0.000 N 
ATOM      5  C   UNL     1     -11.916  54.980  49.835  0.00  0.00    +0.000 A 
ATOM      6  C   UNL     1      -9.372  53.599  49.838  0.00  0.00    +0.000 C 
ATOM      7  C   UNL     1     -11.125  54.855  50.974  0.00  0.00    +0.000 A 
ATOM      8  C   UNL     1     -13.089  55.730  49.827  0.00  0.00    +0.000 A 
ATOM      9  N   UNL     1      -9.964  54.097  50.974  0.00  0.00    +0.000 N 
ATOM     10  C   UNL     1     -11.569  55.453  52.154  0.00  0.00    +0.000 A 
ATOM     11  C   UNL     1     -13.499  56.331  51.011  0.00  0.00    +0.000 A 
ATOM     12  C   UNL     1     -12.743  56.204  52.173  0.00  0.00    +0.000 A 
ATOM     13  H   UNL     1      -9.400  53.166  47.910  0.00  0.00    +0.000 HD
ATOM     14  H   UNL     1      -9.539  53.903  51.841  0.00  0.00    +0.000 HD
ENDROOT
BRANCH   6  15
ATOM     15  C   UNL     1      -7.961  53.066  49.945  0.00  0.00    +0.000 A 
ATOM     16  C   UNL     1      -6.930  53.844  50.702  0.00  0.00    +0.000 A 
ATOM     17  C   UNL     1      -7.638  51.891  49.378  0.00  0.00    +0.000 A 
ATOM     18  O   UNL     1      -7.286  54.858  51.312  0.00  0.00    +0.000 OA
ATOM     19  N   UNL     1      -5.628  53.390  50.691  0.00  0.00    +0.000 N 
ATOM     20  C   UNL     1      -6.253  51.425  49.405  0.00  0.00    +0.000 A 
ATOM     21  C   UNL     1      -5.262  52.187  50.030  0.00  0.00    +0.000 A 
ATOM     22  C   UNL     1      -5.869  50.242  48.763  0.00  0.00    +0.000 A 
ATOM     23  N   UNL     1      -3.958  51.824  50.031  0.00  0.00    +0.000 NA
ATOM     24  C   UNL     1      -4.534  49.866  48.746  0.00  0.00    +0.000 A 
ATOM     25  C   UNL     1      -3.623  50.683  49.390  0.00  0.00    +0.000 A 
BRANCH  17  26
ATOM     26  O   UNL     1      -8.524  51.062  48.712  0.00  0.00    +0.000 OA
ATOM     27  H   UNL     1      -8.792  51.268  47.838  0.00  0.00    +0.000 HD
ENDBRANCH  17  26
BRANCH  19  28
ATOM     28  C   UNL     1      -4.576  54.175  51.349  0.00  0.00    +0.000 C 
BRANCH  28  29
ATOM     29  C   UNL     1      -4.435  53.816  52.835  0.00  0.00    +0.000 C 
BRANCH  29  30
ATOM     30  C   UNL     1      -4.918  54.907  53.812  0.00  0.00    +0.000 C 
ATOM     31  C   UNL     1      -5.886  54.373  54.869  0.00  0.00    +0.000 C 
ATOM     32  C   UNL     1      -3.706  55.539  54.508  0.00  0.00    +0.000 C 
ENDBRANCH  29  30
ENDBRANCH  28  29
ENDBRANCH  19  28
ENDBRANCH   6  15
BRANCH  11  33
ATOM     33  N   UNL     1     -14.688  57.086  51.068  0.00  0.00    +0.000 N 
ATOM     34  H   UNL     1     -15.562  56.632  51.082  0.00  0.00    +0.000 HD
BRANCH  33  35
ATOM     35  S   UNL     1     -14.606  58.759  51.110  0.00  0.00    +0.000 S 
ATOM     36  O   UNL     1     -15.926  59.227  50.733  0.00  0.00    +0.000 OA
ATOM     37  O   UNL     1     -13.987  59.178  52.348  0.00  0.00    +0.000 OA
BRANCH  35  38
ATOM     38  C   UNL     1     -13.483  59.091  49.736  0.00  0.00    +0.000 C 
ATOM     39  C   UNL     1     -14.108  58.727  48.392  0.00  0.00    +0.000 C 
ATOM     40  C   UNL     1     -13.076  60.560  49.758  0.00  0.00    +0.000 C 
ENDBRANCH  35  38
ENDBRANCH  33  35
ENDBRANCH  11  33
TORSDOF 8
ENDMDL
MODEL 2
REMARK VINA RESULT:      -7.1      1.683      2.022
REMARK  Name = 353262
REMARK  12 active torsions:
REMARK  status: ('A' for Active; 'I' for Inactive)
REMARK    1  A    between atoms: C_6  and  C_10
REMARK    2  A    between atoms: C_12  and  N_16
REMARK    3  A    between atoms: C_14  and  O_19
REMARK    4  A    between atoms: N_16  and  S_21
REMARK    5  A    between atoms: N_18  and  C_23
REMARK    6  A    between atoms: S_21  and  C_27
REMARK    7  A    between atoms: C_23  and  C_29
REMARK    8  A    between atoms: C_27  and  C_31
REMARK    9  A    between atoms: C_27  and  C_32
REMARK   10  A    between atoms: C_29  and  C_34
REMARK   11  A    between atoms: C_34  and  C_35
REMARK   12  A    between atoms: C_34  and  C_36
REMARK                            x       y       z     vdW  Elec       q    Type
REMARK                         _______ _______ _______ _____ _____    ______ ____
ROOT
ATOM      1  S   UNL     1     -11.557  52.392  50.055  0.00  0.00    +0.000 S 
ATOM      2  O   UNL     1     -11.975  52.111  51.413  0.00  0.00    +0.000 OA
ATOM      3  O   UNL     1     -12.270  51.821  48.930  0.00  0.00    +0.000 OA
ATOM      4  N   UNL     1     -10.003  51.970  49.924  0.00  0.00    +0.000 N 
ATOM      5  C   UNL     1     -11.663  54.133  49.851  0.00  0.00    +0.000 A 
ATOM      6  C   UNL     1      -9.062  52.862  49.830  0.00  0.00    +0.000 C 
ATOM      7  C   UNL     1     -10.473  54.849  49.760  0.00  0.00    +0.000 A 
ATOM      8  C   UNL     1     -12.908  54.751  49.762  0.00  0.00    +0.000 A 
ATOM      9  N   UNL     1      -9.239  54.225  49.860  0.00  0.00    +0.000 N 
ATOM     10  C   UNL     1     -10.546  56.237  49.639  0.00  0.00    +0.000 A 
ATOM     11  C   UNL     1     -12.953  56.132  49.623  0.00  0.00    +0.000 A 
ATOM     12  C   UNL     1     -11.779  56.880  49.554  0.00  0.00    +0.000 A 
ATOM     13  H   UNL     1      -9.764  51.016  49.915  0.00  0.00    +0.000 HD
ATOM     14  H   UNL     1      -8.441  54.792  49.961  0.00  0.00    +0.000 HD
ENDROOT
BRANCH   6  15
ATOM     15  C   UNL     1      -7.661  52.328  49.633  0.00  0.00    +0.000 A 
ATOM     16  C   UNL     1      -6.621  52.574  50.682  0.00  0.00    +0.000 A 
ATOM     17  C   UNL     1      -7.356  51.622  48.532  0.00  0.00    +0.000 A 
ATOM     18  O   UNL     1      -6.963  53.121  51.735  0.00  0.00    +0.000 OA
ATOM     19  N   UNL     1      -5.327  52.171  50.427  0.00  0.00    +0.000 N 
ATOM     20  C   UNL     1      -5.979  51.188  48.303  0.00  0.00    +0.000 A 
ATOM     21  C   UNL     1      -4.978  51.490  49.231  0.00  0.00    +0.000 A 
ATOM     22  C   UNL     1      -5.612  50.513  47.133  0.00  0.00    +0.000 A 
ATOM     23  N   UNL     1      -3.681  51.159  49.034  0.00  0.00    +0.000 NA
ATOM     24  C   UNL     1      -4.283  50.180  46.915  0.00  0.00    +0.000 A 
ATOM     25  C   UNL     1      -3.362  50.520  47.887  0.00  0.00    +0.000 A 
BRANCH  17  26
ATOM     26  O   UNL     1      -8.252  51.282  47.533  0.00  0.00    +0.000 OA
ATOM     27  H   UNL     1      -8.212  51.710  46.701  0.00  0.00    +0.000 HD
ENDBRANCH  17  26
BRANCH  19  28
ATOM     28  C   UNL     1      -4.265  52.475  51.395  0.00  0.00    +0.000 C 
BRANCH  28  29
ATOM     29  C   UNL     1      -4.130  53.984  51.645  0.00  0.00    +0.000 C 
BRANCH  29  30
ATOM     30  C   UNL     1      -3.668  54.364  53.067  0.00  0.00    +0.000 C 
ATOM     31  C   UNL     1      -4.728  55.142  53.849  0.00  0.00    +0.000 C 
ATOM     32  C   UNL     1      -3.300  53.091  53.839  0.00  0.00    +0.000 C 
ENDBRANCH  29  30
ENDBRANCH  28  29
ENDBRANCH  19  28
ENDBRANCH   6  15
BRANCH  11  33
ATOM     33  N   UNL     1     -14.183  56.815  49.547  0.00  0.00    +0.000 N 
ATOM     34  H   UNL     1     -14.486  57.196  48.691  0.00  0.00    +0.000 HD
BRANCH  33  35
ATOM     35  S   UNL     1     -15.128  56.975  50.922  0.00  0.00    +0.000 S 
ATOM     36  O   UNL     1     -16.450  56.511  50.547  0.00  0.00    +0.000 OA
ATOM     37  O   UNL     1     -14.428  56.408  52.054  0.00  0.00    +0.000 OA
BRANCH  35  38
ATOM     38  C   UNL     1     -15.194  58.770  51.097  0.00  0.00    +0.000 C 
ATOM     39  C   UNL     1     -14.559  59.236  52.405  0.00  0.00    +0.000 C 
ATOM     40  C   UNL     1     -14.505  59.422  49.904  0.00  0.00    +0.000 C 
ENDBRANCH  35  38
ENDBRANCH  33  35
ENDBRANCH  11  33
TORSDOF 8
ENDMDL
MODEL 3
REMARK VINA RESULT:      -6.9      2.920      5.123
REMARK  Name = 353262
REMARK  12 active torsions:
REMARK  status: ('A' for Active; 'I' for Inactive)
REMARK    1  A    between atoms: C_6  and  C_10
REMARK    2  A    between atoms: C_12  and  N_16
REMARK    3  A    between atoms: C_14  and  O_19
REMARK    4  A    between atoms: N_16  and  S_21
REMARK    5  A    between atoms: N_18  and  C_23
REMARK    6  A    between atoms: S_21  and  C_27
REMARK    7  A    between atoms: C_23  and  C_29
REMARK    8  A    between atoms: C_27  and  C_31
REMARK    9  A    between atoms: C_27  and  C_32
REMARK   10  A    between atoms: C_29  and  C_34
REMARK   11  A    between atoms: C_34  and  C_35
REMARK   12  A    between atoms: C_34  and  C_36
REMARK                            x       y       z     vdW  Elec       q    Type
REMARK                         _______ _______ _______ _____ _____    ______ ____
ROOT
ATOM      1  S   UNL     1     -10.586  54.475  51.022  0.00  0.00    +0.000 S 
ATOM      2  O   UNL     1      -9.904  55.504  51.778  0.00  0.00    +0.000 OA
ATOM      3  O   UNL     1     -11.439  53.511  51.690  0.00  0.00    +0.000 OA
ATOM      4  N   UNL     1      -9.467  53.655  50.192  0.00  0.00    +0.000 N 
ATOM      5  C   UNL     1     -11.616  55.303  49.867  0.00  0.00    +0.000 A 
ATOM      6  C   UNL     1      -9.353  53.776  48.904  0.00  0.00    +0.000 C 
ATOM      7  C   UNL     1     -11.256  55.253  48.524  0.00  0.00    +0.000 A 
ATOM      8  C   UNL     1     -12.763  55.962  50.302  0.00  0.00    +0.000 A 
ATOM      9  N   UNL     1     -10.106  54.602  48.102  0.00  0.00    +0.000 N 
ATOM     10  C   UNL     1     -12.045  55.943  47.603  0.00  0.00    +0.000 A 
ATOM     11  C   UNL     1     -13.542  56.626  49.362  0.00  0.00    +0.000 A 
ATOM     12  C   UNL     1     -13.195  56.614  48.014  0.00  0.00    +0.000 A 
ATOM     13  H   UNL     1      -8.859  53.051  50.674  0.00  0.00    +0.000 HD
ATOM     14  H   UNL     1      -9.810  54.742  47.174  0.00  0.00    +0.000 HD
ENDROOT
BRANCH   6  15
ATOM     15  C   UNL     1      -8.318  52.894  48.244  0.00  0.00    +0.000 A 
ATOM     16  C   UNL     1      -8.719  52.001  47.111  0.00  0.00    +0.000 A 
ATOM     17  C   UNL     1      -7.041  52.923  48.661  0.00  0.00    +0.000 A 
ATOM     18  O   UNL     1      -9.871  52.085  46.673  0.00  0.00    +0.000 OA
ATOM     19  N   UNL     1      -7.780  51.129  46.601  0.00  0.00    +0.000 N 
ATOM     20  C   UNL     1      -6.064  52.002  48.083  0.00  0.00    +0.000 A 
ATOM     21  C   UNL     1      -6.446  51.099  47.087  0.00  0.00    +0.000 A 
ATOM     22  C   UNL     1      -4.743  51.956  48.544  0.00  0.00    +0.000 A 
ATOM     23  N   UNL     1      -5.591  50.190  46.564  0.00  0.00    +0.000 NA
ATOM     24  C   UNL     1      -3.861  51.020  48.024  0.00  0.00    +0.000 A 
ATOM     25  C   UNL     1      -4.328  50.166  47.042  0.00  0.00    +0.000 A 
BRANCH  17  26
ATOM     26  O   UNL     1      -6.549  53.754  49.653  0.00  0.00    +0.000 OA
ATOM     27  H   UNL     1      -7.056  54.486  49.945  0.00  0.00    +0.000 HD
ENDBRANCH  17  26
BRANCH  19  28
ATOM     28  C   UNL     1      -8.164  50.178  45.550  0.00  0.00    +0.000 C 
BRANCH  28  29
ATOM     29  C   UNL     1      -7.723  50.652  44.157  0.00  0.00    +0.000 C 
BRANCH  29  30
ATOM     30  C   UNL     1      -8.848  51.265  43.297  0.00  0.00    +0.000 C 
ATOM     31  C   UNL     1     -10.238  50.766  43.696  0.00  0.00    +0.000 C 
ATOM     32  C   UNL     1      -8.803  52.793  43.416  0.00  0.00    +0.000 C 
ENDBRANCH  29  30
ENDBRANCH  28  29
ENDBRANCH  19  28
ENDBRANCH   6  15
BRANCH  11  33
ATOM     33  N   UNL     1     -14.704  57.326  49.746  0.00  0.00    +0.000 N 
ATOM     34  H   UNL     1     -15.593  56.968  49.522  0.00  0.00    +0.000 HD
BRANCH  33  35
ATOM     35  S   UNL     1     -14.561  58.769  50.585  0.00  0.00    +0.000 S 
ATOM     36  O   UNL     1     -13.196  59.212  50.376  0.00  0.00    +0.000 OA
ATOM     37  O   UNL     1     -15.684  59.623  50.265  0.00  0.00    +0.000 OA
BRANCH  35  38
ATOM     38  C   UNL     1     -14.708  58.201  52.292  0.00  0.00    +0.000 C 
ATOM     39  C   UNL     1     -15.275  59.287  53.204  0.00  0.00    +0.000 C 
ATOM     40  C   UNL     1     -15.581  56.952  52.338  0.00  0.00    +0.000 C 
ENDBRANCH  35  38
ENDBRANCH  33  35
ENDBRANCH  11  33
TORSDOF 8
ENDMDL
MODEL 4
REMARK VINA RESULT:      -6.9      1.818      2.086
REMARK  Name = 353262
REMARK  12 active torsions:
REMARK  status: ('A' for Active; 'I' for Inactive)
REMARK    1  A    between atoms: C_6  and  C_10
REMARK    2  A    between atoms: C_12  and  N_16
REMARK    3  A    between atoms: C_14  and  O_19
REMARK    4  A    between atoms: N_16  and  S_21
REMARK    5  A    between atoms: N_18  and  C_23
REMARK    6  A    between atoms: S_21  and  C_27
REMARK    7  A    between atoms: C_23  and  C_29
REMARK    8  A    between atoms: C_27  and  C_31
REMARK    9  A    between atoms: C_27  and  C_32
REMARK   10  A    between atoms: C_29  and  C_34
REMARK   11  A    between atoms: C_34  and  C_35
REMARK   12  A    between atoms: C_34  and  C_36
REMARK                            x       y       z     vdW  Elec       q    Type
REMARK                         _______ _______ _______ _____ _____    ______ ____
ROOT
ATOM      1  S   UNL     1      -9.487  54.249  47.447  0.00  0.00    +0.000 S 
ATOM      2  O   UNL     1     -10.025  53.424  46.387  0.00  0.00    +0.000 OA
ATOM      3  O   UNL     1      -8.920  55.550  47.155  0.00  0.00    +0.000 OA
ATOM      4  N   UNL     1      -8.363  53.381  48.220  0.00  0.00    +0.000 N 
ATOM      5  C   UNL     1     -10.805  54.545  48.568  0.00  0.00    +0.000 A 
ATOM      6  C   UNL     1      -8.569  52.913  49.415  0.00  0.00    +0.000 C 
ATOM      7  C   UNL     1     -10.757  53.915  49.808  0.00  0.00    +0.000 A 
ATOM      8  C   UNL     1     -11.842  55.405  48.214  0.00  0.00    +0.000 A 
ATOM      9  N   UNL     1      -9.725  53.053  50.147  0.00  0.00    +0.000 N 
ATOM     10  C   UNL     1     -11.820  54.111  50.690  0.00  0.00    +0.000 A 
ATOM     11  C   UNL     1     -12.880  55.598  49.118  0.00  0.00    +0.000 A 
ATOM     12  C   UNL     1     -12.873  54.962  50.357  0.00  0.00    +0.000 A 
ATOM     13  H   UNL     1      -7.505  53.202  47.775  0.00  0.00    +0.000 HD
ATOM     14  H   UNL     1      -9.827  52.506  50.959  0.00  0.00    +0.000 HD
ENDROOT
BRANCH   6  15
ATOM     15  C   UNL     1      -7.406  52.186  50.051  0.00  0.00    +0.000 A 
ATOM     16  C   UNL     1      -7.002  52.518  51.453  0.00  0.00    +0.000 A 
ATOM     17  C   UNL     1      -6.750  51.233  49.367  0.00  0.00    +0.000 A 
ATOM     18  O   UNL     1      -7.699  53.310  52.097  0.00  0.00    +0.000 OA
ATOM     19  N   UNL     1      -5.873  51.918  51.969  0.00  0.00    +0.000 N 
ATOM     20  C   UNL     1      -5.570  50.599  49.951  0.00  0.00    +0.000 A 
ATOM     21  C   UNL     1      -5.127  50.965  51.225  0.00  0.00    +0.000 A 
ATOM     22  C   UNL     1      -4.821  49.655  49.238  0.00  0.00    +0.000 A 
ATOM     23  N   UNL     1      -4.008  50.446  51.783  0.00  0.00    +0.000 NA
ATOM     24  C   UNL     1      -3.665  49.126  49.794  0.00  0.00    +0.000 A 
ATOM     25  C   UNL     1      -3.304  49.549  51.060  0.00  0.00    +0.000 A 
BRANCH  17  26
ATOM     26  O   UNL     1      -7.078  50.803  48.092  0.00  0.00    +0.000 OA
ATOM     27  H   UNL     1      -7.095  51.413  47.382  0.00  0.00    +0.000 HD
ENDBRANCH  17  26
BRANCH  19  28
ATOM     28  C   UNL     1      -5.398  52.287  53.309  0.00  0.00    +0.000 C 
BRANCH  28  29
ATOM     29  C   UNL     1      -4.408  53.460  53.266  0.00  0.00    +0.000 C 
BRANCH  29  30
ATOM     30  C   UNL     1      -4.945  54.780  53.856  0.00  0.00    +0.000 C 
ATOM     31  C   UNL     1      -6.026  54.561  54.916  0.00  0.00    +0.000 C 
ATOM     32  C   UNL     1      -3.784  55.571  54.471  0.00  0.00    +0.000 C 
ENDBRANCH  29  30
ENDBRANCH  28  29
ENDBRANCH  19  28
ENDBRANCH   6  15
BRANCH  11  33
ATOM     33  N   UNL     1     -13.965  56.441  48.807  0.00  0.00    +0.000 N 
ATOM     34  H   UNL     1     -14.750  56.082  48.334  0.00  0.00    +0.000 HD
BRANCH  33  35
ATOM     35  S   UNL     1     -13.912  58.057  49.247  0.00  0.00    +0.000 S 
ATOM     36  O   UNL     1     -12.568  58.284  49.745  0.00  0.00    +0.000 OA
ATOM     37  O   UNL     1     -14.463  58.864  48.181  0.00  0.00    +0.000 OA
BRANCH  35  38
ATOM     38  C   UNL     1     -15.040  58.076  50.657  0.00  0.00    +0.000 C 
ATOM     39  C   UNL     1     -15.892  56.811  50.718  0.00  0.00    +0.000 C 
ATOM     40  C   UNL     1     -14.241  58.248  51.944  0.00  0.00    +0.000 C 
ENDBRANCH  35  38
ENDBRANCH  33  35
ENDBRANCH  11  33
TORSDOF 8
ENDMDL
MODEL 5
REMARK VINA RESULT:      -6.8      3.027      4.531
REMARK  Name = 353262
REMARK  12 active torsions:
REMARK  status: ('A' for Active; 'I' for Inactive)
REMARK    1  A    between atoms: C_6  and  C_10
REMARK    2  A    between atoms: C_12  and  N_16
REMARK    3  A    between atoms: C_14  and  O_19
REMARK    4  A    between atoms: N_16  and  S_21
REMARK    5  A    between atoms: N_18  and  C_23
REMARK    6  A    between atoms: S_21  and  C_27
REMARK    7  A    between atoms: C_23  and  C_29
REMARK    8  A    between atoms: C_27  and  C_31
REMARK    9  A    between atoms: C_27  and  C_32
REMARK   10  A    between atoms: C_29  and  C_34
REMARK   11  A    between atoms: C_34  and  C_35
REMARK   12  A    between atoms: C_34  and  C_36
REMARK                            x       y       z     vdW  Elec       q    Type
REMARK                         _______ _______ _______ _____ _____    ______ ____
ROOT
ATOM      1  S   UNL     1     -11.366  54.071  50.246  0.00  0.00    +0.000 S 
ATOM      2  O   UNL     1     -10.479  54.887  51.048  0.00  0.00    +0.000 OA
ATOM      3  O   UNL     1     -12.309  53.167  50.874  0.00  0.00    +0.000 OA
ATOM      4  N   UNL     1     -10.451  53.206  49.232  0.00  0.00    +0.000 N 
ATOM      5  C   UNL     1     -12.334  55.178  49.288  0.00  0.00    +0.000 A 
ATOM      6  C   UNL     1     -10.412  53.469  47.960  0.00  0.00    +0.000 C 
ATOM      7  C   UNL     1     -12.083  55.243  47.920  0.00  0.00    +0.000 A 
ATOM      8  C   UNL     1     -13.331  55.939  49.895  0.00  0.00    +0.000 A 
ATOM      9  N   UNL     1     -11.082  54.490  47.327  0.00  0.00    +0.000 N 
ATOM     10  C   UNL     1     -12.819  56.151  47.157  0.00  0.00    +0.000 A 
ATOM     11  C   UNL     1     -14.062  56.821  49.109  0.00  0.00    +0.000 A 
ATOM     12  C   UNL     1     -13.818  56.927  47.742  0.00  0.00    +0.000 A 
ATOM     13  H   UNL     1      -9.911  52.464  49.587  0.00  0.00    +0.000 HD
ATOM     14  H   UNL     1     -10.835  54.699  46.397  0.00  0.00    +0.000 HD
ENDROOT
BRANCH   6  15
ATOM     15  C   UNL     1      -9.577  52.533  47.115  0.00  0.00    +0.000 A 
ATOM     16  C   UNL     1      -8.171  52.223  47.524  0.00  0.00    +0.000 A 
ATOM     17  C   UNL     1     -10.100  51.969  46.014  0.00  0.00    +0.000 A 
ATOM     18  O   UNL     1      -7.759  52.661  48.603  0.00  0.00    +0.000 OA
ATOM     19  N   UNL     1      -7.398  51.455  46.678  0.00  0.00    +0.000 N 
ATOM     20  C   UNL     1      -9.261  51.139  45.151  0.00  0.00    +0.000 A 
ATOM     21  C   UNL     1      -7.920  50.915  45.473  0.00  0.00    +0.000 A 
ATOM     22  C   UNL     1      -9.754  50.595  43.959  0.00  0.00    +0.000 A 
ATOM     23  N   UNL     1      -7.091  50.202  44.675  0.00  0.00    +0.000 NA
ATOM     24  C   UNL     1      -8.911  49.873  43.128  0.00  0.00    +0.000 A 
ATOM     25  C   UNL     1      -7.598  49.704  43.527  0.00  0.00    +0.000 A 
BRANCH  17  26
ATOM     26  O   UNL     1     -11.405  52.135  45.581  0.00  0.00    +0.000 OA
ATOM     27  H   UNL     1     -12.024  51.439  45.681  0.00  0.00    +0.000 HD
ENDBRANCH  17  26
BRANCH  19  28
ATOM     28  C   UNL     1      -5.988  51.204  47.005  0.00  0.00    +0.000 C 
BRANCH  28  29
ATOM     29  C   UNL     1      -5.827  50.072  48.029  0.00  0.00    +0.000 C 
BRANCH  29  30
ATOM     30  C   UNL     1      -5.034  50.455  49.296  0.00  0.00    +0.000 C 
ATOM     31  C   UNL     1      -4.021  49.386  49.709  0.00  0.00    +0.000 C 
ATOM     32  C   UNL     1      -4.304  51.781  49.056  0.00  0.00    +0.000 C 
ENDBRANCH  29  30
ENDBRANCH  28  29
ENDBRANCH  19  28
ENDBRANCH   6  15
BRANCH  11  33
ATOM     33  N   UNL     1     -15.069  57.630  49.672  0.00  0.00    +0.000 N 
ATOM     34  H   UNL     1     -16.018  57.409  49.529  0.00  0.00    +0.000 HD
BRANCH  33  35
ATOM     35  S   UNL     1     -14.643  58.970  50.582  0.00  0.00    +0.000 S 
ATOM     36  O   UNL     1     -13.243  59.213  50.292  0.00  0.00    +0.000 OA
ATOM     37  O   UNL     1     -15.637  60.006  50.406  0.00  0.00    +0.000 OA
BRANCH  35  38
ATOM     38  C   UNL     1     -14.758  58.308  52.258  0.00  0.00    +0.000 C 
ATOM     39  C   UNL     1     -15.298  59.344  53.241  0.00  0.00    +0.000 C 
ATOM     40  C   UNL     1     -15.639  57.064  52.253  0.00  0.00    +0.000 C 
ENDBRANCH  35  38
ENDBRANCH  33  35
ENDBRANCH  11  33
TORSDOF 8
ENDMDL
MODEL 6
REMARK VINA RESULT:      -6.6      2.761      4.237
REMARK  Name = 353262
REMARK  12 active torsions:
REMARK  status: ('A' for Active; 'I' for Inactive)
REMARK    1  A    between atoms: C_6  and  C_10
REMARK    2  A    between atoms: C_12  and  N_16
REMARK    3  A    between atoms: C_14  and  O_19
REMARK    4  A    between atoms: N_16  and  S_21
REMARK    5  A    between atoms: N_18  and  C_23
REMARK    6  A    between atoms: S_21  and  C_27
REMARK    7  A    between atoms: C_23  and  C_29
REMARK    8  A    between atoms: C_27  and  C_31
REMARK    9  A    between atoms: C_27  and  C_32
REMARK   10  A    between atoms: C_29  and  C_34
REMARK   11  A    between atoms: C_34  and  C_35
REMARK   12  A    between atoms: C_34  and  C_36
REMARK                            x       y       z     vdW  Elec       q    Type
REMARK                         _______ _______ _______ _____ _____    ______ ____
ROOT
ATOM      1  S   UNL     1      -8.926  55.414  49.900  0.00  0.00    +0.000 S 
ATOM      2  O   UNL     1      -8.554  56.704  49.358  0.00  0.00    +0.000 OA
ATOM      3  O   UNL     1      -8.485  55.013  51.221  0.00  0.00    +0.000 OA
ATOM      4  N   UNL     1      -8.440  54.284  48.851  0.00  0.00    +0.000 N 
ATOM      5  C   UNL     1     -10.680  55.382  49.954  0.00  0.00    +0.000 A 
ATOM      6  C   UNL     1      -9.290  53.625  48.121  0.00  0.00    +0.000 C 
ATOM      7  C   UNL     1     -11.343  54.556  49.050  0.00  0.00    +0.000 A 
ATOM      8  C   UNL     1     -11.364  56.148  50.895  0.00  0.00    +0.000 A 
ATOM      9  N   UNL     1     -10.653  53.805  48.110  0.00  0.00    +0.000 N 
ATOM     10  C   UNL     1     -12.738  54.555  49.056  0.00  0.00    +0.000 A 
ATOM     11  C   UNL     1     -12.753  56.115  50.893  0.00  0.00    +0.000 A 
ATOM     12  C   UNL     1     -13.445  55.318  49.985  0.00  0.00    +0.000 A 
ATOM     13  H   UNL     1      -7.480  54.092  48.763  0.00  0.00    +0.000 HD
ATOM     14  H   UNL     1     -11.170  53.376  47.391  0.00  0.00    +0.000 HD
ENDROOT
BRANCH   6  15
ATOM     15  C   UNL     1      -8.706  52.543  47.240  0.00  0.00    +0.000 A 
ATOM     16  C   UNL     1      -7.722  51.572  47.813  0.00  0.00    +0.000 A 
ATOM     17  C   UNL     1      -9.084  52.443  45.954  0.00  0.00    +0.000 A 
ATOM     18  O   UNL     1      -7.487  51.615  49.025  0.00  0.00    +0.000 OA
ATOM     19  N   UNL     1      -7.125  50.666  46.962  0.00  0.00    +0.000 N 
ATOM     20  C   UNL     1      -8.449  51.455  45.084  0.00  0.00    +0.000 A 
ATOM     21  C   UNL     1      -7.462  50.602  45.584  0.00  0.00    +0.000 A 
ATOM     22  C   UNL     1      -8.767  51.372  43.723  0.00  0.00    +0.000 A 
ATOM     23  N   UNL     1      -6.807  49.712  44.802  0.00  0.00    +0.000 NA
ATOM     24  C   UNL     1      -8.093  50.472  42.910  0.00  0.00    +0.000 A 
ATOM     25  C   UNL     1      -7.130  49.669  43.491  0.00  0.00    +0.000 A 
BRANCH  17  26
ATOM     26  O   UNL     1     -10.031  53.244  45.341  0.00  0.00    +0.000 OA
ATOM     27  H   UNL     1      -9.928  53.488  44.443  0.00  0.00    +0.000 HD
ENDBRANCH  17  26
BRANCH  19  28
ATOM     28  C   UNL     1      -6.090  49.758  47.473  0.00  0.00    +0.000 C 
BRANCH  28  29
ATOM     29  C   UNL     1      -4.699  50.410  47.469  0.00  0.00    +0.000 C 
BRANCH  29  30
ATOM     30  C   UNL     1      -4.012  50.474  48.848  0.00  0.00    +0.000 C 
ATOM     31  C   UNL     1      -4.020  51.879  49.452  0.00  0.00    +0.000 C 
ATOM     32  C   UNL     1      -4.710  49.504  49.809  0.00  0.00    +0.000 C 
ENDBRANCH  29  30
ENDBRANCH  28  29
ENDBRANCH  19  28
ENDBRANCH   6  15
BRANCH  11  33
ATOM     33  N   UNL     1     -13.499  56.884  51.808  0.00  0.00    +0.000 N 
ATOM     34  H   UNL     1     -13.422  56.714  52.775  0.00  0.00    +0.000 HD
BRANCH  33  35
ATOM     35  S   UNL     1     -14.516  58.089  51.242  0.00  0.00    +0.000 S 
ATOM     36  O   UNL     1     -15.683  57.404  50.719  0.00  0.00    +0.000 OA
ATOM     37  O   UNL     1     -14.641  59.123  52.246  0.00  0.00    +0.000 OA
BRANCH  35  38
ATOM     38  C   UNL     1     -13.567  58.724  49.844  0.00  0.00    +0.000 C 
ATOM     39  C   UNL     1     -14.195  58.333  48.509  0.00  0.00    +0.000 C 
ATOM     40  C   UNL     1     -13.449  60.240  49.958  0.00  0.00    +0.000 C 
ENDBRANCH  35  38
ENDBRANCH  33  35
ENDBRANCH  11  33
TORSDOF 8
ENDMDL
MODEL 7
REMARK VINA RESULT:      -6.0      2.960      9.402
REMARK  Name = 353262
REMARK  12 active torsions:
REMARK  status: ('A' for Active; 'I' for Inactive)
REMARK    1  A    between atoms: C_6  and  C_10
REMARK    2  A    between atoms: C_12  and  N_16
REMARK    3  A    between atoms: C_14  and  O_19
REMARK    4  A    between atoms: N_16  and  S_21
REMARK    5  A    between atoms: N_18  and  C_23
REMARK    6  A    between atoms: S_21  and  C_27
REMARK    7  A    between atoms: C_23  and  C_29
REMARK    8  A    between atoms: C_27  and  C_31
REMARK    9  A    between atoms: C_27  and  C_32
REMARK   10  A    between atoms: C_29  and  C_34
REMARK   11  A    between atoms: C_34  and  C_35
REMARK   12  A    between atoms: C_34  and  C_36
REMARK                            x       y       z     vdW  Elec       q    Type
REMARK                         _______ _______ _______ _____ _____    ______ ____
ROOT
ATOM      1  S   UNL     1      -8.212  54.263  52.607  0.00  0.00    +0.000 S 
ATOM      2  O   UNL     1      -8.607  53.910  53.955  0.00  0.00    +0.000 OA
ATOM      3  O   UNL     1      -7.032  55.071  52.372  0.00  0.00    +0.000 OA
ATOM      4  N   UNL     1      -9.467  55.004  51.908  0.00  0.00    +0.000 N 
ATOM      5  C   UNL     1      -7.933  52.754  51.756  0.00  0.00    +0.000 A 
ATOM      6  C   UNL     1     -10.165  54.424  50.978  0.00  0.00    +0.000 C 
ATOM      7  C   UNL     1      -8.851  52.381  50.778  0.00  0.00    +0.000 A 
ATOM      8  C   UNL     1      -6.810  51.984  52.050  0.00  0.00    +0.000 A 
ATOM      9  N   UNL     1      -9.970  53.150  50.501  0.00  0.00    +0.000 N 
ATOM     10  C   UNL     1      -8.661  51.163  50.125  0.00  0.00    +0.000 A 
ATOM     11  C   UNL     1      -6.634  50.784  51.372  0.00  0.00    +0.000 A 
ATOM     12  C   UNL     1      -7.548  50.371  50.406  0.00  0.00    +0.000 A 
ATOM     13  H   UNL     1      -9.707  55.914  52.193  0.00  0.00    +0.000 HD
ATOM     14  H   UNL     1     -10.670  52.758  49.928  0.00  0.00    +0.000 HD
ENDROOT
BRANCH   6  15
ATOM     15  C   UNL     1     -11.261  55.259  50.355  0.00  0.00    +0.000 A 
ATOM     16  C   UNL     1     -12.414  55.713  51.194  0.00  0.00    +0.000 A 
ATOM     17  C   UNL     1     -11.191  55.607  49.059  0.00  0.00    +0.000 A 
ATOM     18  O   UNL     1     -12.390  55.479  52.407  0.00  0.00    +0.000 OA
ATOM     19  N   UNL     1     -13.452  56.379  50.576  0.00  0.00    +0.000 N 
ATOM     20  C   UNL     1     -12.297  56.336  48.439  0.00  0.00    +0.000 A 
ATOM     21  C   UNL     1     -13.422  56.686  49.190  0.00  0.00    +0.000 A 
ATOM     22  C   UNL     1     -12.288  56.651  47.075  0.00  0.00    +0.000 A 
ATOM     23  N   UNL     1     -14.493  57.309  48.646  0.00  0.00    +0.000 NA
ATOM     24  C   UNL     1     -13.386  57.278  46.504  0.00  0.00    +0.000 A 
ATOM     25  C   UNL     1     -14.455  57.586  47.324  0.00  0.00    +0.000 A 
BRANCH  17  26
ATOM     26  O   UNL     1     -10.142  55.298  48.210  0.00  0.00    +0.000 OA
ATOM     27  H   UNL     1     -10.094  54.450  47.815  0.00  0.00    +0.000 HD
ENDBRANCH  17  26
BRANCH  19  28
ATOM     28  C   UNL     1     -14.639  56.761  51.353  0.00  0.00    +0.000 C 
BRANCH  28  29
ATOM     29  C   UNL     1     -14.281  57.654  52.550  0.00  0.00    +0.000 C 
BRANCH  29  30
ATOM     30  C   UNL     1     -14.650  59.142  52.379  0.00  0.00    +0.000 C 
ATOM     31  C   UNL     1     -15.247  59.452  51.005  0.00  0.00    +0.000 C 
ATOM     32  C   UNL     1     -15.649  59.546  53.469  0.00  0.00    +0.000 C 
ENDBRANCH  29  30
ENDBRANCH  28  29
ENDBRANCH  19  28
ENDBRANCH   6  15
BRANCH  11  33
ATOM     33  N   UNL     1      -5.527  49.954  51.641  0.00  0.00    +0.000 N 
ATOM     34  H   UNL     1      -5.641  49.138  52.180  0.00  0.00    +0.000 HD
BRANCH  33  35
ATOM     35  S   UNL     1      -4.018  50.365  51.040  0.00  0.00    +0.000 S 
ATOM     36  O   UNL     1      -3.306  49.112  50.875  0.00  0.00    +0.000 OA
ATOM     37  O   UNL     1      -4.175  51.289  49.939  0.00  0.00    +0.000 OA
BRANCH  35  38
ATOM     38  C   UNL     1      -3.300  51.232  52.452  0.00  0.00    +0.000 C 
ATOM     39  C   UNL     1      -3.495  52.742  52.348  0.00  0.00    +0.000 C 
ATOM     40  C   UNL     1      -3.916  50.699  53.741  0.00  0.00    +0.000 C 
ENDBRANCH  35  38
ENDBRANCH  33  35
ENDBRANCH  11  33
TORSDOF 8
ENDMDL
MODEL 8
REMARK VINA RESULT:      -6.0      1.548      3.687
REMARK  Name = 353262
REMARK  12 active torsions:
REMARK  status: ('A' for Active; 'I' for Inactive)
REMARK    1  A    between atoms: C_6  and  C_10
REMARK    2  A    between atoms: C_12  and  N_16
REMARK    3  A    between atoms: C_14  and  O_19
REMARK    4  A    between atoms: N_16  and  S_21
REMARK    5  A    between atoms: N_18  and  C_23
REMARK    6  A    between atoms: S_21  and  C_27
REMARK    7  A    between atoms: C_23  and  C_29
REMARK    8  A    between atoms: C_27  and  C_31
REMARK    9  A    between atoms: C_27  and  C_32
REMARK   10  A    between atoms: C_29  and  C_34
REMARK   11  A    between atoms: C_34  and  C_35
REMARK   12  A    between atoms: C_34  and  C_36
REMARK                            x       y       z     vdW  Elec       q    Type
REMARK                         _______ _______ _______ _____ _____    ______ ____
ROOT
ATOM      1  S   UNL     1     -10.833  54.543  48.232  0.00  0.00    +0.000 S 
ATOM      2  O   UNL     1     -11.678  53.484  47.722  0.00  0.00    +0.000 OA
ATOM      3  O   UNL     1     -10.469  55.666  47.391  0.00  0.00    +0.000 OA
ATOM      4  N   UNL     1      -9.468  53.865  48.770  0.00  0.00    +0.000 N 
ATOM      5  C   UNL     1     -11.672  55.234  49.610  0.00  0.00    +0.000 A 
ATOM      6  C   UNL     1      -9.209  53.775  50.040  0.00  0.00    +0.000 C 
ATOM      7  C   UNL     1     -11.153  54.986  50.877  0.00  0.00    +0.000 A 
ATOM      8  C   UNL     1     -12.806  56.020  49.415  0.00  0.00    +0.000 A 
ATOM      9  N   UNL     1     -10.030  54.194  51.061  0.00  0.00    +0.000 N 
ATOM     10  C   UNL     1     -11.837  55.495  51.982  0.00  0.00    +0.000 A 
ATOM     11  C   UNL     1     -13.457  56.531  50.531  0.00  0.00    +0.000 A 
ATOM     12  C   UNL     1     -12.976  56.280  51.814  0.00  0.00    +0.000 A 
ATOM     13  H   UNL     1      -8.820  53.511  48.121  0.00  0.00    +0.000 HD
ATOM     14  H   UNL     1      -9.808  53.912  51.978  0.00  0.00    +0.000 HD
ENDROOT
BRANCH   6  15
ATOM     15  C   UNL     1      -7.863  53.189  50.402  0.00  0.00    +0.000 A 
ATOM     16  C   UNL     1      -7.643  51.714  50.286  0.00  0.00    +0.000 A 
ATOM     17  C   UNL     1      -6.865  53.992  50.810  0.00  0.00    +0.000 A 
ATOM     18  O   UNL     1      -8.539  51.019  49.795  0.00  0.00    +0.000 OA
ATOM     19  N   UNL     1      -6.443  51.194  50.725  0.00  0.00    +0.000 N 
ATOM     20  C   UNL     1      -5.596  53.412  51.246  0.00  0.00    +0.000 A 
ATOM     21  C   UNL     1      -5.408  52.027  51.228  0.00  0.00    +0.000 A 
ATOM     22  C   UNL     1      -4.561  54.212  51.743  0.00  0.00    +0.000 A 
ATOM     23  N   UNL     1      -4.272  51.442  51.676  0.00  0.00    +0.000 NA
ATOM     24  C   UNL     1      -3.398  53.623  52.217  0.00  0.00    +0.000 A 
ATOM     25  C   UNL     1      -3.301  52.245  52.162  0.00  0.00    +0.000 A 
BRANCH  17  26
ATOM     26  O   UNL     1      -6.940  55.371  50.892  0.00  0.00    +0.000 OA
ATOM     27  H   UNL     1      -7.219  55.779  51.688  0.00  0.00    +0.000 HD
ENDBRANCH  17  26
BRANCH  19  28
ATOM     28  C   UNL     1      -6.226  49.742  50.707  0.00  0.00    +0.000 C 
BRANCH  28  29
ATOM     29  C   UNL     1      -5.794  49.242  49.321  0.00  0.00    +0.000 C 
BRANCH  29  30
ATOM     30  C   UNL     1      -5.217  50.331  48.393  0.00  0.00    +0.000 C 
ATOM     31  C   UNL     1      -3.708  50.192  48.180  0.00  0.00    +0.000 C 
ATOM     32  C   UNL     1      -5.929  50.271  47.036  0.00  0.00    +0.000 C 
ENDBRANCH  29  30
ENDBRANCH  28  29
ENDBRANCH  19  28
ENDBRANCH   6  15
BRANCH  11  33
ATOM     33  N   UNL     1     -14.620  57.316  50.396  0.00  0.00    +0.000 N 
ATOM     34  H   UNL     1     -15.409  56.956  49.931  0.00  0.00    +0.000 HD
BRANCH  33  35
ATOM     35  S   UNL     1     -14.650  58.866  51.031  0.00  0.00    +0.000 S 
ATOM     36  O   UNL     1     -13.290  59.359  50.930  0.00  0.00    +0.000 OA
ATOM     37  O   UNL     1     -15.758  59.598  50.458  0.00  0.00    +0.000 OA
BRANCH  35  38
ATOM     38  C   UNL     1     -14.993  58.527  52.771  0.00  0.00    +0.000 C 
ATOM     39  C   UNL     1     -15.735  59.683  53.438  0.00  0.00    +0.000 C 
ATOM     40  C   UNL     1     -15.794  57.236  52.888  0.00  0.00    +0.000 C 
ENDBRANCH  35  38
ENDBRANCH  33  35
ENDBRANCH  11  33
TORSDOF 8
ENDMDL
MODEL 9
REMARK VINA RESULT:      -5.9      1.696      2.076
REMARK  Name = 353262
REMARK  12 active torsions:
REMARK  status: ('A' for Active; 'I' for Inactive)
REMARK    1  A    between atoms: C_6  and  C_10
REMARK    2  A    between atoms: C_12  and  N_16
REMARK    3  A    between atoms: C_14  and  O_19
REMARK    4  A    between atoms: N_16  and  S_21
REMARK    5  A    between atoms: N_18  and  C_23
REMARK    6  A    between atoms: S_21  and  C_27
REMARK    7  A    between atoms: C_23  and  C_29
REMARK    8  A    between atoms: C_27  and  C_31
REMARK    9  A    between atoms: C_27  and  C_32
REMARK   10  A    between atoms: C_29  and  C_34
REMARK   11  A    between atoms: C_34  and  C_35
REMARK   12  A    between atoms: C_34  and  C_36
REMARK                            x       y       z     vdW  Elec       q    Type
REMARK                         _______ _______ _______ _____ _____    ______ ____
ROOT
ATOM      1  S   UNL     1     -11.011  54.249  47.642  0.00  0.00    +0.000 S 
ATOM      2  O   UNL     1     -11.880  53.380  46.877  0.00  0.00    +0.000 OA
ATOM      3  O   UNL     1     -10.865  55.647  47.288  0.00  0.00    +0.000 OA
ATOM      4  N   UNL     1      -9.538  53.583  47.651  0.00  0.00    +0.000 N 
ATOM      5  C   UNL     1     -11.618  54.237  49.290  0.00  0.00    +0.000 A 
ATOM      6  C   UNL     1      -9.046  53.035  48.721  0.00  0.00    +0.000 C 
ATOM      7  C   UNL     1     -10.863  53.576  50.255  0.00  0.00    +0.000 A 
ATOM      8  C   UNL     1     -12.806  54.893  49.601  0.00  0.00    +0.000 A 
ATOM      9  N   UNL     1      -9.686  52.917  49.933  0.00  0.00    +0.000 N 
ATOM     10  C   UNL     1     -11.357  53.525  51.558  0.00  0.00    +0.000 A 
ATOM     11  C   UNL     1     -13.267  54.843  50.910  0.00  0.00    +0.000 A 
ATOM     12  C   UNL     1     -12.547  54.170  51.894  0.00  0.00    +0.000 A 
ATOM     13  H   UNL     1      -9.002  53.593  46.826  0.00  0.00    +0.000 HD
ATOM     14  H   UNL     1      -9.286  52.328  50.612  0.00  0.00    +0.000 HD
ENDROOT
BRANCH   6  15
ATOM     15  C   UNL     1      -7.629  52.521  48.611  0.00  0.00    +0.000 A 
ATOM     16  C   UNL     1      -6.574  53.053  49.530  0.00  0.00    +0.000 A 
ATOM     17  C   UNL     1      -7.321  51.579  47.703  0.00  0.00    +0.000 A 
ATOM     18  O   UNL     1      -6.912  53.828  50.431  0.00  0.00    +0.000 OA
ATOM     19  N   UNL     1      -5.271  52.647  49.336  0.00  0.00    +0.000 N 
ATOM     20  C   UNL     1      -5.932  51.152  47.538  0.00  0.00    +0.000 A 
ATOM     21  C   UNL     1      -4.923  51.707  48.329  0.00  0.00    +0.000 A 
ATOM     22  C   UNL     1      -5.566  50.226  46.555  0.00  0.00    +0.000 A 
ATOM     23  N   UNL     1      -3.618  51.386  48.173  0.00  0.00    +0.000 NA
ATOM     24  C   UNL     1      -4.230  49.898  46.377  0.00  0.00    +0.000 A 
ATOM     25  C   UNL     1      -3.300  50.498  47.205  0.00  0.00    +0.000 A 
BRANCH  17  26
ATOM     26  O   UNL     1      -8.227  50.973  46.850  0.00  0.00    +0.000 OA
ATOM     27  H   UNL     1      -8.310  51.272  45.966  0.00  0.00    +0.000 HD
ENDBRANCH  17  26
BRANCH  19  28
ATOM     28  C   UNL     1      -4.198  53.216  50.163  0.00  0.00    +0.000 C 
BRANCH  28  29
ATOM     29  C   UNL     1      -3.790  52.273  51.304  0.00  0.00    +0.000 C 
BRANCH  29  30
ATOM     30  C   UNL     1      -3.957  52.863  52.720  0.00  0.00    +0.000 C 
ATOM     31  C   UNL     1      -3.704  54.370  52.769  0.00  0.00    +0.000 C 
ATOM     32  C   UNL     1      -5.373  52.568  53.229  0.00  0.00    +0.000 C 
ENDBRANCH  29  30
ENDBRANCH  28  29
ENDBRANCH  19  28
ENDBRANCH   6  15
BRANCH  11  33
ATOM     33  N   UNL     1     -14.473  55.472  51.280  0.00  0.00    +0.000 N 
ATOM     34  H   UNL     1     -14.995  55.132  52.042  0.00  0.00    +0.000 HD
BRANCH  33  35
ATOM     35  S   UNL     1     -15.013  56.801  50.414  0.00  0.00    +0.000 S 
ATOM     36  O   UNL     1     -14.521  56.616  49.062  0.00  0.00    +0.000 OA
ATOM     37  O   UNL     1     -16.420  57.006  50.678  0.00  0.00    +0.000 OA
BRANCH  35  38
ATOM     38  C   UNL     1     -14.060  58.131  51.177  0.00  0.00    +0.000 C 
ATOM     39  C   UNL     1     -14.046  59.387  50.310  0.00  0.00    +0.000 C 
ATOM     40  C   UNL     1     -14.632  58.437  52.557  0.00  0.00    +0.000 C 
ENDBRANCH  35  38
ENDBRANCH  33  35
ENDBRANCH  11  33
TORSDOF 8
ENDMDL
