MODEL 1
REMARK VINA RESULT:      -8.3      0.000      0.000
REMARK  Name = 352769
REMARK  10 active torsions:
REMARK  status: ('A' for Active; 'I' for Inactive)
REMARK    1  A    between atoms: C_6  and  C_10
REMARK    2  A    between atoms: C_12  and  O_16
REMARK    3  A    between atoms: C_14  and  O_19
REMARK    4  A    between atoms: O_16  and  C_21
REMARK    5  A    between atoms: N_18  and  C_23
REMARK    6  A    between atoms: C_21  and  C_25
REMARK    7  A    between atoms: C_23  and  C_27
REMARK    8  A    between atoms: C_27  and  C_32
REMARK    9  A    between atoms: C_32  and  C_33
REMARK   10  A    between atoms: C_32  and  C_34
REMARK                            x       y       z     vdW  Elec       q    Type
REMARK                         _______ _______ _______ _____ _____    ______ ____
ROOT
ATOM      1  S   UNL     1     -11.516  55.271  49.547  0.00  0.00    +0.000 S 
ATOM      2  O   UNL     1     -12.311  54.246  48.901  0.00  0.00    +0.000 OA
ATOM      3  O   UNL     1     -10.758  56.214  48.747  0.00  0.00    +0.000 OA
ATOM      4  N   UNL     1     -10.500  54.542  50.568  0.00  0.00    +0.000 N 
ATOM      5  C   UNL     1     -12.641  56.236  50.483  0.00  0.00    +0.000 A 
ATOM      6  C   UNL     1     -10.659  54.630  51.856  0.00  0.00    +0.000 C 
ATOM      7  C   UNL     1     -12.586  56.133  51.864  0.00  0.00    +0.000 A 
ATOM      8  C   UNL     1     -13.544  57.076  49.830  0.00  0.00    +0.000 A 
ATOM      9  N   UNL     1     -11.691  55.276  52.495  0.00  0.00    +0.000 N 
ATOM     10  C   UNL     1     -13.509  56.859  52.617  0.00  0.00    +0.000 A 
ATOM     11  C   UNL     1     -14.456  57.796  50.593  0.00  0.00    +0.000 A 
ATOM     12  C   UNL     1     -14.427  57.698  51.985  0.00  0.00    +0.000 A 
ATOM     13  H   UNL     1      -9.745  54.022  50.209  0.00  0.00    +0.000 HD
ATOM     14  H   UNL     1     -11.804  55.121  53.461  0.00  0.00    +0.000 HD
ENDROOT
BRANCH   6  15
ATOM     15  C   UNL     1      -9.592  53.977  52.704  0.00  0.00    +0.000 A 
ATOM     16  C   UNL     1      -8.191  54.506  52.655  0.00  0.00    +0.000 A 
ATOM     17  C   UNL     1      -9.888  52.941  53.508  0.00  0.00    +0.000 A 
ATOM     18  O   UNL     1      -7.967  55.522  51.990  0.00  0.00    +0.000 OA
ATOM     19  N   UNL     1      -7.214  53.840  53.363  0.00  0.00    +0.000 N 
ATOM     20  C   UNL     1      -8.830  52.269  54.262  0.00  0.00    +0.000 A 
ATOM     21  C   UNL     1      -7.505  52.703  54.159  0.00  0.00    +0.000 A 
ATOM     22  C   UNL     1      -9.094  51.154  55.066  0.00  0.00    +0.000 A 
ATOM     23  N   UNL     1      -6.482  52.080  54.791  0.00  0.00    +0.000 NA
ATOM     24  C   UNL     1      -8.053  50.504  55.715  0.00  0.00    +0.000 A 
ATOM     25  C   UNL     1      -6.775  50.998  55.545  0.00  0.00    +0.000 A 
BRANCH  17  26
ATOM     26  O   UNL     1     -11.154  52.409  53.676  0.00  0.00    +0.000 OA
ATOM     27  H   UNL     1     -11.266  51.483  53.760  0.00  0.00    +0.000 HD
ENDBRANCH  17  26
BRANCH  19  28
ATOM     28  C   UNL     1      -5.818  54.279  53.261  0.00  0.00    +0.000 C 
BRANCH  28  29
ATOM     29  C   UNL     1      -5.197  53.887  51.914  0.00  0.00    +0.000 C 
BRANCH  29  30
ATOM     30  C   UNL     1      -3.748  53.371  52.009  0.00  0.00    +0.000 C 
ATOM     31  C   UNL     1      -3.300  53.129  53.451  0.00  0.00    +0.000 C 
ATOM     32  C   UNL     1      -3.615  52.071  51.211  0.00  0.00    +0.000 C 
ENDBRANCH  29  30
ENDBRANCH  28  29
ENDBRANCH  19  28
ENDBRANCH   6  15
BRANCH  11  33
ATOM     33  O   UNL     1     -15.403  58.638  50.091  0.00  0.00    +0.000 OA
BRANCH  33  34
ATOM     34  C   UNL     1     -15.231  60.019  50.413  0.00  0.00    +0.000 C 
BRANCH  34  35
ATOM     35  C   UNL     1     -14.211  60.644  49.465  0.00  0.00    +0.000 C 
ATOM     36  O   UNL     1     -13.012  60.706  49.714  0.00  0.00    +0.000 OA
ATOM     37  N   UNL     1     -14.711  61.120  48.287  0.00  0.00    +0.000 N 
ATOM     38  H   UNL     1     -15.677  61.061  48.102  0.00  0.00    +0.000 HD
ATOM     39  H   UNL     1     -14.106  61.519  47.621  0.00  0.00    +0.000 HD
ENDBRANCH  34  35
ENDBRANCH  33  34
ENDBRANCH  11  33
TORSDOF 8
ENDMDL
MODEL 2
REMARK VINA RESULT:      -7.4      1.836      2.379
REMARK  Name = 352769
REMARK  10 active torsions:
REMARK  status: ('A' for Active; 'I' for Inactive)
REMARK    1  A    between atoms: C_6  and  C_10
REMARK    2  A    between atoms: C_12  and  O_16
REMARK    3  A    between atoms: C_14  and  O_19
REMARK    4  A    between atoms: O_16  and  C_21
REMARK    5  A    between atoms: N_18  and  C_23
REMARK    6  A    between atoms: C_21  and  C_25
REMARK    7  A    between atoms: C_23  and  C_27
REMARK    8  A    between atoms: C_27  and  C_32
REMARK    9  A    between atoms: C_32  and  C_33
REMARK   10  A    between atoms: C_32  and  C_34
REMARK                            x       y       z     vdW  Elec       q    Type
REMARK                         _______ _______ _______ _____ _____    ______ ____
ROOT
ATOM      1  S   UNL     1     -11.411  54.782  48.552  0.00  0.00    +0.000 S 
ATOM      2  O   UNL     1     -12.351  53.847  47.969  0.00  0.00    +0.000 OA
ATOM      3  O   UNL     1     -10.759  55.774  47.717  0.00  0.00    +0.000 OA
ATOM      4  N   UNL     1     -10.268  53.930  49.310  0.00  0.00    +0.000 N 
ATOM      5  C   UNL     1     -12.312  55.687  49.753  0.00  0.00    +0.000 A 
ATOM      6  C   UNL     1     -10.199  53.901  50.609  0.00  0.00    +0.000 C 
ATOM      7  C   UNL     1     -12.024  55.453  51.088  0.00  0.00    +0.000 A 
ATOM      8  C   UNL     1     -13.275  56.612  49.345  0.00  0.00    +0.000 A 
ATOM      9  N   UNL     1     -11.074  54.514  51.474  0.00  0.00    +0.000 N 
ATOM     10  C   UNL     1     -12.769  56.132  52.052  0.00  0.00    +0.000 A 
ATOM     11  C   UNL     1     -14.007  57.283  50.317  0.00  0.00    +0.000 A 
ATOM     12  C   UNL     1     -13.743  57.053  51.668  0.00  0.00    +0.000 A 
ATOM     13  H   UNL     1      -9.611  53.424  48.780  0.00  0.00    +0.000 HD
ATOM     14  H   UNL     1     -11.026  54.272  52.427  0.00  0.00    +0.000 HD
ENDROOT
BRANCH   6  15
ATOM     15  C   UNL     1      -9.032  53.139  51.195  0.00  0.00    +0.000 A 
ATOM     16  C   UNL     1      -8.438  53.593  52.494  0.00  0.00    +0.000 A 
ATOM     17  C   UNL     1      -8.534  52.056  50.574  0.00  0.00    +0.000 A 
ATOM     18  O   UNL     1      -8.979  54.525  53.096  0.00  0.00    +0.000 OA
ATOM     19  N   UNL     1      -7.318  52.943  52.965  0.00  0.00    +0.000 N 
ATOM     20  C   UNL     1      -7.355  51.377  51.112  0.00  0.00    +0.000 A 
ATOM     21  C   UNL     1      -6.743  51.844  52.279  0.00  0.00    +0.000 A 
ATOM     22  C   UNL     1      -6.777  50.280  50.462  0.00  0.00    +0.000 A 
ATOM     23  N   UNL     1      -5.617  51.285  52.785  0.00  0.00    +0.000 NA
ATOM     24  C   UNL     1      -5.621  49.703  50.968  0.00  0.00    +0.000 A 
ATOM     25  C   UNL     1      -5.081  50.239  52.121  0.00  0.00    +0.000 A 
BRANCH  17  26
ATOM     26  O   UNL     1      -9.038  51.515  49.405  0.00  0.00    +0.000 OA
ATOM     27  H   UNL     1      -9.796  51.892  49.003  0.00  0.00    +0.000 HD
ENDBRANCH  17  26
BRANCH  19  28
ATOM     28  C   UNL     1      -6.661  53.424  54.185  0.00  0.00    +0.000 C 
BRANCH  28  29
ATOM     29  C   UNL     1      -5.829  54.687  53.922  0.00  0.00    +0.000 C 
BRANCH  29  30
ATOM     30  C   UNL     1      -4.312  54.439  53.825  0.00  0.00    +0.000 C 
ATOM     31  C   UNL     1      -3.843  54.189  52.392  0.00  0.00    +0.000 C 
ATOM     32  C   UNL     1      -3.560  55.642  54.403  0.00  0.00    +0.000 C 
ENDBRANCH  29  30
ENDBRANCH  28  29
ENDBRANCH  19  28
ENDBRANCH   6  15
BRANCH  11  33
ATOM     33  O   UNL     1     -14.987  58.197  50.065  0.00  0.00    +0.000 OA
BRANCH  33  34
ATOM     34  C   UNL     1     -14.783  59.490  50.636  0.00  0.00    +0.000 C 
BRANCH  34  35
ATOM     35  C   UNL     1     -13.969  60.353  49.675  0.00  0.00    +0.000 C 
ATOM     36  O   UNL     1     -12.782  60.609  49.844  0.00  0.00    +0.000 OA
ATOM     37  N   UNL     1     -14.641  60.815  48.580  0.00  0.00    +0.000 N 
ATOM     38  H   UNL     1     -15.594  60.600  48.459  0.00  0.00    +0.000 HD
ATOM     39  H   UNL     1     -14.171  61.363  47.910  0.00  0.00    +0.000 HD
ENDBRANCH  34  35
ENDBRANCH  33  34
ENDBRANCH  11  33
TORSDOF 8
ENDMDL
MODEL 3
REMARK VINA RESULT:      -7.2      4.567      6.138
REMARK  Name = 352769
REMARK  10 active torsions:
REMARK  status: ('A' for Active; 'I' for Inactive)
REMARK    1  A    between atoms: C_6  and  C_10
REMARK    2  A    between atoms: C_12  and  O_16
REMARK    3  A    between atoms: C_14  and  O_19
REMARK    4  A    between atoms: O_16  and  C_21
REMARK    5  A    between atoms: N_18  and  C_23
REMARK    6  A    between atoms: C_21  and  C_25
REMARK    7  A    between atoms: C_23  and  C_27
REMARK    8  A    between atoms: C_27  and  C_32
REMARK    9  A    between atoms: C_32  and  C_33
REMARK   10  A    between atoms: C_32  and  C_34
REMARK                            x       y       z     vdW  Elec       q    Type
REMARK                         _______ _______ _______ _____ _____    ______ ____
ROOT
ATOM      1  S   UNL     1     -11.597  54.807  50.649  0.00  0.00    +0.000 S 
ATOM      2  O   UNL     1     -10.645  55.524  51.474  0.00  0.00    +0.000 OA
ATOM      3  O   UNL     1     -12.518  53.864  51.254  0.00  0.00    +0.000 OA
ATOM      4  N   UNL     1     -10.772  54.039  49.492  0.00  0.00    +0.000 N 
ATOM      5  C   UNL     1     -12.597  56.032  49.892  0.00  0.00    +0.000 A 
ATOM      6  C   UNL     1     -10.827  54.430  48.253  0.00  0.00    +0.000 C 
ATOM      7  C   UNL     1     -12.445  56.239  48.530  0.00  0.00    +0.000 A 
ATOM      8  C   UNL     1     -13.513  56.751  50.662  0.00  0.00    +0.000 A 
ATOM      9  N   UNL     1     -11.514  55.526  47.785  0.00  0.00    +0.000 N 
ATOM     10  C   UNL     1     -13.202  57.245  47.928  0.00  0.00    +0.000 A 
ATOM     11  C   UNL     1     -14.262  57.748  50.047  0.00  0.00    +0.000 A 
ATOM     12  C   UNL     1     -14.116  57.983  48.679  0.00  0.00    +0.000 A 
ATOM     13  H   UNL     1     -10.219  53.261  49.729  0.00  0.00    +0.000 HD
ATOM     14  H   UNL     1     -11.333  55.824  46.864  0.00  0.00    +0.000 HD
ENDROOT
BRANCH   6  15
ATOM     15  C   UNL     1     -10.081  53.575  47.253  0.00  0.00    +0.000 A 
ATOM     16  C   UNL     1      -8.727  53.041  47.611  0.00  0.00    +0.000 A 
ATOM     17  C   UNL     1     -10.623  53.280  46.059  0.00  0.00    +0.000 A 
ATOM     18  O   UNL     1      -8.297  53.239  48.751  0.00  0.00    +0.000 OA
ATOM     19  N   UNL     1      -8.024  52.343  46.652  0.00  0.00    +0.000 N 
ATOM     20  C   UNL     1      -9.857  52.519  45.072  0.00  0.00    +0.000 A 
ATOM     21  C   UNL     1      -8.560  52.087  45.365  0.00  0.00    +0.000 A 
ATOM     22  C   UNL     1     -10.369  52.241  43.799  0.00  0.00    +0.000 A 
ATOM     23  N   UNL     1      -7.790  51.430  44.465  0.00  0.00    +0.000 NA
ATOM     24  C   UNL     1      -9.588  51.572  42.867  0.00  0.00    +0.000 A 
ATOM     25  C   UNL     1      -8.314  51.193  43.243  0.00  0.00    +0.000 A 
BRANCH  17  26
ATOM     26  O   UNL     1     -11.885  53.669  45.647  0.00  0.00    +0.000 OA
ATOM     27  H   UNL     1     -12.617  53.098  45.775  0.00  0.00    +0.000 HD
ENDBRANCH  17  26
BRANCH  19  28
ATOM     28  C   UNL     1      -6.661  51.888  46.942  0.00  0.00    +0.000 C 
BRANCH  28  29
ATOM     29  C   UNL     1      -5.672  53.060  47.005  0.00  0.00    +0.000 C 
BRANCH  29  30
ATOM     30  C   UNL     1      -4.722  53.024  48.217  0.00  0.00    +0.000 C 
ATOM     31  C   UNL     1      -4.780  54.304  49.053  0.00  0.00    +0.000 C 
ATOM     32  C   UNL     1      -5.067  51.823  49.102  0.00  0.00    +0.000 C 
ENDBRANCH  29  30
ENDBRANCH  28  29
ENDBRANCH  19  28
ENDBRANCH   6  15
BRANCH  11  33
ATOM     33  O   UNL     1     -15.178  58.538  50.676  0.00  0.00    +0.000 OA
BRANCH  33  34
ATOM     34  C   UNL     1     -14.680  59.298  51.778  0.00  0.00    +0.000 C 
BRANCH  34  35
ATOM     35  C   UNL     1     -15.303  58.789  53.076  0.00  0.00    +0.000 C 
ATOM     36  O   UNL     1     -15.467  57.599  53.321  0.00  0.00    +0.000 OA
ATOM     37  N   UNL     1     -15.653  59.750  53.981  0.00  0.00    +0.000 N 
ATOM     38  H   UNL     1     -15.514  60.701  53.769  0.00  0.00    +0.000 HD
ATOM     39  H   UNL     1     -16.043  59.490  54.847  0.00  0.00    +0.000 HD
ENDBRANCH  34  35
ENDBRANCH  33  34
ENDBRANCH  11  33
TORSDOF 8
ENDMDL
MODEL 4
REMARK VINA RESULT:      -7.0      2.689      3.904
REMARK  Name = 352769
REMARK  10 active torsions:
REMARK  status: ('A' for Active; 'I' for Inactive)
REMARK    1  A    between atoms: C_6  and  C_10
REMARK    2  A    between atoms: C_12  and  O_16
REMARK    3  A    between atoms: C_14  and  O_19
REMARK    4  A    between atoms: O_16  and  C_21
REMARK    5  A    between atoms: N_18  and  C_23
REMARK    6  A    between atoms: C_21  and  C_25
REMARK    7  A    between atoms: C_23  and  C_27
REMARK    8  A    between atoms: C_27  and  C_32
REMARK    9  A    between atoms: C_32  and  C_33
REMARK   10  A    between atoms: C_32  and  C_34
REMARK                            x       y       z     vdW  Elec       q    Type
REMARK                         _______ _______ _______ _____ _____    ______ ____
ROOT
ATOM      1  S   UNL     1     -11.171  54.580  47.874  0.00  0.00    +0.000 S 
ATOM      2  O   UNL     1     -12.037  53.531  47.372  0.00  0.00    +0.000 OA
ATOM      3  O   UNL     1     -10.934  55.769  47.078  0.00  0.00    +0.000 OA
ATOM      4  N   UNL     1      -9.743  53.917  48.231  0.00  0.00    +0.000 N 
ATOM      5  C   UNL     1     -11.907  55.140  49.363  0.00  0.00    +0.000 A 
ATOM      6  C   UNL     1      -9.359  53.767  49.465  0.00  0.00    +0.000 C 
ATOM      7  C   UNL     1     -11.268  54.835  50.554  0.00  0.00    +0.000 A 
ATOM      8  C   UNL     1     -13.093  55.875  49.316  0.00  0.00    +0.000 A 
ATOM      9  N   UNL     1     -10.098  54.086  50.580  0.00  0.00    +0.000 N 
ATOM     10  C   UNL     1     -11.871  55.235  51.747  0.00  0.00    +0.000 A 
ATOM     11  C   UNL     1     -13.680  56.270  50.513  0.00  0.00    +0.000 A 
ATOM     12  C   UNL     1     -13.061  55.961  51.725  0.00  0.00    +0.000 A 
ATOM     13  H   UNL     1      -9.152  53.621  47.502  0.00  0.00    +0.000 HD
ATOM     14  H   UNL     1      -9.777  53.761  51.453  0.00  0.00    +0.000 HD
ENDROOT
BRANCH   6  15
ATOM     15  C   UNL     1      -7.966  53.216  49.665  0.00  0.00    +0.000 A 
ATOM     16  C   UNL     1      -7.089  53.806  50.728  0.00  0.00    +0.000 A 
ATOM     17  C   UNL     1      -7.513  52.197  48.913  0.00  0.00    +0.000 A 
ATOM     18  O   UNL     1      -7.564  54.667  51.473  0.00  0.00    +0.000 OA
ATOM     19  N   UNL     1      -5.792  53.352  50.833  0.00  0.00    +0.000 N 
ATOM     20  C   UNL     1      -6.136  51.727  49.065  0.00  0.00    +0.000 A 
ATOM     21  C   UNL     1      -5.284  52.327  49.996  0.00  0.00    +0.000 A 
ATOM     22  C   UNL     1      -5.615  50.707  48.261  0.00  0.00    +0.000 A 
ATOM     23  N   UNL     1      -3.985  51.967  50.134  0.00  0.00    +0.000 NA
ATOM     24  C   UNL     1      -4.285  50.332  48.390  0.00  0.00    +0.000 A 
ATOM     25  C   UNL     1      -3.515  50.989  49.330  0.00  0.00    +0.000 A 
BRANCH  17  26
ATOM     26  O   UNL     1      -8.253  51.541  47.947  0.00  0.00    +0.000 OA
ATOM     27  H   UNL     1      -7.926  50.750  47.563  0.00  0.00    +0.000 HD
ENDBRANCH  17  26
BRANCH  19  28
ATOM     28  C   UNL     1      -4.883  53.975  51.802  0.00  0.00    +0.000 C 
BRANCH  28  29
ATOM     29  C   UNL     1      -4.936  53.270  53.164  0.00  0.00    +0.000 C 
BRANCH  29  30
ATOM     30  C   UNL     1      -4.850  54.220  54.374  0.00  0.00    +0.000 C 
ATOM     31  C   UNL     1      -3.872  55.374  54.151  0.00  0.00    +0.000 C 
ATOM     32  C   UNL     1      -6.240  54.784  54.682  0.00  0.00    +0.000 C 
ENDBRANCH  29  30
ENDBRANCH  28  29
ENDBRANCH  19  28
ENDBRANCH   6  15
BRANCH  11  33
ATOM     33  O   UNL     1     -14.843  56.974  50.618  0.00  0.00    +0.000 OA
BRANCH  33  34
ATOM     34  C   UNL     1     -15.226  57.332  51.946  0.00  0.00    +0.000 C 
BRANCH  34  35
ATOM     35  C   UNL     1     -15.021  58.830  52.154  0.00  0.00    +0.000 C 
ATOM     36  O   UNL     1     -14.652  59.587  51.263  0.00  0.00    +0.000 OA
ATOM     37  N   UNL     1     -15.301  59.298  53.406  0.00  0.00    +0.000 N 
ATOM     38  H   UNL     1     -15.598  58.677  54.110  0.00  0.00    +0.000 HD
ATOM     39  H   UNL     1     -15.208  60.258  53.604  0.00  0.00    +0.000 HD
ENDBRANCH  34  35
ENDBRANCH  33  34
ENDBRANCH  11  33
TORSDOF 8
ENDMDL
MODEL 5
REMARK VINA RESULT:      -6.9      2.425      3.280
REMARK  Name = 352769
REMARK  10 active torsions:
REMARK  status: ('A' for Active; 'I' for Inactive)
REMARK    1  A    between atoms: C_6  and  C_10
REMARK    2  A    between atoms: C_12  and  O_16
REMARK    3  A    between atoms: C_14  and  O_19
REMARK    4  A    between atoms: O_16  and  C_21
REMARK    5  A    between atoms: N_18  and  C_23
REMARK    6  A    between atoms: C_21  and  C_25
REMARK    7  A    between atoms: C_23  and  C_27
REMARK    8  A    between atoms: C_27  and  C_32
REMARK    9  A    between atoms: C_32  and  C_33
REMARK   10  A    between atoms: C_32  and  C_34
REMARK                            x       y       z     vdW  Elec       q    Type
REMARK                         _______ _______ _______ _____ _____    ______ ____
ROOT
ATOM      1  S   UNL     1     -10.639  54.722  48.541  0.00  0.00    +0.000 S 
ATOM      2  O   UNL     1     -11.340  53.536  48.090  0.00  0.00    +0.000 OA
ATOM      3  O   UNL     1     -10.357  55.798  47.610  0.00  0.00    +0.000 OA
ATOM      4  N   UNL     1      -9.246  54.252  49.209  0.00  0.00    +0.000 N 
ATOM      5  C   UNL     1     -11.641  55.426  49.796  0.00  0.00    +0.000 A 
ATOM      6  C   UNL     1      -9.057  54.321  50.494  0.00  0.00    +0.000 C 
ATOM      7  C   UNL     1     -11.184  55.359  51.102  0.00  0.00    +0.000 A 
ATOM      8  C   UNL     1     -12.851  56.035  49.456  0.00  0.00    +0.000 A 
ATOM      9  N   UNL     1      -9.985  54.732  51.421  0.00  0.00    +0.000 N 
ATOM     10  C   UNL     1     -11.997  55.873  52.113  0.00  0.00    +0.000 A 
ATOM     11  C   UNL     1     -13.648  56.546  50.473  0.00  0.00    +0.000 A 
ATOM     12  C   UNL     1     -13.213  56.477  51.798  0.00  0.00    +0.000 A 
ATOM     13  H   UNL     1      -8.526  53.908  48.632  0.00  0.00    +0.000 HD
ATOM     14  H   UNL     1      -9.789  54.569  52.373  0.00  0.00    +0.000 HD
ENDROOT
BRANCH   6  15
ATOM     15  C   UNL     1      -7.680  53.935  50.985  0.00  0.00    +0.000 A 
ATOM     16  C   UNL     1      -6.984  52.761  50.365  0.00  0.00    +0.000 A 
ATOM     17  C   UNL     1      -7.072  54.638  51.956  0.00  0.00    +0.000 A 
ATOM     18  O   UNL     1      -7.518  52.197  49.406  0.00  0.00    +0.000 OA
ATOM     19  N   UNL     1      -5.771  52.368  50.889  0.00  0.00    +0.000 N 
ATOM     20  C   UNL     1      -5.775  54.204  52.475  0.00  0.00    +0.000 A 
ATOM     21  C   UNL     1      -5.155  53.062  51.961  0.00  0.00    +0.000 A 
ATOM     22  C   UNL     1      -5.139  54.880  53.523  0.00  0.00    +0.000 A 
ATOM     23  N   UNL     1      -3.983  52.587  52.447  0.00  0.00    +0.000 NA
ATOM     24  C   UNL     1      -3.940  54.401  54.033  0.00  0.00    +0.000 A 
ATOM     25  C   UNL     1      -3.408  53.259  53.468  0.00  0.00    +0.000 A 
BRANCH  17  26
ATOM     26  O   UNL     1      -7.595  55.769  52.557  0.00  0.00    +0.000 OA
ATOM     27  H   UNL     1      -8.523  55.874  52.630  0.00  0.00    +0.000 HD
ENDBRANCH  17  26
BRANCH  19  28
ATOM     28  C   UNL     1      -5.110  51.168  50.365  0.00  0.00    +0.000 C 
BRANCH  28  29
ATOM     29  C   UNL     1      -3.875  51.522  49.524  0.00  0.00    +0.000 C 
BRANCH  29  30
ATOM     30  C   UNL     1      -4.117  51.506  48.003  0.00  0.00    +0.000 C 
ATOM     31  C   UNL     1      -5.180  50.490  47.583  0.00  0.00    +0.000 C 
ATOM     32  C   UNL     1      -4.539  52.903  47.538  0.00  0.00    +0.000 C 
ENDBRANCH  29  30
ENDBRANCH  28  29
ENDBRANCH  19  28
ENDBRANCH   6  15
BRANCH  11  33
ATOM     33  O   UNL     1     -14.857  57.149  50.291  0.00  0.00    +0.000 OA
BRANCH  33  34
ATOM     34  C   UNL     1     -14.935  58.510  50.715  0.00  0.00    +0.000 C 
BRANCH  34  35
ATOM     35  C   UNL     1     -14.133  59.392  49.761  0.00  0.00    +0.000 C 
ATOM     36  O   UNL     1     -13.335  60.242  50.143  0.00  0.00    +0.000 OA
ATOM     37  N   UNL     1     -14.337  59.164  48.431  0.00  0.00    +0.000 N 
ATOM     38  H   UNL     1     -14.981  58.478  48.141  0.00  0.00    +0.000 HD
ATOM     39  H   UNL     1     -13.839  59.685  47.761  0.00  0.00    +0.000 HD
ENDBRANCH  34  35
ENDBRANCH  33  34
ENDBRANCH  11  33
TORSDOF 8
ENDMDL
MODEL 6
REMARK VINA RESULT:      -6.9      4.695      6.243
REMARK  Name = 352769
REMARK  10 active torsions:
REMARK  status: ('A' for Active; 'I' for Inactive)
REMARK    1  A    between atoms: C_6  and  C_10
REMARK    2  A    between atoms: C_12  and  O_16
REMARK    3  A    between atoms: C_14  and  O_19
REMARK    4  A    between atoms: O_16  and  C_21
REMARK    5  A    between atoms: N_18  and  C_23
REMARK    6  A    between atoms: C_21  and  C_25
REMARK    7  A    between atoms: C_23  and  C_27
REMARK    8  A    between atoms: C_27  and  C_32
REMARK    9  A    between atoms: C_32  and  C_33
REMARK   10  A    between atoms: C_32  and  C_34
REMARK                            x       y       z     vdW  Elec       q    Type
REMARK                         _______ _______ _______ _____ _____    ______ ____
ROOT
ATOM      1  S   UNL     1      -9.610  54.751  51.093  0.00  0.00    +0.000 S 
ATOM      2  O   UNL     1      -8.857  55.990  51.113  0.00  0.00    +0.000 OA
ATOM      3  O   UNL     1      -9.563  53.854  52.232  0.00  0.00    +0.000 OA
ATOM      4  N   UNL     1      -9.168  53.923  49.779  0.00  0.00    +0.000 N 
ATOM      5  C   UNL     1     -11.292  55.211  50.916  0.00  0.00    +0.000 A 
ATOM      6  C   UNL     1      -9.973  53.787  48.766  0.00  0.00    +0.000 C 
ATOM      7  C   UNL     1     -11.913  54.937  49.708  0.00  0.00    +0.000 A 
ATOM      8  C   UNL     1     -11.958  55.824  51.979  0.00  0.00    +0.000 A 
ATOM      9  N   UNL     1     -11.226  54.344  48.655  0.00  0.00    +0.000 N 
ATOM     10  C   UNL     1     -13.237  55.344  49.539  0.00  0.00    +0.000 A 
ATOM     11  C   UNL     1     -13.278  56.220  51.798  0.00  0.00    +0.000 A 
ATOM     12  C   UNL     1     -13.919  55.966  50.584  0.00  0.00    +0.000 A 
ATOM     13  H   UNL     1      -8.274  53.513  49.744  0.00  0.00    +0.000 HD
ATOM     14  H   UNL     1     -11.663  54.322  47.773  0.00  0.00    +0.000 HD
ENDROOT
BRANCH   6  15
ATOM     15  C   UNL     1      -9.476  52.917  47.634  0.00  0.00    +0.000 A 
ATOM     16  C   UNL     1      -8.843  51.595  47.949  0.00  0.00    +0.000 A 
ATOM     17  C   UNL     1      -9.609  53.307  46.355  0.00  0.00    +0.000 A 
ATOM     18  O   UNL     1      -8.827  51.213  49.123  0.00  0.00    +0.000 OA
ATOM     19  N   UNL     1      -8.313  50.859  46.911  0.00  0.00    +0.000 N 
ATOM     20  C   UNL     1      -9.053  52.492  45.275  0.00  0.00    +0.000 A 
ATOM     21  C   UNL     1      -8.386  51.298  45.565  0.00  0.00    +0.000 A 
ATOM     22  C   UNL     1      -9.125  52.895  43.937  0.00  0.00    +0.000 A 
ATOM     23  N   UNL     1      -7.804  50.537  44.607  0.00  0.00    +0.000 NA
ATOM     24  C   UNL     1      -8.528  52.126  42.947  0.00  0.00    +0.000 A 
ATOM     25  C   UNL     1      -7.882  50.967  43.329  0.00  0.00    +0.000 A 
BRANCH  17  26
ATOM     26  O   UNL     1     -10.228  54.475  45.946  0.00  0.00    +0.000 OA
ATOM     27  H   UNL     1      -9.853  54.987  45.257  0.00  0.00    +0.000 HD
ENDBRANCH  17  26
BRANCH  19  28
ATOM     28  C   UNL     1      -7.606  49.607  47.198  0.00  0.00    +0.000 C 
BRANCH  28  29
ATOM     29  C   UNL     1      -6.324  49.852  48.006  0.00  0.00    +0.000 C 
BRANCH  29  30
ATOM     30  C   UNL     1      -5.381  50.906  47.397  0.00  0.00    +0.000 C 
ATOM     31  C   UNL     1      -5.186  52.121  48.305  0.00  0.00    +0.000 C 
ATOM     32  C   UNL     1      -4.020  50.267  47.104  0.00  0.00    +0.000 C 
ENDBRANCH  29  30
ENDBRANCH  28  29
ENDBRANCH  19  28
ENDBRANCH   6  15
BRANCH  11  33
ATOM     33  O   UNL     1     -14.044  56.842  52.739  0.00  0.00    +0.000 OA
BRANCH  33  34
ATOM     34  C   UNL     1     -15.262  57.413  52.261  0.00  0.00    +0.000 C 
BRANCH  34  35
ATOM     35  C   UNL     1     -15.165  58.936  52.299  0.00  0.00    +0.000 C 
ATOM     36  O   UNL     1     -14.885  59.616  51.318  0.00  0.00    +0.000 OA
ATOM     37  N   UNL     1     -15.437  59.517  53.504  0.00  0.00    +0.000 N 
ATOM     38  H   UNL     1     -15.661  58.957  54.282  0.00  0.00    +0.000 HD
ATOM     39  H   UNL     1     -15.410  60.497  53.595  0.00  0.00    +0.000 HD
ENDBRANCH  34  35
ENDBRANCH  33  34
ENDBRANCH  11  33
TORSDOF 8
ENDMDL
MODEL 7
REMARK VINA RESULT:      -6.9      4.581      5.933
REMARK  Name = 352769
REMARK  10 active torsions:
REMARK  status: ('A' for Active; 'I' for Inactive)
REMARK    1  A    between atoms: C_6  and  C_10
REMARK    2  A    between atoms: C_12  and  O_16
REMARK    3  A    between atoms: C_14  and  O_19
REMARK    4  A    between atoms: O_16  and  C_21
REMARK    5  A    between atoms: N_18  and  C_23
REMARK    6  A    between atoms: C_21  and  C_25
REMARK    7  A    between atoms: C_23  and  C_27
REMARK    8  A    between atoms: C_27  and  C_32
REMARK    9  A    between atoms: C_32  and  C_33
REMARK   10  A    between atoms: C_32  and  C_34
REMARK                            x       y       z     vdW  Elec       q    Type
REMARK                         _______ _______ _______ _____ _____    ______ ____
ROOT
ATOM      1  S   UNL     1     -11.336  54.592  50.403  0.00  0.00    +0.000 S 
ATOM      2  O   UNL     1     -10.402  55.467  51.082  0.00  0.00    +0.000 OA
ATOM      3  O   UNL     1     -12.207  53.722  51.170  0.00  0.00    +0.000 OA
ATOM      4  N   UNL     1     -10.499  53.682  49.364  0.00  0.00    +0.000 N 
ATOM      5  C   UNL     1     -12.399  55.641  49.484  0.00  0.00    +0.000 A 
ATOM      6  C   UNL     1     -10.590  53.868  48.080  0.00  0.00    +0.000 C 
ATOM      7  C   UNL     1     -12.278  55.635  48.104  0.00  0.00    +0.000 A 
ATOM      8  C   UNL     1     -13.331  56.438  50.151  0.00  0.00    +0.000 A 
ATOM      9  N   UNL     1     -11.330  54.848  47.460  0.00  0.00    +0.000 N 
ATOM     10  C   UNL     1     -13.085  56.502  47.367  0.00  0.00    +0.000 A 
ATOM     11  C   UNL     1     -14.131  57.295  49.403  0.00  0.00    +0.000 A 
ATOM     12  C   UNL     1     -14.016  57.315  48.012  0.00  0.00    +0.000 A 
ATOM     13  H   UNL     1      -9.910  52.973  49.709  0.00  0.00    +0.000 HD
ATOM     14  H   UNL     1     -11.177  55.003  46.500  0.00  0.00    +0.000 HD
ENDROOT
BRANCH   6  15
ATOM     15  C   UNL     1      -9.826  52.895  47.211  0.00  0.00    +0.000 A 
ATOM     16  C   UNL     1      -8.409  52.555  47.563  0.00  0.00    +0.000 A 
ATOM     17  C   UNL     1     -10.406  52.323  46.142  0.00  0.00    +0.000 A 
ATOM     18  O   UNL     1      -7.934  53.011  48.607  0.00  0.00    +0.000 OA
ATOM     19  N   UNL     1      -7.700  51.738  46.708  0.00  0.00    +0.000 N 
ATOM     20  C   UNL     1      -9.629  51.445  45.266  0.00  0.00    +0.000 A 
ATOM     21  C   UNL     1      -8.283  51.188  45.538  0.00  0.00    +0.000 A 
ATOM     22  C   UNL     1     -10.186  50.877  44.114  0.00  0.00    +0.000 A 
ATOM     23  N   UNL     1      -7.507  50.429  44.728  0.00  0.00    +0.000 NA
ATOM     24  C   UNL     1      -9.399  50.102  43.273  0.00  0.00    +0.000 A 
ATOM     25  C   UNL     1      -8.076  49.911  43.618  0.00  0.00    +0.000 A 
BRANCH  17  26
ATOM     26  O   UNL     1     -11.720  52.518  45.759  0.00  0.00    +0.000 OA
ATOM     27  H   UNL     1     -11.972  53.316  45.337  0.00  0.00    +0.000 HD
ENDBRANCH  17  26
BRANCH  19  28
ATOM     28  C   UNL     1      -6.285  51.463  46.976  0.00  0.00    +0.000 C 
BRANCH  28  29
ATOM     29  C   UNL     1      -6.111  50.395  48.065  0.00  0.00    +0.000 C 
BRANCH  29  30
ATOM     30  C   UNL     1      -5.085  50.760  49.154  0.00  0.00    +0.000 C 
ATOM     31  C   UNL     1      -5.700  50.814  50.553  0.00  0.00    +0.000 C 
ATOM     32  C   UNL     1      -3.941  49.742  49.141  0.00  0.00    +0.000 C 
ENDBRANCH  29  30
ENDBRANCH  28  29
ENDBRANCH  19  28
ENDBRANCH   6  15
BRANCH  11  33
ATOM     33  O   UNL     1     -15.068  58.139  49.920  0.00  0.00    +0.000 OA
BRANCH  33  34
ATOM     34  C   UNL     1     -14.555  59.279  50.610  0.00  0.00    +0.000 C 
BRANCH  34  35
ATOM     35  C   UNL     1     -14.107  60.332  49.600  0.00  0.00    +0.000 C 
ATOM     36  O   UNL     1     -14.872  60.874  48.810  0.00  0.00    +0.000 OA
ATOM     37  N   UNL     1     -12.783  60.666  49.640  0.00  0.00    +0.000 N 
ATOM     38  H   UNL     1     -12.182  60.221  50.281  0.00  0.00    +0.000 HD
ATOM     39  H   UNL     1     -12.430  61.351  49.029  0.00  0.00    +0.000 HD
ENDBRANCH  34  35
ENDBRANCH  33  34
ENDBRANCH  11  33
TORSDOF 8
ENDMDL
MODEL 8
REMARK VINA RESULT:      -6.8      2.915      4.650
REMARK  Name = 352769
REMARK  10 active torsions:
REMARK  status: ('A' for Active; 'I' for Inactive)
REMARK    1  A    between atoms: C_6  and  C_10
REMARK    2  A    between atoms: C_12  and  O_16
REMARK    3  A    between atoms: C_14  and  O_19
REMARK    4  A    between atoms: O_16  and  C_21
REMARK    5  A    between atoms: N_18  and  C_23
REMARK    6  A    between atoms: C_21  and  C_25
REMARK    7  A    between atoms: C_23  and  C_27
REMARK    8  A    between atoms: C_27  and  C_32
REMARK    9  A    between atoms: C_32  and  C_33
REMARK   10  A    between atoms: C_32  and  C_34
REMARK                            x       y       z     vdW  Elec       q    Type
REMARK                         _______ _______ _______ _____ _____    ______ ____
ROOT
ATOM      1  S   UNL     1     -10.818  54.245  51.610  0.00  0.00    +0.000 S 
ATOM      2  O   UNL     1     -10.610  55.311  52.569  0.00  0.00    +0.000 OA
ATOM      3  O   UNL     1     -11.686  53.130  51.939  0.00  0.00    +0.000 OA
ATOM      4  N   UNL     1      -9.371  53.657  51.200  0.00  0.00    +0.000 N 
ATOM      5  C   UNL     1     -11.527  55.000  50.195  0.00  0.00    +0.000 A 
ATOM      6  C   UNL     1      -8.864  53.873  50.022  0.00  0.00    +0.000 C 
ATOM      7  C   UNL     1     -10.746  55.096  49.054  0.00  0.00    +0.000 A 
ATOM      8  C   UNL     1     -12.840  55.472  50.246  0.00  0.00    +0.000 A 
ATOM      9  N   UNL     1      -9.434  54.637  49.030  0.00  0.00    +0.000 N 
ATOM     10  C   UNL     1     -11.284  55.739  47.939  0.00  0.00    +0.000 A 
ATOM     11  C   UNL     1     -13.363  56.107  49.126  0.00  0.00    +0.000 A 
ATOM     12  C   UNL     1     -12.590  56.226  47.970  0.00  0.00    +0.000 A 
ATOM     13  H   UNL     1      -8.864  53.124  51.854  0.00  0.00    +0.000 HD
ATOM     14  H   UNL     1      -8.876  54.875  48.255  0.00  0.00    +0.000 HD
ENDROOT
BRANCH   6  15
ATOM     15  C   UNL     1      -7.544  53.196  49.731  0.00  0.00    +0.000 A 
ATOM     16  C   UNL     1      -6.345  53.540  50.561  0.00  0.00    +0.000 A 
ATOM     17  C   UNL     1      -7.440  52.282  48.751  0.00  0.00    +0.000 A 
ATOM     18  O   UNL     1      -6.491  54.302  51.521  0.00  0.00    +0.000 OA
ATOM     19  N   UNL     1      -5.131  52.982  50.221  0.00  0.00    +0.000 N 
ATOM     20  C   UNL     1      -6.140  51.693  48.430  0.00  0.00    +0.000 A 
ATOM     21  C   UNL     1      -4.999  52.070  49.143  0.00  0.00    +0.000 A 
ATOM     22  C   UNL     1      -5.985  50.780  47.380  0.00  0.00    +0.000 A 
ATOM     23  N   UNL     1      -3.764  51.598  48.847  0.00  0.00    +0.000 NA
ATOM     24  C   UNL     1      -4.724  50.294  47.064  0.00  0.00    +0.000 A 
ATOM     25  C   UNL     1      -3.653  50.731  47.818  0.00  0.00    +0.000 A 
BRANCH  17  26
ATOM     26  O   UNL     1      -8.490  51.846  47.963  0.00  0.00    +0.000 OA
ATOM     27  H   UNL     1      -9.105  52.463  47.619  0.00  0.00    +0.000 HD
ENDBRANCH  17  26
BRANCH  19  28
ATOM     28  C   UNL     1      -3.924  53.371  50.957  0.00  0.00    +0.000 C 
BRANCH  28  29
ATOM     29  C   UNL     1      -3.558  52.341  52.034  0.00  0.00    +0.000 C 
BRANCH  29  30
ATOM     30  C   UNL     1      -3.788  52.824  53.479  0.00  0.00    +0.000 C 
ATOM     31  C   UNL     1      -3.644  54.339  53.626  0.00  0.00    +0.000 C 
ATOM     32  C   UNL     1      -5.184  52.399  53.944  0.00  0.00    +0.000 C 
ENDBRANCH  29  30
ENDBRANCH  28  29
ENDBRANCH  19  28
ENDBRANCH   6  15
BRANCH  11  33
ATOM     33  O   UNL     1     -14.619  56.630  49.039  0.00  0.00    +0.000 OA
BRANCH  33  34
ATOM     34  C   UNL     1     -15.029  57.430  50.148  0.00  0.00    +0.000 C 
BRANCH  34  35
ATOM     35  C   UNL     1     -16.043  56.660  50.991  0.00  0.00    +0.000 C 
ATOM     36  O   UNL     1     -16.989  56.046  50.509  0.00  0.00    +0.000 OA
ATOM     37  N   UNL     1     -15.822  56.670  52.338  0.00  0.00    +0.000 N 
ATOM     38  H   UNL     1     -15.058  57.168  52.709  0.00  0.00    +0.000 HD
ATOM     39  H   UNL     1     -16.427  56.178  52.939  0.00  0.00    +0.000 HD
ENDBRANCH  34  35
ENDBRANCH  33  34
ENDBRANCH  11  33
TORSDOF 8
ENDMDL
MODEL 9
REMARK VINA RESULT:      -6.8      5.186      8.667
REMARK  Name = 352769
REMARK  10 active torsions:
REMARK  status: ('A' for Active; 'I' for Inactive)
REMARK    1  A    between atoms: C_6  and  C_10
REMARK    2  A    between atoms: C_12  and  O_16
REMARK    3  A    between atoms: C_14  and  O_19
REMARK    4  A    between atoms: O_16  and  C_21
REMARK    5  A    between atoms: N_18  and  C_23
REMARK    6  A    between atoms: C_21  and  C_25
REMARK    7  A    between atoms: C_23  and  C_27
REMARK    8  A    between atoms: C_27  and  C_32
REMARK    9  A    between atoms: C_32  and  C_33
REMARK   10  A    between atoms: C_32  and  C_34
REMARK                            x       y       z     vdW  Elec       q    Type
REMARK                         _______ _______ _______ _____ _____    ______ ____
ROOT
ATOM      1  S   UNL     1     -11.800  51.792  46.165  0.00  0.00    +0.000 S 
ATOM      2  O   UNL     1     -12.862  51.806  45.179  0.00  0.00    +0.000 OA
ATOM      3  O   UNL     1     -11.398  50.543  46.784  0.00  0.00    +0.000 OA
ATOM      4  N   UNL     1     -12.195  52.833  47.335  0.00  0.00    +0.000 N 
ATOM      5  C   UNL     1     -10.373  52.399  45.346  0.00  0.00    +0.000 A 
ATOM      6  C   UNL     1     -11.562  53.961  47.475  0.00  0.00    +0.000 C 
ATOM      7  C   UNL     1      -9.908  53.654  45.704  0.00  0.00    +0.000 A 
ATOM      8  C   UNL     1      -9.746  51.615  44.376  0.00  0.00    +0.000 A 
ATOM      9  N   UNL     1     -10.559  54.426  46.659  0.00  0.00    +0.000 N 
ATOM     10  C   UNL     1      -8.802  54.166  45.023  0.00  0.00    +0.000 A 
ATOM     11  C   UNL     1      -8.643  52.137  43.709  0.00  0.00    +0.000 A 
ATOM     12  C   UNL     1      -8.165  53.405  44.044  0.00  0.00    +0.000 A 
ATOM     13  H   UNL     1     -12.926  52.609  47.954  0.00  0.00    +0.000 HD
ATOM     14  H   UNL     1     -10.285  55.367  46.756  0.00  0.00    +0.000 HD
ENDROOT
BRANCH   6  15
ATOM     15  C   UNL     1     -11.968  54.807  48.661  0.00  0.00    +0.000 A 
ATOM     16  C   UNL     1     -11.424  54.476  50.018  0.00  0.00    +0.000 A 
ATOM     17  C   UNL     1     -12.795  55.855  48.509  0.00  0.00    +0.000 A 
ATOM     18  O   UNL     1     -10.585  53.575  50.113  0.00  0.00    +0.000 OA
ATOM     19  N   UNL     1     -11.877  55.200  51.100  0.00  0.00    +0.000 N 
ATOM     20  C   UNL     1     -13.241  56.616  49.677  0.00  0.00    +0.000 A 
ATOM     21  C   UNL     1     -12.805  56.263  50.957  0.00  0.00    +0.000 A 
ATOM     22  C   UNL     1     -14.145  57.678  49.561  0.00  0.00    +0.000 A 
ATOM     23  N   UNL     1     -13.233  56.899  52.074  0.00  0.00    +0.000 NA
ATOM     24  C   UNL     1     -14.594  58.334  50.699  0.00  0.00    +0.000 A 
ATOM     25  C   UNL     1     -14.116  57.909  51.923  0.00  0.00    +0.000 A 
BRANCH  17  26
ATOM     26  O   UNL     1     -13.310  56.286  47.299  0.00  0.00    +0.000 OA
ATOM     27  H   UNL     1     -12.738  56.637  46.645  0.00  0.00    +0.000 HD
ENDBRANCH  17  26
BRANCH  19  28
ATOM     28  C   UNL     1     -11.433  54.839  52.450  0.00  0.00    +0.000 C 
BRANCH  28  29
ATOM     29  C   UNL     1     -10.017  55.357  52.739  0.00  0.00    +0.000 C 
BRANCH  29  30
ATOM     30  C   UNL     1      -9.270  54.580  53.840  0.00  0.00    +0.000 C 
ATOM     31  C   UNL     1      -9.191  53.080  53.556  0.00  0.00    +0.000 C 
ATOM     32  C   UNL     1      -7.854  55.144  53.993  0.00  0.00    +0.000 C 
ENDBRANCH  29  30
ENDBRANCH  28  29
ENDBRANCH  19  28
ENDBRANCH   6  15
BRANCH  11  33
ATOM     33  O   UNL     1      -7.945  51.494  42.731  0.00  0.00    +0.000 OA
BRANCH  33  34
ATOM     34  C   UNL     1      -8.006  50.068  42.768  0.00  0.00    +0.000 C 
BRANCH  34  35
ATOM     35  C   UNL     1      -6.793  49.521  43.515  0.00  0.00    +0.000 C 
ATOM     36  O   UNL     1      -6.845  49.107  44.668  0.00  0.00    +0.000 OA
ATOM     37  N   UNL     1      -5.625  49.492  42.807  0.00  0.00    +0.000 N 
ATOM     38  H   UNL     1      -5.601  49.827  41.882  0.00  0.00    +0.000 HD
ATOM     39  H   UNL     1      -4.808  49.134  43.223  0.00  0.00    +0.000 HD
ENDBRANCH  34  35
ENDBRANCH  33  34
ENDBRANCH  11  33
TORSDOF 8
ENDMDL
