MODEL 1
REMARK VINA RESULT:      -7.4      0.000      0.000
REMARK  Name = 353163
REMARK  10 active torsions:
REMARK  status: ('A' for Active; 'I' for Inactive)
REMARK    1  A    between atoms: C_6  and  C_10
REMARK    2  A    between atoms: C_12  and  N_16
REMARK    3  A    between atoms: C_14  and  O_19
REMARK    4  A    between atoms: N_16  and  C_21
REMARK    5  A    between atoms: N_18  and  C_23
REMARK    6  A    between atoms: C_21  and  C_25
REMARK    7  A    between atoms: C_23  and  C_27
REMARK    8  A    between atoms: C_27  and  C_31
REMARK    9  A    between atoms: C_31  and  C_32
REMARK   10  A    between atoms: C_31  and  C_33
REMARK                            x       y       z     vdW  Elec       q    Type
REMARK                         _______ _______ _______ _____ _____    ______ ____
ROOT
ATOM      1  S   UNL     1     -11.801  55.623  49.628  0.00  0.00    +0.000 S 
ATOM      2  O   UNL     1     -12.622  54.628  48.966  0.00  0.00    +0.000 OA
ATOM      3  O   UNL     1     -11.032  56.575  48.852  0.00  0.00    +0.000 OA
ATOM      4  N   UNL     1     -10.774  54.836  50.605  0.00  0.00    +0.000 N 
ATOM      5  C   UNL     1     -12.886  56.566  50.626  0.00  0.00    +0.000 A 
ATOM      6  C   UNL     1     -10.895  54.896  51.898  0.00  0.00    +0.000 C 
ATOM      7  C   UNL     1     -12.783  56.439  51.999  0.00  0.00    +0.000 A 
ATOM      8  C   UNL     1     -13.801  57.433  50.029  0.00  0.00    +0.000 A 
ATOM      9  N   UNL     1     -11.887  55.555  52.584  0.00  0.00    +0.000 N 
ATOM     10  C   UNL     1     -13.673  57.164  52.793  0.00  0.00    +0.000 A 
ATOM     11  C   UNL     1     -14.651  58.204  50.824  0.00  0.00    +0.000 A 
ATOM     12  C   UNL     1     -14.591  58.042  52.212  0.00  0.00    +0.000 A 
ATOM     13  H   UNL     1     -10.045  54.304  50.212  0.00  0.00    +0.000 HD
ATOM     14  H   UNL     1     -11.967  55.390  53.552  0.00  0.00    +0.000 HD
ENDROOT
BRANCH   6  15
ATOM     15  C   UNL     1      -9.826  54.193  52.703  0.00  0.00    +0.000 A 
ATOM     16  C   UNL     1      -8.429  54.731  52.692  0.00  0.00    +0.000 A 
ATOM     17  C   UNL     1     -10.123  53.111  53.443  0.00  0.00    +0.000 A 
ATOM     18  O   UNL     1      -8.206  55.787  52.092  0.00  0.00    +0.000 OA
ATOM     19  N   UNL     1      -7.451  54.026  53.361  0.00  0.00    +0.000 N 
ATOM     20  C   UNL     1      -9.064  52.402  54.163  0.00  0.00    +0.000 A 
ATOM     21  C   UNL     1      -7.741  52.844  54.085  0.00  0.00    +0.000 A 
ATOM     22  C   UNL     1      -9.327  51.244  54.903  0.00  0.00    +0.000 A 
ATOM     23  N   UNL     1      -6.718  52.191  54.687  0.00  0.00    +0.000 NA
ATOM     24  C   UNL     1      -8.285  50.562  55.519  0.00  0.00    +0.000 A 
ATOM     25  C   UNL     1      -7.009  51.069  55.379  0.00  0.00    +0.000 A 
BRANCH  17  26
ATOM     26  O   UNL     1     -11.388  52.566  53.574  0.00  0.00    +0.000 OA
ATOM     27  H   UNL     1     -11.964  52.876  54.244  0.00  0.00    +0.000 HD
ENDBRANCH  17  26
BRANCH  19  28
ATOM     28  C   UNL     1      -6.057  54.480  53.289  0.00  0.00    +0.000 C 
BRANCH  28  29
ATOM     29  C   UNL     1      -5.356  53.962  52.025  0.00  0.00    +0.000 C 
BRANCH  29  30
ATOM     30  C   UNL     1      -3.818  53.930  52.119  0.00  0.00    +0.000 C 
ATOM     31  C   UNL     1      -3.300  54.392  53.482  0.00  0.00    +0.000 C 
ATOM     32  C   UNL     1      -3.318  52.509  51.840  0.00  0.00    +0.000 C 
ENDBRANCH  29  30
ENDBRANCH  28  29
ENDBRANCH  19  28
ENDBRANCH   6  15
BRANCH  11  33
ATOM     33  N   UNL     1     -15.533  59.067  50.180  0.00  0.00    +0.000 N 
ATOM     34  H   UNL     1     -16.490  59.058  50.405  0.00  0.00    +0.000 HD
BRANCH  33  35
ATOM     35  C   UNL     1     -15.024  59.990  49.164  0.00  0.00    +0.000 C 
BRANCH  35  36
ATOM     36  C   UNL     1     -13.680  60.485  49.520  0.00  0.00    +0.000 C 
ATOM     37  N   UNL     1     -12.618  60.861  49.799  0.00  0.00    +0.000 NA
ENDBRANCH  35  36
ENDBRANCH  33  35
ENDBRANCH  11  33
TORSDOF 8
ENDMDL
MODEL 2
REMARK VINA RESULT:      -7.4      3.521      5.197
REMARK  Name = 353163
REMARK  10 active torsions:
REMARK  status: ('A' for Active; 'I' for Inactive)
REMARK    1  A    between atoms: C_6  and  C_10
REMARK    2  A    between atoms: C_12  and  N_16
REMARK    3  A    between atoms: C_14  and  O_19
REMARK    4  A    between atoms: N_16  and  C_21
REMARK    5  A    between atoms: N_18  and  C_23
REMARK    6  A    between atoms: C_21  and  C_25
REMARK    7  A    between atoms: C_23  and  C_27
REMARK    8  A    between atoms: C_27  and  C_31
REMARK    9  A    between atoms: C_31  and  C_32
REMARK   10  A    between atoms: C_31  and  C_33
REMARK                            x       y       z     vdW  Elec       q    Type
REMARK                         _______ _______ _______ _____ _____    ______ ____
ROOT
ATOM      1  S   UNL     1     -13.446  59.055  49.396  0.00  0.00    +0.000 S 
ATOM      2  O   UNL     1     -14.557  59.077  48.464  0.00  0.00    +0.000 OA
ATOM      3  O   UNL     1     -12.653  60.247  49.621  0.00  0.00    +0.000 OA
ATOM      4  N   UNL     1     -12.441  57.872  48.927  0.00  0.00    +0.000 N 
ATOM      5  C   UNL     1     -14.118  58.612  50.950  0.00  0.00    +0.000 A 
ATOM      6  C   UNL     1     -12.312  56.782  49.624  0.00  0.00    +0.000 C 
ATOM      7  C   UNL     1     -13.798  57.372  51.469  0.00  0.00    +0.000 A 
ATOM      8  C   UNL     1     -14.931  59.514  51.636  0.00  0.00    +0.000 A 
ATOM      9  N   UNL     1     -13.009  56.470  50.767  0.00  0.00    +0.000 N 
ATOM     10  C   UNL     1     -14.363  57.005  52.690  0.00  0.00    +0.000 A 
ATOM     11  C   UNL     1     -15.449  59.173  52.887  0.00  0.00    +0.000 A 
ATOM     12  C   UNL     1     -15.174  57.899  53.394  0.00  0.00    +0.000 A 
ATOM     13  H   UNL     1     -11.917  57.981  48.101  0.00  0.00    +0.000 HD
ATOM     14  H   UNL     1     -12.944  55.549  51.110  0.00  0.00    +0.000 HD
ENDROOT
BRANCH   6  15
ATOM     15  C   UNL     1     -11.280  55.792  49.133  0.00  0.00    +0.000 A 
ATOM     16  C   UNL     1     -10.345  55.159  50.118  0.00  0.00    +0.000 A 
ATOM     17  C   UNL     1     -11.212  55.459  47.833  0.00  0.00    +0.000 A 
ATOM     18  O   UNL     1     -10.500  55.399  51.319  0.00  0.00    +0.000 OA
ATOM     19  N   UNL     1      -9.356  54.328  49.639  0.00  0.00    +0.000 N 
ATOM     20  C   UNL     1     -10.164  54.551  47.363  0.00  0.00    +0.000 A 
ATOM     21  C   UNL     1      -9.231  54.027  48.260  0.00  0.00    +0.000 A 
ATOM     22  C   UNL     1     -10.031  54.221  46.009  0.00  0.00    +0.000 A 
ATOM     23  N   UNL     1      -8.210  53.227  47.866  0.00  0.00    +0.000 NA
ATOM     24  C   UNL     1      -8.986  53.408  45.593  0.00  0.00    +0.000 A 
ATOM     25  C   UNL     1      -8.106  52.944  46.550  0.00  0.00    +0.000 A 
BRANCH  17  26
ATOM     26  O   UNL     1     -12.061  55.935  46.850  0.00  0.00    +0.000 OA
ATOM     27  H   UNL     1     -12.878  55.505  46.689  0.00  0.00    +0.000 HD
ENDBRANCH  17  26
BRANCH  19  28
ATOM     28  C   UNL     1      -8.370  53.768  50.570  0.00  0.00    +0.000 C 
BRANCH  28  29
ATOM     29  C   UNL     1      -7.226  54.754  50.845  0.00  0.00    +0.000 C 
BRANCH  29  30
ATOM     30  C   UNL     1      -5.831  54.237  50.444  0.00  0.00    +0.000 C 
ATOM     31  C   UNL     1      -5.187  55.074  49.337  0.00  0.00    +0.000 C 
ATOM     32  C   UNL     1      -4.915  54.229  51.672  0.00  0.00    +0.000 C 
ENDBRANCH  29  30
ENDBRANCH  28  29
ENDBRANCH  19  28
ENDBRANCH   6  15
BRANCH  11  33
ATOM     33  N   UNL     1     -16.239  60.116  53.539  0.00  0.00    +0.000 N 
ATOM     34  H   UNL     1     -16.701  60.816  53.025  0.00  0.00    +0.000 HD
BRANCH  33  35
ATOM     35  C   UNL     1     -16.377  60.057  54.994  0.00  0.00    +0.000 C 
BRANCH  35  36
ATOM     36  C   UNL     1     -17.264  61.127  55.489  0.00  0.00    +0.000 C 
ATOM     37  N   UNL     1     -17.971  61.966  55.868  0.00  0.00    +0.000 NA
ENDBRANCH  35  36
ENDBRANCH  33  35
ENDBRANCH  11  33
TORSDOF 8
ENDMDL
MODEL 3
REMARK VINA RESULT:      -7.3      2.609      3.731
REMARK  Name = 353163
REMARK  10 active torsions:
REMARK  status: ('A' for Active; 'I' for Inactive)
REMARK    1  A    between atoms: C_6  and  C_10
REMARK    2  A    between atoms: C_12  and  N_16
REMARK    3  A    between atoms: C_14  and  O_19
REMARK    4  A    between atoms: N_16  and  C_21
REMARK    5  A    between atoms: N_18  and  C_23
REMARK    6  A    between atoms: C_21  and  C_25
REMARK    7  A    between atoms: C_23  and  C_27
REMARK    8  A    between atoms: C_27  and  C_31
REMARK    9  A    between atoms: C_31  and  C_32
REMARK   10  A    between atoms: C_31  and  C_33
REMARK                            x       y       z     vdW  Elec       q    Type
REMARK                         _______ _______ _______ _____ _____    ______ ____
ROOT
ATOM      1  S   UNL     1     -11.384  54.674  47.987  0.00  0.00    +0.000 S 
ATOM      2  O   UNL     1     -12.285  53.615  47.577  0.00  0.00    +0.000 OA
ATOM      3  O   UNL     1     -11.164  55.823  47.132  0.00  0.00    +0.000 OA
ATOM      4  N   UNL     1      -9.942  53.997  48.288  0.00  0.00    +0.000 N 
ATOM      5  C   UNL     1     -12.015  55.299  49.495  0.00  0.00    +0.000 A 
ATOM      6  C   UNL     1      -9.480  53.906  49.500  0.00  0.00    +0.000 C 
ATOM      7  C   UNL     1     -11.297  55.058  50.651  0.00  0.00    +0.000 A 
ATOM      8  C   UNL     1     -13.199  56.037  49.498  0.00  0.00    +0.000 A 
ATOM      9  N   UNL     1     -10.134  54.300  50.643  0.00  0.00    +0.000 N 
ATOM     10  C   UNL     1     -11.820  55.525  51.857  0.00  0.00    +0.000 A 
ATOM     11  C   UNL     1     -13.692  56.557  50.697  0.00  0.00    +0.000 A 
ATOM     12  C   UNL     1     -13.000  56.273  51.878  0.00  0.00    +0.000 A 
ATOM     13  H   UNL     1      -9.405  53.650  47.540  0.00  0.00    +0.000 HD
ATOM     14  H   UNL     1      -9.753  54.029  51.509  0.00  0.00    +0.000 HD
ENDROOT
BRANCH   6  15
ATOM     15  C   UNL     1      -8.087  53.335  49.644  0.00  0.00    +0.000 A 
ATOM     16  C   UNL     1      -7.091  54.046  50.507  0.00  0.00    +0.000 A 
ATOM     17  C   UNL     1      -7.747  52.190  49.028  0.00  0.00    +0.000 A 
ATOM     18  O   UNL     1      -7.461  55.034  51.147  0.00  0.00    +0.000 OA
ATOM     19  N   UNL     1      -5.802  53.559  50.555  0.00  0.00    +0.000 N 
ATOM     20  C   UNL     1      -6.376  51.687  49.122  0.00  0.00    +0.000 A 
ATOM     21  C   UNL     1      -5.414  52.392  49.851  0.00  0.00    +0.000 A 
ATOM     22  C   UNL     1      -5.972  50.525  48.454  0.00  0.00    +0.000 A 
ATOM     23  N   UNL     1      -4.120  51.997  49.923  0.00  0.00    +0.000 NA
ATOM     24  C   UNL     1      -4.647  50.115  48.515  0.00  0.00    +0.000 A 
ATOM     25  C   UNL     1      -3.766  50.881  49.252  0.00  0.00    +0.000 A 
BRANCH  17  26
ATOM     26  O   UNL     1      -8.602  51.422  48.258  0.00  0.00    +0.000 OA
ATOM     27  H   UNL     1      -8.981  50.644  48.615  0.00  0.00    +0.000 HD
ENDBRANCH  17  26
BRANCH  19  28
ATOM     28  C   UNL     1      -4.783  54.288  51.318  0.00  0.00    +0.000 C 
BRANCH  28  29
ATOM     29  C   UNL     1      -4.741  53.837  52.784  0.00  0.00    +0.000 C 
BRANCH  29  30
ATOM     30  C   UNL     1      -5.071  54.947  53.801  0.00  0.00    +0.000 C 
ATOM     31  C   UNL     1      -6.031  54.481  54.895  0.00  0.00    +0.000 C 
ATOM     32  C   UNL     1      -3.775  55.453  54.444  0.00  0.00    +0.000 C 
ENDBRANCH  29  30
ENDBRANCH  28  29
ENDBRANCH  19  28
ENDBRANCH   6  15
BRANCH  11  33
ATOM     33  N   UNL     1     -14.866  57.303  50.643  0.00  0.00    +0.000 N 
ATOM     34  H   UNL     1     -15.662  56.944  50.188  0.00  0.00    +0.000 HD
BRANCH  33  35
ATOM     35  C   UNL     1     -14.909  58.625  51.268  0.00  0.00    +0.000 C 
BRANCH  35  36
ATOM     36  C   UNL     1     -14.113  59.603  50.501  0.00  0.00    +0.000 C 
ATOM     37  N   UNL     1     -13.495  60.369  49.886  0.00  0.00    +0.000 NA
ENDBRANCH  35  36
ENDBRANCH  33  35
ENDBRANCH  11  33
TORSDOF 8
ENDMDL
MODEL 4
REMARK VINA RESULT:      -7.2      2.853      9.328
REMARK  Name = 353163
REMARK  10 active torsions:
REMARK  status: ('A' for Active; 'I' for Inactive)
REMARK    1  A    between atoms: C_6  and  C_10
REMARK    2  A    between atoms: C_12  and  N_16
REMARK    3  A    between atoms: C_14  and  O_19
REMARK    4  A    between atoms: N_16  and  C_21
REMARK    5  A    between atoms: N_18  and  C_23
REMARK    6  A    between atoms: C_21  and  C_25
REMARK    7  A    between atoms: C_23  and  C_27
REMARK    8  A    between atoms: C_27  and  C_31
REMARK    9  A    between atoms: C_31  and  C_32
REMARK   10  A    between atoms: C_31  and  C_33
REMARK                            x       y       z     vdW  Elec       q    Type
REMARK                         _______ _______ _______ _____ _____    ______ ____
ROOT
ATOM      1  S   UNL     1      -6.678  54.830  51.375  0.00  0.00    +0.000 S 
ATOM      2  O   UNL     1      -6.371  55.342  52.697  0.00  0.00    +0.000 OA
ATOM      3  O   UNL     1      -5.781  55.080  50.265  0.00  0.00    +0.000 OA
ATOM      4  N   UNL     1      -8.144  55.390  50.965  0.00  0.00    +0.000 N 
ATOM      5  C   UNL     1      -6.787  53.091  51.537  0.00  0.00    +0.000 A 
ATOM      6  C   UNL     1      -9.172  54.597  50.893  0.00  0.00    +0.000 C 
ATOM      7  C   UNL     1      -8.029  52.501  51.398  0.00  0.00    +0.000 A 
ATOM      8  C   UNL     1      -5.634  52.343  51.774  0.00  0.00    +0.000 A 
ATOM      9  N   UNL     1      -9.176  53.255  51.189  0.00  0.00    +0.000 N 
ATOM     10  C   UNL     1      -8.121  51.118  51.563  0.00  0.00    +0.000 A 
ATOM     11  C   UNL     1      -5.715  50.953  51.879  0.00  0.00    +0.000 A 
ATOM     12  C   UNL     1      -6.975  50.353  51.793  0.00  0.00    +0.000 A 
ATOM     13  H   UNL     1      -8.257  56.347  50.765  0.00  0.00    +0.000 HD
ATOM     14  H   UNL     1     -10.046  52.800  51.256  0.00  0.00    +0.000 HD
ENDROOT
BRANCH   6  15
ATOM     15  C   UNL     1     -10.463  55.220  50.414  0.00  0.00    +0.000 A 
ATOM     16  C   UNL     1     -11.560  55.480  51.400  0.00  0.00    +0.000 A 
ATOM     17  C   UNL     1     -10.624  55.562  49.125  0.00  0.00    +0.000 A 
ATOM     18  O   UNL     1     -11.346  55.257  52.595  0.00  0.00    +0.000 OA
ATOM     19  N   UNL     1     -12.761  55.966  50.930  0.00  0.00    +0.000 N 
ATOM     20  C   UNL     1     -11.905  56.102  48.664  0.00  0.00    +0.000 A 
ATOM     21  C   UNL     1     -12.966  56.263  49.560  0.00  0.00    +0.000 A 
ATOM     22  C   UNL     1     -12.126  56.423  47.320  0.00  0.00    +0.000 A 
ATOM     23  N   UNL     1     -14.186  56.705  49.172  0.00  0.00    +0.000 NA
ATOM     24  C   UNL     1     -13.375  56.871  46.910  0.00  0.00    +0.000 A 
ATOM     25  C   UNL     1     -14.365  56.990  47.864  0.00  0.00    +0.000 A 
BRANCH  17  26
ATOM     26  O   UNL     1      -9.659  55.424  48.143  0.00  0.00    +0.000 OA
ATOM     27  H   UNL     1      -8.977  54.789  48.244  0.00  0.00    +0.000 HD
ENDBRANCH  17  26
BRANCH  19  28
ATOM     28  C   UNL     1     -13.883  56.142  51.859  0.00  0.00    +0.000 C 
BRANCH  28  29
ATOM     29  C   UNL     1     -13.813  57.493  52.584  0.00  0.00    +0.000 C 
BRANCH  29  30
ATOM     30  C   UNL     1     -14.961  58.461  52.237  0.00  0.00    +0.000 C 
ATOM     31  C   UNL     1     -15.470  59.234  53.454  0.00  0.00    +0.000 C 
ATOM     32  C   UNL     1     -14.490  59.451  51.166  0.00  0.00    +0.000 C 
ENDBRANCH  29  30
ENDBRANCH  28  29
ENDBRANCH  19  28
ENDBRANCH   6  15
BRANCH  11  33
ATOM     33  N   UNL     1      -4.532  50.251  52.096  0.00  0.00    +0.000 N 
ATOM     34  H   UNL     1      -3.920  50.522  52.817  0.00  0.00    +0.000 HD
BRANCH  33  35
ATOM     35  C   UNL     1      -4.207  49.107  51.244  0.00  0.00    +0.000 C 
BRANCH  35  36
ATOM     36  C   UNL     1      -3.947  49.534  49.855  0.00  0.00    +0.000 C 
ATOM     37  N   UNL     1      -3.730  49.875  48.767  0.00  0.00    +0.000 NA
ENDBRANCH  35  36
ENDBRANCH  33  35
ENDBRANCH  11  33
TORSDOF 8
ENDMDL
MODEL 5
REMARK VINA RESULT:      -7.2      2.698      9.351
REMARK  Name = 353163
REMARK  10 active torsions:
REMARK  status: ('A' for Active; 'I' for Inactive)
REMARK    1  A    between atoms: C_6  and  C_10
REMARK    2  A    between atoms: C_12  and  N_16
REMARK    3  A    between atoms: C_14  and  O_19
REMARK    4  A    between atoms: N_16  and  C_21
REMARK    5  A    between atoms: N_18  and  C_23
REMARK    6  A    between atoms: C_21  and  C_25
REMARK    7  A    between atoms: C_23  and  C_27
REMARK    8  A    between atoms: C_27  and  C_31
REMARK    9  A    between atoms: C_31  and  C_32
REMARK   10  A    between atoms: C_31  and  C_33
REMARK                            x       y       z     vdW  Elec       q    Type
REMARK                         _______ _______ _______ _____ _____    ______ ____
ROOT
ATOM      1  S   UNL     1      -8.382  52.246  52.342  0.00  0.00    +0.000 S 
ATOM      2  O   UNL     1      -8.375  50.925  51.743  0.00  0.00    +0.000 OA
ATOM      3  O   UNL     1      -8.491  52.399  53.780  0.00  0.00    +0.000 OA
ATOM      4  N   UNL     1      -9.594  53.082  51.662  0.00  0.00    +0.000 N 
ATOM      5  C   UNL     1      -6.874  53.002  51.881  0.00  0.00    +0.000 A 
ATOM      6  C   UNL     1      -9.357  54.070  50.851  0.00  0.00    +0.000 C 
ATOM      7  C   UNL     1      -6.921  54.061  50.993  0.00  0.00    +0.000 A 
ATOM      8  C   UNL     1      -5.674  52.547  52.427  0.00  0.00    +0.000 A 
ATOM      9  N   UNL     1      -8.117  54.491  50.434  0.00  0.00    +0.000 N 
ATOM     10  C   UNL     1      -5.715  54.640  50.598  0.00  0.00    +0.000 A 
ATOM     11  C   UNL     1      -4.471  53.164  52.078  0.00  0.00    +0.000 A 
ATOM     12  C   UNL     1      -4.505  54.201  51.140  0.00  0.00    +0.000 A 
ATOM     13  H   UNL     1     -10.525  52.838  51.868  0.00  0.00    +0.000 HD
ATOM     14  H   UNL     1      -8.074  55.139  49.694  0.00  0.00    +0.000 HD
ENDROOT
BRANCH   6  15
ATOM     15  C   UNL     1     -10.566  54.828  50.350  0.00  0.00    +0.000 A 
ATOM     16  C   UNL     1     -11.655  55.187  51.313  0.00  0.00    +0.000 A 
ATOM     17  C   UNL     1     -10.658  55.201  49.063  0.00  0.00    +0.000 A 
ATOM     18  O   UNL     1     -11.496  54.928  52.510  0.00  0.00    +0.000 OA
ATOM     19  N   UNL     1     -12.788  55.800  50.821  0.00  0.00    +0.000 N 
ATOM     20  C   UNL     1     -11.864  55.875  48.579  0.00  0.00    +0.000 A 
ATOM     21  C   UNL     1     -12.925  56.133  49.451  0.00  0.00    +0.000 A 
ATOM     22  C   UNL     1     -12.016  56.234  47.235  0.00  0.00    +0.000 A 
ATOM     23  N   UNL     1     -14.083  56.704  49.041  0.00  0.00    +0.000 NA
ATOM     24  C   UNL     1     -13.202  56.813  46.802  0.00  0.00    +0.000 A 
ATOM     25  C   UNL     1     -14.199  57.022  47.733  0.00  0.00    +0.000 A 
BRANCH  17  26
ATOM     26  O   UNL     1      -9.687  54.976  48.103  0.00  0.00    +0.000 OA
ATOM     27  H   UNL     1      -8.947  55.548  48.043  0.00  0.00    +0.000 HD
ENDBRANCH  17  26
BRANCH  19  28
ATOM     28  C   UNL     1     -13.909  56.078  51.725  0.00  0.00    +0.000 C 
BRANCH  28  29
ATOM     29  C   UNL     1     -13.760  57.444  52.410  0.00  0.00    +0.000 C 
BRANCH  29  30
ATOM     30  C   UNL     1     -14.913  58.426  52.128  0.00  0.00    +0.000 C 
ATOM     31  C   UNL     1     -15.316  59.234  53.362  0.00  0.00    +0.000 C 
ATOM     32  C   UNL     1     -14.506  59.384  51.004  0.00  0.00    +0.000 C 
ENDBRANCH  29  30
ENDBRANCH  28  29
ENDBRANCH  19  28
ENDBRANCH   6  15
BRANCH  11  33
ATOM     33  N   UNL     1      -3.304  52.685  52.666  0.00  0.00    +0.000 N 
ATOM     34  H   UNL     1      -2.451  53.157  52.532  0.00  0.00    +0.000 HD
BRANCH  33  35
ATOM     35  C   UNL     1      -3.355  51.473  53.484  0.00  0.00    +0.000 C 
BRANCH  35  36
ATOM     36  C   UNL     1      -3.318  50.261  52.643  0.00  0.00    +0.000 C 
ATOM     37  N   UNL     1      -3.300  49.312  51.975  0.00  0.00    +0.000 NA
ENDBRANCH  35  36
ENDBRANCH  33  35
ENDBRANCH  11  33
TORSDOF 8
ENDMDL
MODEL 6
REMARK VINA RESULT:      -7.1      4.360      5.955
REMARK  Name = 353163
REMARK  10 active torsions:
REMARK  status: ('A' for Active; 'I' for Inactive)
REMARK    1  A    between atoms: C_6  and  C_10
REMARK    2  A    between atoms: C_12  and  N_16
REMARK    3  A    between atoms: C_14  and  O_19
REMARK    4  A    between atoms: N_16  and  C_21
REMARK    5  A    between atoms: N_18  and  C_23
REMARK    6  A    between atoms: C_21  and  C_25
REMARK    7  A    between atoms: C_23  and  C_27
REMARK    8  A    between atoms: C_27  and  C_31
REMARK    9  A    between atoms: C_31  and  C_32
REMARK   10  A    between atoms: C_31  and  C_33
REMARK                            x       y       z     vdW  Elec       q    Type
REMARK                         _______ _______ _______ _____ _____    ______ ____
ROOT
ATOM      1  S   UNL     1     -11.965  55.046  51.211  0.00  0.00    +0.000 S 
ATOM      2  O   UNL     1     -11.010  55.487  52.209  0.00  0.00    +0.000 OA
ATOM      3  O   UNL     1     -13.031  54.132  51.568  0.00  0.00    +0.000 OA
ATOM      4  N   UNL     1     -11.124  54.377  49.996  0.00  0.00    +0.000 N 
ATOM      5  C   UNL     1     -12.740  56.491  50.602  0.00  0.00    +0.000 A 
ATOM      6  C   UNL     1     -11.037  54.958  48.837  0.00  0.00    +0.000 C 
ATOM      7  C   UNL     1     -12.469  56.879  49.304  0.00  0.00    +0.000 A 
ATOM      8  C   UNL     1     -13.623  57.201  51.418  0.00  0.00    +0.000 A 
ATOM      9  N   UNL     1     -11.569  56.182  48.508  0.00  0.00    +0.000 N 
ATOM     10  C   UNL     1     -13.059  58.051  48.831  0.00  0.00    +0.000 A 
ATOM     11  C   UNL     1     -14.262  58.341  50.926  0.00  0.00    +0.000 A 
ATOM     12  C   UNL     1     -13.951  58.769  49.631  0.00  0.00    +0.000 A 
ATOM     13  H   UNL     1     -10.674  53.513  50.138  0.00  0.00    +0.000 HD
ATOM     14  H   UNL     1     -11.296  56.590  47.655  0.00  0.00    +0.000 HD
ENDROOT
BRANCH   6  15
ATOM     15  C   UNL     1     -10.301  54.195  47.760  0.00  0.00    +0.000 A 
ATOM     16  C   UNL     1      -8.950  53.623  48.060  0.00  0.00    +0.000 A 
ATOM     17  C   UNL     1     -10.857  54.005  46.551  0.00  0.00    +0.000 A 
ATOM     18  O   UNL     1      -8.510  53.717  49.209  0.00  0.00    +0.000 OA
ATOM     19  N   UNL     1      -8.258  53.006  47.039  0.00  0.00    +0.000 N 
ATOM     20  C   UNL     1     -10.105  53.322  45.497  0.00  0.00    +0.000 A 
ATOM     21  C   UNL     1      -8.807  52.864  45.741  0.00  0.00    +0.000 A 
ATOM     22  C   UNL     1     -10.631  53.150  44.212  0.00  0.00    +0.000 A 
ATOM     23  N   UNL     1      -8.050  52.277  44.783  0.00  0.00    +0.000 NA
ATOM     24  C   UNL     1      -9.862  52.555  43.221  0.00  0.00    +0.000 A 
ATOM     25  C   UNL     1      -8.587  52.143  43.552  0.00  0.00    +0.000 A 
BRANCH  17  26
ATOM     26  O   UNL     1     -12.120  54.435  46.185  0.00  0.00    +0.000 OA
ATOM     27  H   UNL     1     -12.599  53.973  45.526  0.00  0.00    +0.000 HD
ENDBRANCH  17  26
BRANCH  19  28
ATOM     28  C   UNL     1      -6.896  52.520  47.281  0.00  0.00    +0.000 C 
BRANCH  28  29
ATOM     29  C   UNL     1      -5.862  53.649  47.168  0.00  0.00    +0.000 C 
BRANCH  29  30
ATOM     30  C   UNL     1      -4.959  53.811  48.407  0.00  0.00    +0.000 C 
ATOM     31  C   UNL     1      -5.289  55.064  49.218  0.00  0.00    +0.000 C 
ATOM     32  C   UNL     1      -5.095  52.575  49.303  0.00  0.00    +0.000 C 
ENDBRANCH  29  30
ENDBRANCH  28  29
ENDBRANCH  19  28
ENDBRANCH   6  15
BRANCH  11  33
ATOM     33  N   UNL     1     -15.148  59.001  51.772  0.00  0.00    +0.000 N 
ATOM     34  H   UNL     1     -15.701  59.740  51.433  0.00  0.00    +0.000 HD
BRANCH  33  35
ATOM     35  C   UNL     1     -15.250  58.587  53.172  0.00  0.00    +0.000 C 
BRANCH  35  36
ATOM     36  C   UNL     1     -15.922  59.619  53.985  0.00  0.00    +0.000 C 
ATOM     37  N   UNL     1     -16.462  60.421  54.627  0.00  0.00    +0.000 NA
ENDBRANCH  35  36
ENDBRANCH  33  35
ENDBRANCH  11  33
TORSDOF 8
ENDMDL
MODEL 7
REMARK VINA RESULT:      -6.7      3.521      8.763
REMARK  Name = 353163
REMARK  10 active torsions:
REMARK  status: ('A' for Active; 'I' for Inactive)
REMARK    1  A    between atoms: C_6  and  C_10
REMARK    2  A    between atoms: C_12  and  N_16
REMARK    3  A    between atoms: C_14  and  O_19
REMARK    4  A    between atoms: N_16  and  C_21
REMARK    5  A    between atoms: N_18  and  C_23
REMARK    6  A    between atoms: C_21  and  C_25
REMARK    7  A    between atoms: C_23  and  C_27
REMARK    8  A    between atoms: C_27  and  C_31
REMARK    9  A    between atoms: C_31  and  C_32
REMARK   10  A    between atoms: C_31  and  C_33
REMARK                            x       y       z     vdW  Elec       q    Type
REMARK                         _______ _______ _______ _____ _____    ______ ____
ROOT
ATOM      1  S   UNL     1      -7.683  55.289  53.084  0.00  0.00    +0.000 S 
ATOM      2  O   UNL     1      -8.232  55.477  54.413  0.00  0.00    +0.000 OA
ATOM      3  O   UNL     1      -6.484  55.996  52.678  0.00  0.00    +0.000 OA
ATOM      4  N   UNL     1      -8.852  55.645  52.019  0.00  0.00    +0.000 N 
ATOM      5  C   UNL     1      -7.319  53.584  52.941  0.00  0.00    +0.000 A 
ATOM      6  C   UNL     1      -9.416  54.718  51.303  0.00  0.00    +0.000 C 
ATOM      7  C   UNL     1      -8.087  52.824  52.079  0.00  0.00    +0.000 A 
ATOM      8  C   UNL     1      -6.262  53.036  53.669  0.00  0.00    +0.000 A 
ATOM      9  N   UNL     1      -9.153  53.371  51.378  0.00  0.00    +0.000 N 
ATOM     10  C   UNL     1      -7.820  51.457  51.993  0.00  0.00    +0.000 A 
ATOM     11  C   UNL     1      -5.955  51.680  53.539  0.00  0.00    +0.000 A 
ATOM     12  C   UNL     1      -6.760  50.894  52.709  0.00  0.00    +0.000 A 
ATOM     13  H   UNL     1      -9.140  56.580  51.911  0.00  0.00    +0.000 HD
ATOM     14  H   UNL     1      -9.759  52.756  50.905  0.00  0.00    +0.000 HD
ENDROOT
BRANCH   6  15
ATOM     15  C   UNL     1     -10.429  55.185  50.283  0.00  0.00    +0.000 A 
ATOM     16  C   UNL     1     -10.151  54.978  48.826  0.00  0.00    +0.000 A 
ATOM     17  C   UNL     1     -11.582  55.756  50.672  0.00  0.00    +0.000 A 
ATOM     18  O   UNL     1      -9.137  54.353  48.500  0.00  0.00    +0.000 OA
ATOM     19  N   UNL     1     -11.046  55.488  47.910  0.00  0.00    +0.000 N 
ATOM     20  C   UNL     1     -12.522  56.264  49.671  0.00  0.00    +0.000 A 
ATOM     21  C   UNL     1     -12.229  56.157  48.309  0.00  0.00    +0.000 A 
ATOM     22  C   UNL     1     -13.709  56.909  50.039  0.00  0.00    +0.000 A 
ATOM     23  N   UNL     1     -13.040  56.660  47.348  0.00  0.00    +0.000 NA
ATOM     24  C   UNL     1     -14.544  57.434  49.062  0.00  0.00    +0.000 A 
ATOM     25  C   UNL     1     -14.167  57.289  47.742  0.00  0.00    +0.000 A 
BRANCH  17  26
ATOM     26  O   UNL     1     -11.968  55.942  51.987  0.00  0.00    +0.000 OA
ATOM     27  H   UNL     1     -12.875  55.912  52.217  0.00  0.00    +0.000 HD
ENDBRANCH  17  26
BRANCH  19  28
ATOM     28  C   UNL     1     -10.751  55.382  46.477  0.00  0.00    +0.000 C 
BRANCH  28  29
ATOM     29  C   UNL     1     -11.071  53.982  45.934  0.00  0.00    +0.000 C 
BRANCH  29  30
ATOM     30  C   UNL     1     -10.027  53.430  44.944  0.00  0.00    +0.000 C 
ATOM     31  C   UNL     1      -9.011  52.503  45.612  0.00  0.00    +0.000 C 
ATOM     32  C   UNL     1     -10.739  52.676  43.817  0.00  0.00    +0.000 C 
ENDBRANCH  29  30
ENDBRANCH  28  29
ENDBRANCH  19  28
ENDBRANCH   6  15
BRANCH  11  33
ATOM     33  N   UNL     1      -4.879  51.188  54.272  0.00  0.00    +0.000 N 
ATOM     34  H   UNL     1      -4.941  51.105  55.250  0.00  0.00    +0.000 HD
BRANCH  33  35
ATOM     35  C   UNL     1      -3.653  50.795  53.576  0.00  0.00    +0.000 C 
BRANCH  35  36
ATOM     36  C   UNL     1      -3.452  51.600  52.355  0.00  0.00    +0.000 C 
ATOM     37  N   UNL     1      -3.300  52.223  51.387  0.00  0.00    +0.000 NA
ENDBRANCH  35  36
ENDBRANCH  33  35
ENDBRANCH  11  33
TORSDOF 8
ENDMDL
MODEL 8
REMARK VINA RESULT:      -6.7      3.580      8.835
REMARK  Name = 353163
REMARK  10 active torsions:
REMARK  status: ('A' for Active; 'I' for Inactive)
REMARK    1  A    between atoms: C_6  and  C_10
REMARK    2  A    between atoms: C_12  and  N_16
REMARK    3  A    between atoms: C_14  and  O_19
REMARK    4  A    between atoms: N_16  and  C_21
REMARK    5  A    between atoms: N_18  and  C_23
REMARK    6  A    between atoms: C_21  and  C_25
REMARK    7  A    between atoms: C_23  and  C_27
REMARK    8  A    between atoms: C_27  and  C_31
REMARK    9  A    between atoms: C_31  and  C_32
REMARK   10  A    between atoms: C_31  and  C_33
REMARK                            x       y       z     vdW  Elec       q    Type
REMARK                         _______ _______ _______ _____ _____    ______ ____
ROOT
ATOM      1  S   UNL     1      -9.453  53.209  53.077  0.00  0.00    +0.000 S 
ATOM      2  O   UNL     1      -9.999  51.913  53.429  0.00  0.00    +0.000 OA
ATOM      3  O   UNL     1      -9.246  54.220  54.095  0.00  0.00    +0.000 OA
ATOM      4  N   UNL     1     -10.411  53.846  51.934  0.00  0.00    +0.000 N 
ATOM      5  C   UNL     1      -7.885  52.903  52.363  0.00  0.00    +0.000 A 
ATOM      6  C   UNL     1     -10.002  53.970  50.706  0.00  0.00    +0.000 C 
ATOM      7  C   UNL     1      -7.728  53.138  51.010  0.00  0.00    +0.000 A 
ATOM      8  C   UNL     1      -6.833  52.459  53.165  0.00  0.00    +0.000 A 
ATOM      9  N   UNL     1      -8.788  53.555  50.215  0.00  0.00    +0.000 N 
ATOM     10  C   UNL     1      -6.488  52.860  50.435  0.00  0.00    +0.000 A 
ATOM     11  C   UNL     1      -5.574  52.237  52.602  0.00  0.00    +0.000 A 
ATOM     12  C   UNL     1      -5.422  52.422  51.224  0.00  0.00    +0.000 A 
ATOM     13  H   UNL     1     -11.317  54.145  52.174  0.00  0.00    +0.000 HD
ATOM     14  H   UNL     1      -8.660  53.553  49.239  0.00  0.00    +0.000 HD
ENDROOT
BRANCH   6  15
ATOM     15  C   UNL     1     -10.952  54.659  49.752  0.00  0.00    +0.000 A 
ATOM     16  C   UNL     1     -11.114  54.120  48.364  0.00  0.00    +0.000 A 
ATOM     17  C   UNL     1     -11.665  55.728  50.145  0.00  0.00    +0.000 A 
ATOM     18  O   UNL     1     -10.531  53.074  48.063  0.00  0.00    +0.000 OA
ATOM     19  N   UNL     1     -11.917  54.813  47.483  0.00  0.00    +0.000 N 
ATOM     20  C   UNL     1     -12.529  56.424  49.190  0.00  0.00    +0.000 A 
ATOM     21  C   UNL     1     -12.618  55.982  47.867  0.00  0.00    +0.000 A 
ATOM     22  C   UNL     1     -13.249  57.569  49.549  0.00  0.00    +0.000 A 
ATOM     23  N   UNL     1     -13.359  56.624  46.933  0.00  0.00    +0.000 NA
ATOM     24  C   UNL     1     -14.007  58.239  48.598  0.00  0.00    +0.000 A 
ATOM     25  C   UNL     1     -14.026  57.735  47.314  0.00  0.00    +0.000 A 
BRANCH  17  26
ATOM     26  O   UNL     1     -11.639  56.271  51.417  0.00  0.00    +0.000 OA
ATOM     27  H   UNL     1     -10.819  56.463  51.827  0.00  0.00    +0.000 HD
ENDBRANCH  17  26
BRANCH  19  28
ATOM     28  C   UNL     1     -12.020  54.360  46.092  0.00  0.00    +0.000 C 
BRANCH  28  29
ATOM     29  C   UNL     1     -10.638  54.188  45.447  0.00  0.00    +0.000 C 
BRANCH  29  30
ATOM     30  C   UNL     1     -10.551  53.036  44.426  0.00  0.00    +0.000 C 
ATOM     31  C   UNL     1      -9.158  52.411  44.358  0.00  0.00    +0.000 C 
ATOM     32  C   UNL     1     -11.576  51.955  44.786  0.00  0.00    +0.000 C 
ENDBRANCH  29  30
ENDBRANCH  28  29
ENDBRANCH  19  28
ENDBRANCH   6  15
BRANCH  11  33
ATOM     33  N   UNL     1      -4.553  51.814  53.448  0.00  0.00    +0.000 N 
ATOM     34  H   UNL     1      -4.670  51.009  54.002  0.00  0.00    +0.000 HD
BRANCH  33  35
ATOM     35  C   UNL     1      -3.305  52.575  53.507  0.00  0.00    +0.000 C 
BRANCH  35  36
ATOM     36  C   UNL     1      -3.563  53.997  53.805  0.00  0.00    +0.000 C 
ATOM     37  N   UNL     1      -3.772  55.112  54.052  0.00  0.00    +0.000 NA
ENDBRANCH  35  36
ENDBRANCH  33  35
ENDBRANCH  11  33
TORSDOF 8
ENDMDL
MODEL 9
REMARK VINA RESULT:      -6.6      4.176      5.929
REMARK  Name = 353163
REMARK  10 active torsions:
REMARK  status: ('A' for Active; 'I' for Inactive)
REMARK    1  A    between atoms: C_6  and  C_10
REMARK    2  A    between atoms: C_12  and  N_16
REMARK    3  A    between atoms: C_14  and  O_19
REMARK    4  A    between atoms: N_16  and  C_21
REMARK    5  A    between atoms: N_18  and  C_23
REMARK    6  A    between atoms: C_21  and  C_25
REMARK    7  A    between atoms: C_23  and  C_27
REMARK    8  A    between atoms: C_27  and  C_31
REMARK    9  A    between atoms: C_31  and  C_32
REMARK   10  A    between atoms: C_31  and  C_33
REMARK                            x       y       z     vdW  Elec       q    Type
REMARK                         _______ _______ _______ _____ _____    ______ ____
ROOT
ATOM      1  S   UNL     1     -13.887  57.321  48.829  0.00  0.00    +0.000 S 
ATOM      2  O   UNL     1     -15.092  56.609  48.452  0.00  0.00    +0.000 OA
ATOM      3  O   UNL     1     -13.607  58.633  48.278  0.00  0.00    +0.000 OA
ATOM      4  N   UNL     1     -12.626  56.361  48.486  0.00  0.00    +0.000 N 
ATOM      5  C   UNL     1     -13.959  57.523  50.565  0.00  0.00    +0.000 A 
ATOM      6  C   UNL     1     -11.920  55.814  49.430  0.00  0.00    +0.000 C 
ATOM      7  C   UNL     1     -13.063  56.813  51.341  0.00  0.00    +0.000 A 
ATOM      8  C   UNL     1     -14.889  58.401  51.123  0.00  0.00    +0.000 A 
ATOM      9  N   UNL     1     -12.159  55.921  50.780  0.00  0.00    +0.000 N 
ATOM     10  C   UNL     1     -13.145  56.947  52.728  0.00  0.00    +0.000 A 
ATOM     11  C   UNL     1     -14.932  58.582  52.507  0.00  0.00    +0.000 A 
ATOM     12  C   UNL     1     -14.065  57.827  53.303  0.00  0.00    +0.000 A 
ATOM     13  H   UNL     1     -12.390  56.190  47.546  0.00  0.00    +0.000 HD
ATOM     14  H   UNL     1     -11.657  55.330  51.386  0.00  0.00    +0.000 HD
ENDROOT
BRANCH   6  15
ATOM     15  C   UNL     1     -10.718  55.011  48.987  0.00  0.00    +0.000 A 
ATOM     16  C   UNL     1     -10.927  53.688  48.319  0.00  0.00    +0.000 A 
ATOM     17  C   UNL     1      -9.473  55.485  49.164  0.00  0.00    +0.000 A 
ATOM     18  O   UNL     1     -12.081  53.326  48.070  0.00  0.00    +0.000 OA
ATOM     19  N   UNL     1      -9.818  52.932  48.001  0.00  0.00    +0.000 N 
ATOM     20  C   UNL     1      -8.317  54.667  48.791  0.00  0.00    +0.000 A 
ATOM     21  C   UNL     1      -8.501  53.392  48.250  0.00  0.00    +0.000 A 
ATOM     22  C   UNL     1      -7.006  55.106  49.006  0.00  0.00    +0.000 A 
ATOM     23  N   UNL     1      -7.466  52.575  47.940  0.00  0.00    +0.000 NA
ATOM     24  C   UNL     1      -5.937  54.275  48.699  0.00  0.00    +0.000 A 
ATOM     25  C   UNL     1      -6.216  53.028  48.177  0.00  0.00    +0.000 A 
BRANCH  17  26
ATOM     26  O   UNL     1      -9.166  56.717  49.714  0.00  0.00    +0.000 OA
ATOM     27  H   UNL     1      -9.747  57.442  49.591  0.00  0.00    +0.000 HD
ENDBRANCH  17  26
BRANCH  19  28
ATOM     28  C   UNL     1      -9.996  51.593  47.431  0.00  0.00    +0.000 C 
BRANCH  28  29
ATOM     29  C   UNL     1      -9.809  51.595  45.908  0.00  0.00    +0.000 C 
BRANCH  29  30
ATOM     30  C   UNL     1     -11.116  51.431  45.107  0.00  0.00    +0.000 C 
ATOM     31  C   UNL     1     -12.186  50.653  45.875  0.00  0.00    +0.000 C 
ATOM     32  C   UNL     1     -11.663  52.812  44.731  0.00  0.00    +0.000 C 
ENDBRANCH  29  30
ENDBRANCH  28  29
ENDBRANCH  19  28
ENDBRANCH   6  15
BRANCH  11  33
ATOM     33  N   UNL     1     -15.864  59.484  53.012  0.00  0.00    +0.000 N 
ATOM     34  H   UNL     1     -16.423  60.015  52.400  0.00  0.00    +0.000 HD
BRANCH  33  35
ATOM     35  C   UNL     1     -16.006  59.638  54.460  0.00  0.00    +0.000 C 
BRANCH  35  36
ATOM     36  C   UNL     1     -16.897  60.767  54.791  0.00  0.00    +0.000 C 
ATOM     37  N   UNL     1     -17.591  61.663  55.042  0.00  0.00    +0.000 NA
ENDBRANCH  35  36
ENDBRANCH  33  35
ENDBRANCH  11  33
TORSDOF 8
ENDMDL
