MODEL 1
REMARK VINA RESULT:      -7.9      0.000      0.000
REMARK  Name = 353224
REMARK  10 active torsions:
REMARK  status: ('A' for Active; 'I' for Inactive)
REMARK    1  A    between atoms: C_6  and  C_10
REMARK    2  A    between atoms: C_12  and  N_16
REMARK    3  A    between atoms: C_14  and  O_19
REMARK    4  A    between atoms: N_16  and  S_21
REMARK    5  A    between atoms: N_18  and  C_23
REMARK    6  A    between atoms: S_21  and  C_27
REMARK    7  A    between atoms: C_23  and  C_29
REMARK    8  A    between atoms: C_29  and  C_34
REMARK    9  A    between atoms: C_34  and  C_37
REMARK   10  A    between atoms: C_34  and  C_38
REMARK                            x       y       z     vdW  Elec       q    Type
REMARK                         _______ _______ _______ _____ _____    ______ ____
ROOT
ATOM      1  S   UNL     1      -9.636  55.989  49.956  0.00  0.00    +0.000 S 
ATOM      2  O   UNL     1      -8.954  57.267  49.996  0.00  0.00    +0.000 OA
ATOM      3  O   UNL     1     -10.219  55.428  51.157  0.00  0.00    +0.000 OA
ATOM      4  N   UNL     1      -8.601  54.900  49.350  0.00  0.00    +0.000 N 
ATOM      5  C   UNL     1     -10.963  56.173  48.823  0.00  0.00    +0.000 A 
ATOM      6  C   UNL     1      -8.755  54.413  48.154  0.00  0.00    +0.000 C 
ATOM      7  C   UNL     1     -10.864  55.515  47.606  0.00  0.00    +0.000 A 
ATOM      8  C   UNL     1     -12.074  56.950  49.167  0.00  0.00    +0.000 A 
ATOM      9  N   UNL     1      -9.743  54.766  47.267  0.00  0.00    +0.000 N 
ATOM     10  C   UNL     1     -11.892  55.682  46.676  0.00  0.00    +0.000 A 
ATOM     11  C   UNL     1     -13.094  57.085  48.234  0.00  0.00    +0.000 A 
ATOM     12  C   UNL     1     -13.011  56.447  46.996  0.00  0.00    +0.000 A 
ATOM     13  H   UNL     1      -7.840  54.601  49.899  0.00  0.00    +0.000 HD
ATOM     14  H   UNL     1      -9.650  54.470  46.332  0.00  0.00    +0.000 HD
ENDROOT
BRANCH   6  15
ATOM     15  C   UNL     1      -7.769  53.340  47.735  0.00  0.00    +0.000 A 
ATOM     16  C   UNL     1      -8.272  52.099  47.060  0.00  0.00    +0.000 A 
ATOM     17  C   UNL     1      -6.450  53.499  47.943  0.00  0.00    +0.000 A 
ATOM     18  O   UNL     1      -9.471  52.030  46.778  0.00  0.00    +0.000 OA
ATOM     19  N   UNL     1      -7.373  51.090  46.789  0.00  0.00    +0.000 N 
ATOM     20  C   UNL     1      -5.517  52.423  47.602  0.00  0.00    +0.000 A 
ATOM     21  C   UNL     1      -5.990  51.222  47.068  0.00  0.00    +0.000 A 
ATOM     22  C   UNL     1      -4.144  52.537  47.847  0.00  0.00    +0.000 A 
ATOM     23  N   UNL     1      -5.175  50.174  46.796  0.00  0.00    +0.000 NA
ATOM     24  C   UNL     1      -3.300  51.469  47.575  0.00  0.00    +0.000 A 
ATOM     25  C   UNL     1      -3.859  50.317  47.059  0.00  0.00    +0.000 A 
BRANCH  17  26
ATOM     26  O   UNL     1      -5.868  54.626  48.496  0.00  0.00    +0.000 OA
ATOM     27  H   UNL     1      -5.116  54.542  49.047  0.00  0.00    +0.000 HD
ENDBRANCH  17  26
BRANCH  19  28
ATOM     28  C   UNL     1      -7.855  49.818  46.235  0.00  0.00    +0.000 C 
BRANCH  28  29
ATOM     29  C   UNL     1      -7.775  49.802  44.702  0.00  0.00    +0.000 C 
BRANCH  29  30
ATOM     30  C   UNL     1      -9.135  49.653  43.995  0.00  0.00    +0.000 C 
ATOM     31  C   UNL     1     -10.232  49.130  44.925  0.00  0.00    +0.000 C 
ATOM     32  C   UNL     1      -9.565  51.008  43.419  0.00  0.00    +0.000 C 
ENDBRANCH  29  30
ENDBRANCH  28  29
ENDBRANCH  19  28
ENDBRANCH   6  15
BRANCH  11  33
ATOM     33  N   UNL     1     -14.223  57.896  48.484  0.00  0.00    +0.000 N 
ATOM     34  H   UNL     1     -15.094  57.673  48.081  0.00  0.00    +0.000 HD
BRANCH  33  35
ATOM     35  S   UNL     1     -14.073  59.245  49.478  0.00  0.00    +0.000 S 
ATOM     36  O   UNL     1     -12.651  59.471  49.630  0.00  0.00    +0.000 OA
ATOM     37  O   UNL     1     -14.949  60.289  48.993  0.00  0.00    +0.000 OA
BRANCH  35  38
ATOM     38  C   UNL     1     -14.704  58.656  51.032  0.00  0.00    +0.000 A 
ATOM     39  C   UNL     1     -14.735  59.502  52.143  0.00  0.00    +0.000 A 
ATOM     40  C   UNL     1     -15.171  57.340  51.122  0.00  0.00    +0.000 A 
ATOM     41  C   UNL     1     -15.208  59.010  53.362  0.00  0.00    +0.000 A 
ATOM     42  C   UNL     1     -15.629  56.853  52.344  0.00  0.00    +0.000 A 
ATOM     43  C   UNL     1     -15.646  57.687  53.463  0.00  0.00    +0.000 A 
ENDBRANCH  35  38
ENDBRANCH  33  35
ENDBRANCH  11  33
TORSDOF 8
ENDMDL
MODEL 2
REMARK VINA RESULT:      -7.8      3.355      4.914
REMARK  Name = 353224
REMARK  10 active torsions:
REMARK  status: ('A' for Active; 'I' for Inactive)
REMARK    1  A    between atoms: C_6  and  C_10
REMARK    2  A    between atoms: C_12  and  N_16
REMARK    3  A    between atoms: C_14  and  O_19
REMARK    4  A    between atoms: N_16  and  S_21
REMARK    5  A    between atoms: N_18  and  C_23
REMARK    6  A    between atoms: S_21  and  C_27
REMARK    7  A    between atoms: C_23  and  C_29
REMARK    8  A    between atoms: C_29  and  C_34
REMARK    9  A    between atoms: C_34  and  C_37
REMARK   10  A    between atoms: C_34  and  C_38
REMARK                            x       y       z     vdW  Elec       q    Type
REMARK                         _______ _______ _______ _____ _____    ______ ____
ROOT
ATOM      1  S   UNL     1      -9.081  54.473  47.556  0.00  0.00    +0.000 S 
ATOM      2  O   UNL     1      -9.485  53.780  46.349  0.00  0.00    +0.000 OA
ATOM      3  O   UNL     1      -8.496  55.796  47.486  0.00  0.00    +0.000 OA
ATOM      4  N   UNL     1      -8.044  53.512  48.348  0.00  0.00    +0.000 N 
ATOM      5  C   UNL     1     -10.527  54.643  48.536  0.00  0.00    +0.000 A 
ATOM      6  C   UNL     1      -8.384  52.910  49.449  0.00  0.00    +0.000 C 
ATOM      7  C   UNL     1     -10.616  53.874  49.688  0.00  0.00    +0.000 A 
ATOM      8  C   UNL     1     -11.531  55.537  48.153  0.00  0.00    +0.000 A 
ATOM      9  N   UNL     1      -9.622  52.969  50.043  0.00  0.00    +0.000 N 
ATOM     10  C   UNL     1     -11.777  53.965  50.458  0.00  0.00    +0.000 A 
ATOM     11  C   UNL     1     -12.667  55.627  48.946  0.00  0.00    +0.000 A 
ATOM     12  C   UNL     1     -12.788  54.853  50.100  0.00  0.00    +0.000 A 
ATOM     13  H   UNL     1      -7.136  53.382  47.988  0.00  0.00    +0.000 HD
ATOM     14  H   UNL     1      -9.817  52.330  50.767  0.00  0.00    +0.000 HD
ENDROOT
BRANCH   6  15
ATOM     15  C   UNL     1      -7.299  52.108  50.139  0.00  0.00    +0.000 A 
ATOM     16  C   UNL     1      -7.149  52.196  51.628  0.00  0.00    +0.000 A 
ATOM     17  C   UNL     1      -6.485  51.303  49.432  0.00  0.00    +0.000 A 
ATOM     18  O   UNL     1      -7.979  52.851  52.263  0.00  0.00    +0.000 OA
ATOM     19  N   UNL     1      -6.086  51.547  52.220  0.00  0.00    +0.000 N 
ATOM     20  C   UNL     1      -5.393  50.593  50.101  0.00  0.00    +0.000 A 
ATOM     21  C   UNL     1      -5.183  50.751  51.472  0.00  0.00    +0.000 A 
ATOM     22  C   UNL     1      -4.500  49.783  49.389  0.00  0.00    +0.000 A 
ATOM     23  N   UNL     1      -4.149  50.166  52.124  0.00  0.00    +0.000 NA
ATOM     24  C   UNL     1      -3.436  49.181  50.046  0.00  0.00    +0.000 A 
ATOM     25  C   UNL     1      -3.301  49.404  51.401  0.00  0.00    +0.000 A 
BRANCH  17  26
ATOM     26  O   UNL     1      -6.572  51.094  48.068  0.00  0.00    +0.000 OA
ATOM     27  H   UNL     1      -6.274  51.753  47.473  0.00  0.00    +0.000 HD
ENDBRANCH  17  26
BRANCH  19  28
ATOM     28  C   UNL     1      -5.847  51.710  53.659  0.00  0.00    +0.000 C 
BRANCH  28  29
ATOM     29  C   UNL     1      -4.697  52.690  53.934  0.00  0.00    +0.000 C 
BRANCH  29  30
ATOM     30  C   UNL     1      -5.074  54.175  53.772  0.00  0.00    +0.000 C 
ATOM     31  C   UNL     1      -6.123  54.634  54.786  0.00  0.00    +0.000 C 
ATOM     32  C   UNL     1      -3.818  55.041  53.916  0.00  0.00    +0.000 C 
ENDBRANCH  29  30
ENDBRANCH  28  29
ENDBRANCH  19  28
ENDBRANCH   6  15
BRANCH  11  33
ATOM     33  N   UNL     1     -13.748  56.467  48.598  0.00  0.00    +0.000 N 
ATOM     34  H   UNL     1     -14.517  56.105  48.100  0.00  0.00    +0.000 HD
BRANCH  33  35
ATOM     35  S   UNL     1     -13.714  58.090  49.040  0.00  0.00    +0.000 S 
ATOM     36  O   UNL     1     -12.316  58.441  49.163  0.00  0.00    +0.000 OA
ATOM     37  O   UNL     1     -14.600  58.835  48.171  0.00  0.00    +0.000 OA
BRANCH  35  38
ATOM     38  C   UNL     1     -14.418  58.063  50.673  0.00  0.00    +0.000 A 
ATOM     39  C   UNL     1     -14.188  59.123  51.554  0.00  0.00    +0.000 A 
ATOM     40  C   UNL     1     -15.206  56.972  51.057  0.00  0.00    +0.000 A 
ATOM     41  C   UNL     1     -14.727  59.068  52.842  0.00  0.00    +0.000 A 
ATOM     42  C   UNL     1     -15.728  56.919  52.347  0.00  0.00    +0.000 A 
ATOM     43  C   UNL     1     -15.487  57.964  53.239  0.00  0.00    +0.000 A 
ENDBRANCH  35  38
ENDBRANCH  33  35
ENDBRANCH  11  33
TORSDOF 8
ENDMDL
MODEL 3
REMARK VINA RESULT:      -7.6      3.114      3.877
REMARK  Name = 353224
REMARK  10 active torsions:
REMARK  status: ('A' for Active; 'I' for Inactive)
REMARK    1  A    between atoms: C_6  and  C_10
REMARK    2  A    between atoms: C_12  and  N_16
REMARK    3  A    between atoms: C_14  and  O_19
REMARK    4  A    between atoms: N_16  and  S_21
REMARK    5  A    between atoms: N_18  and  C_23
REMARK    6  A    between atoms: S_21  and  C_27
REMARK    7  A    between atoms: C_23  and  C_29
REMARK    8  A    between atoms: C_29  and  C_34
REMARK    9  A    between atoms: C_34  and  C_37
REMARK   10  A    between atoms: C_34  and  C_38
REMARK                            x       y       z     vdW  Elec       q    Type
REMARK                         _______ _______ _______ _____ _____    ______ ____
ROOT
ATOM      1  S   UNL     1     -10.735  53.958  52.367  0.00  0.00    +0.000 S 
ATOM      2  O   UNL     1     -10.599  55.096  53.254  0.00  0.00    +0.000 OA
ATOM      3  O   UNL     1     -11.806  53.001  52.555  0.00  0.00    +0.000 OA
ATOM      4  N   UNL     1      -9.333  53.147  52.394  0.00  0.00    +0.000 N 
ATOM      5  C   UNL     1     -10.958  54.612  50.754  0.00  0.00    +0.000 A 
ATOM      6  C   UNL     1      -8.522  53.161  51.377  0.00  0.00    +0.000 C 
ATOM      7  C   UNL     1      -9.914  54.467  49.853  0.00  0.00    +0.000 A 
ATOM      8  C   UNL     1     -12.161  55.239  50.414  0.00  0.00    +0.000 A 
ATOM      9  N   UNL     1      -8.714  53.865  50.212  0.00  0.00    +0.000 N 
ATOM     10  C   UNL     1     -10.057  55.018  48.578  0.00  0.00    +0.000 A 
ATOM     11  C   UNL     1     -12.290  55.759  49.132  0.00  0.00    +0.000 A 
ATOM     12  C   UNL     1     -11.248  55.642  48.213  0.00  0.00    +0.000 A 
ATOM     13  H   UNL     1      -9.089  52.631  53.197  0.00  0.00    +0.000 HD
ATOM     14  H   UNL     1      -7.952  53.947  49.593  0.00  0.00    +0.000 HD
ENDROOT
BRANCH   6  15
ATOM     15  C   UNL     1      -7.284  52.296  51.493  0.00  0.00    +0.000 A 
ATOM     16  C   UNL     1      -6.908  51.389  50.359  0.00  0.00    +0.000 A 
ATOM     17  C   UNL     1      -6.509  52.348  52.590  0.00  0.00    +0.000 A 
ATOM     18  O   UNL     1      -7.570  51.445  49.320  0.00  0.00    +0.000 OA
ATOM     19  N   UNL     1      -5.844  50.530  50.531  0.00  0.00    +0.000 N 
ATOM     20  C   UNL     1      -5.359  51.451  52.721  0.00  0.00    +0.000 A 
ATOM     21  C   UNL     1      -5.063  50.531  51.713  0.00  0.00    +0.000 A 
ATOM     22  C   UNL     1      -4.558  51.447  53.869  0.00  0.00    +0.000 A 
ATOM     23  N   UNL     1      -4.049  49.638  51.816  0.00  0.00    +0.000 NA
ATOM     24  C   UNL     1      -3.518  50.535  53.986  0.00  0.00    +0.000 A 
ATOM     25  C   UNL     1      -3.308  49.655  52.944  0.00  0.00    +0.000 A 
BRANCH  17  26
ATOM     26  O   UNL     1      -6.721  53.190  53.667  0.00  0.00    +0.000 OA
ATOM     27  H   UNL     1      -6.215  53.973  53.756  0.00  0.00    +0.000 HD
ENDBRANCH  17  26
BRANCH  19  28
ATOM     28  C   UNL     1      -5.525  49.551  49.484  0.00  0.00    +0.000 C 
BRANCH  28  29
ATOM     29  C   UNL     1      -4.269  49.952  48.698  0.00  0.00    +0.000 C 
BRANCH  29  30
ATOM     30  C   UNL     1      -4.555  50.617  47.338  0.00  0.00    +0.000 C 
ATOM     31  C   UNL     1      -5.904  50.203  46.748  0.00  0.00    +0.000 C 
ATOM     32  C   UNL     1      -4.517  52.142  47.495  0.00  0.00    +0.000 C 
ENDBRANCH  29  30
ENDBRANCH  28  29
ENDBRANCH  19  28
ENDBRANCH   6  15
BRANCH  11  33
ATOM     33  N   UNL     1     -13.452  56.454  48.730  0.00  0.00    +0.000 N 
ATOM     34  H   UNL     1     -14.166  55.984  48.240  0.00  0.00    +0.000 HD
BRANCH  33  35
ATOM     35  S   UNL     1     -13.609  58.090  49.092  0.00  0.00    +0.000 S 
ATOM     36  O   UNL     1     -12.261  58.597  49.235  0.00  0.00    +0.000 OA
ATOM     37  O   UNL     1     -14.542  58.691  48.164  0.00  0.00    +0.000 OA
BRANCH  35  38
ATOM     38  C   UNL     1     -14.358  58.060  50.704  0.00  0.00    +0.000 A 
ATOM     39  C   UNL     1     -15.073  56.937  51.126  0.00  0.00    +0.000 A 
ATOM     40  C   UNL     1     -14.216  59.173  51.541  0.00  0.00    +0.000 A 
ATOM     41  C   UNL     1     -15.677  56.946  52.385  0.00  0.00    +0.000 A 
ATOM     42  C   UNL     1     -14.833  59.179  52.790  0.00  0.00    +0.000 A 
ATOM     43  C   UNL     1     -15.564  58.068  53.211  0.00  0.00    +0.000 A 
ENDBRANCH  35  38
ENDBRANCH  33  35
ENDBRANCH  11  33
TORSDOF 8
ENDMDL
MODEL 4
REMARK VINA RESULT:      -7.4      3.830      9.226
REMARK  Name = 353224
REMARK  10 active torsions:
REMARK  status: ('A' for Active; 'I' for Inactive)
REMARK    1  A    between atoms: C_6  and  C_10
REMARK    2  A    between atoms: C_12  and  N_16
REMARK    3  A    between atoms: C_14  and  O_19
REMARK    4  A    between atoms: N_16  and  S_21
REMARK    5  A    between atoms: N_18  and  C_23
REMARK    6  A    between atoms: S_21  and  C_27
REMARK    7  A    between atoms: C_23  and  C_29
REMARK    8  A    between atoms: C_29  and  C_34
REMARK    9  A    between atoms: C_34  and  C_37
REMARK   10  A    between atoms: C_34  and  C_38
REMARK                            x       y       z     vdW  Elec       q    Type
REMARK                         _______ _______ _______ _____ _____    ______ ____
ROOT
ATOM      1  S   UNL     1      -8.183  55.292  52.997  0.00  0.00    +0.000 S 
ATOM      2  O   UNL     1      -8.807  55.454  54.295  0.00  0.00    +0.000 OA
ATOM      3  O   UNL     1      -6.948  55.980  52.682  0.00  0.00    +0.000 OA
ATOM      4  N   UNL     1      -9.278  55.695  51.873  0.00  0.00    +0.000 N 
ATOM      5  C   UNL     1      -7.831  53.581  52.829  0.00  0.00    +0.000 A 
ATOM      6  C   UNL     1      -9.837  54.796  51.119  0.00  0.00    +0.000 C 
ATOM      7  C   UNL     1      -8.590  52.856  51.921  0.00  0.00    +0.000 A 
ATOM      8  C   UNL     1      -6.809  52.999  53.585  0.00  0.00    +0.000 A 
ATOM      9  N   UNL     1      -9.620  53.441  51.195  0.00  0.00    +0.000 N 
ATOM     10  C   UNL     1      -8.352  51.485  51.804  0.00  0.00    +0.000 A 
ATOM     11  C   UNL     1      -6.576  51.638  53.436  0.00  0.00    +0.000 A 
ATOM     12  C   UNL     1      -7.336  50.883  52.542  0.00  0.00    +0.000 A 
ATOM     13  H   UNL     1      -9.524  56.642  51.758  0.00  0.00    +0.000 HD
ATOM     14  H   UNL     1     -10.233  52.848  50.702  0.00  0.00    +0.000 HD
ENDROOT
BRANCH   6  15
ATOM     15  C   UNL     1     -10.781  55.309  50.050  0.00  0.00    +0.000 A 
ATOM     16  C   UNL     1     -10.514  54.983  48.611  0.00  0.00    +0.000 A 
ATOM     17  C   UNL     1     -11.865  56.034  50.380  0.00  0.00    +0.000 A 
ATOM     18  O   UNL     1      -9.580  54.222  48.346  0.00  0.00    +0.000 OA
ATOM     19  N   UNL     1     -11.320  55.552  47.648  0.00  0.00    +0.000 N 
ATOM     20  C   UNL     1     -12.725  56.588  49.332  0.00  0.00    +0.000 A 
ATOM     21  C   UNL     1     -12.424  56.374  47.985  0.00  0.00    +0.000 A 
ATOM     22  C   UNL     1     -13.834  57.384  49.638  0.00  0.00    +0.000 A 
ATOM     23  N   UNL     1     -13.152  56.918  46.980  0.00  0.00    +0.000 NA
ATOM     24  C   UNL     1     -14.587  57.948  48.617  0.00  0.00    +0.000 A 
ATOM     25  C   UNL     1     -14.206  57.692  47.315  0.00  0.00    +0.000 A 
BRANCH  17  26
ATOM     26  O   UNL     1     -12.245  56.341  51.674  0.00  0.00    +0.000 OA
ATOM     27  H   UNL     1     -13.153  56.370  51.901  0.00  0.00    +0.000 HD
ENDBRANCH  17  26
BRANCH  19  28
ATOM     28  C   UNL     1     -11.011  55.344  46.228  0.00  0.00    +0.000 C 
BRANCH  28  29
ATOM     29  C   UNL     1     -11.818  54.179  45.638  0.00  0.00    +0.000 C 
BRANCH  29  30
ATOM     30  C   UNL     1     -11.019  52.874  45.468  0.00  0.00    +0.000 C 
ATOM     31  C   UNL     1     -11.910  51.668  45.165  0.00  0.00    +0.000 C 
ATOM     32  C   UNL     1      -9.996  53.043  44.338  0.00  0.00    +0.000 C 
ENDBRANCH  29  30
ENDBRANCH  28  29
ENDBRANCH  19  28
ENDBRANCH   6  15
BRANCH  11  33
ATOM     33  N   UNL     1      -5.598  50.966  54.202  0.00  0.00    +0.000 N 
ATOM     34  H   UNL     1      -5.854  50.490  55.026  0.00  0.00    +0.000 HD
BRANCH  33  35
ATOM     35  S   UNL     1      -3.992  50.984  53.700  0.00  0.00    +0.000 S 
ATOM     36  O   UNL     1      -3.526  52.339  53.901  0.00  0.00    +0.000 OA
ATOM     37  O   UNL     1      -3.300  49.858  54.290  0.00  0.00    +0.000 OA
BRANCH  35  38
ATOM     38  C   UNL     1      -4.130  50.706  51.949  0.00  0.00    +0.000 A 
ATOM     39  C   UNL     1      -4.041  51.779  51.059  0.00  0.00    +0.000 A 
ATOM     40  C   UNL     1      -4.322  49.401  51.480  0.00  0.00    +0.000 A 
ATOM     41  C   UNL     1      -4.180  51.542  49.689  0.00  0.00    +0.000 A 
ATOM     42  C   UNL     1      -4.473  49.176  50.114  0.00  0.00    +0.000 A 
ATOM     43  C   UNL     1      -4.405  50.245  49.220  0.00  0.00    +0.000 A 
ENDBRANCH  35  38
ENDBRANCH  33  35
ENDBRANCH  11  33
TORSDOF 8
ENDMDL
MODEL 5
REMARK VINA RESULT:      -7.3      1.268      3.188
REMARK  Name = 353224
REMARK  10 active torsions:
REMARK  status: ('A' for Active; 'I' for Inactive)
REMARK    1  A    between atoms: C_6  and  C_10
REMARK    2  A    between atoms: C_12  and  N_16
REMARK    3  A    between atoms: C_14  and  O_19
REMARK    4  A    between atoms: N_16  and  S_21
REMARK    5  A    between atoms: N_18  and  C_23
REMARK    6  A    between atoms: S_21  and  C_27
REMARK    7  A    between atoms: C_23  and  C_29
REMARK    8  A    between atoms: C_29  and  C_34
REMARK    9  A    between atoms: C_34  and  C_37
REMARK   10  A    between atoms: C_34  and  C_38
REMARK                            x       y       z     vdW  Elec       q    Type
REMARK                         _______ _______ _______ _____ _____    ______ ____
ROOT
ATOM      1  S   UNL     1      -9.906  55.478  50.083  0.00  0.00    +0.000 S 
ATOM      2  O   UNL     1      -9.131  56.672  50.349  0.00  0.00    +0.000 OA
ATOM      3  O   UNL     1     -10.667  54.843  51.139  0.00  0.00    +0.000 OA
ATOM      4  N   UNL     1      -8.901  54.370  49.460  0.00  0.00    +0.000 N 
ATOM      5  C   UNL     1     -11.075  55.912  48.848  0.00  0.00    +0.000 A 
ATOM      6  C   UNL     1      -8.955  54.036  48.205  0.00  0.00    +0.000 C 
ATOM      7  C   UNL     1     -10.891  55.387  47.577  0.00  0.00    +0.000 A 
ATOM      8  C   UNL     1     -12.150  56.748  49.165  0.00  0.00    +0.000 A 
ATOM      9  N   UNL     1      -9.803  54.579  47.269  0.00  0.00    +0.000 N 
ATOM     10  C   UNL     1     -11.787  55.755  46.571  0.00  0.00    +0.000 A 
ATOM     11  C   UNL     1     -13.042  57.082  48.154  0.00  0.00    +0.000 A 
ATOM     12  C   UNL     1     -12.869  56.581  46.864  0.00  0.00    +0.000 A 
ATOM     13  H   UNL     1      -8.235  53.940  50.045  0.00  0.00    +0.000 HD
ATOM     14  H   UNL     1      -9.628  54.382  46.320  0.00  0.00    +0.000 HD
ENDROOT
BRANCH   6  15
ATOM     15  C   UNL     1      -8.019  52.929  47.763  0.00  0.00    +0.000 A 
ATOM     16  C   UNL     1      -6.643  52.847  48.354  0.00  0.00    +0.000 A 
ATOM     17  C   UNL     1      -8.416  52.010  46.866  0.00  0.00    +0.000 A 
ATOM     18  O   UNL     1      -6.346  53.631  49.258  0.00  0.00    +0.000 OA
ATOM     19  N   UNL     1      -5.772  51.902  47.857  0.00  0.00    +0.000 N 
ATOM     20  C   UNL     1      -7.476  50.992  46.391  0.00  0.00    +0.000 A 
ATOM     21  C   UNL     1      -6.161  50.972  46.861  0.00  0.00    +0.000 A 
ATOM     22  C   UNL     1      -7.842  50.049  45.425  0.00  0.00    +0.000 A 
ATOM     23  N   UNL     1      -5.238  50.091  46.406  0.00  0.00    +0.000 NA
ATOM     24  C   UNL     1      -6.904  49.142  44.949  0.00  0.00    +0.000 A 
ATOM     25  C   UNL     1      -5.625  49.206  45.463  0.00  0.00    +0.000 A 
BRANCH  17  26
ATOM     26  O   UNL     1      -9.679  51.949  46.304  0.00  0.00    +0.000 OA
ATOM     27  H   UNL     1      -9.784  52.041  45.378  0.00  0.00    +0.000 HD
ENDBRANCH  17  26
BRANCH  19  28
ATOM     28  C   UNL     1      -4.383  51.873  48.334  0.00  0.00    +0.000 C 
BRANCH  28  29
ATOM     29  C   UNL     1      -4.286  51.310  49.759  0.00  0.00    +0.000 C 
BRANCH  29  30
ATOM     30  C   UNL     1      -4.185  49.774  49.831  0.00  0.00    +0.000 C 
ATOM     31  C   UNL     1      -3.311  49.291  50.989  0.00  0.00    +0.000 C 
ATOM     32  C   UNL     1      -5.589  49.174  49.972  0.00  0.00    +0.000 C 
ENDBRANCH  29  30
ENDBRANCH  28  29
ENDBRANCH  19  28
ENDBRANCH   6  15
BRANCH  11  33
ATOM     33  N   UNL     1     -14.122  57.963  48.382  0.00  0.00    +0.000 N 
ATOM     34  H   UNL     1     -14.977  57.832  47.911  0.00  0.00    +0.000 HD
BRANCH  33  35
ATOM     35  S   UNL     1     -13.940  59.238  49.465  0.00  0.00    +0.000 S 
ATOM     36  O   UNL     1     -12.514  59.408  49.643  0.00  0.00    +0.000 OA
ATOM     37  O   UNL     1     -14.779  60.339  49.044  0.00  0.00    +0.000 OA
BRANCH  35  38
ATOM     38  C   UNL     1     -14.604  58.566  50.971  0.00  0.00    +0.000 A 
ATOM     39  C   UNL     1     -14.427  59.243  52.180  0.00  0.00    +0.000 A 
ATOM     40  C   UNL     1     -15.309  57.357  50.925  0.00  0.00    +0.000 A 
ATOM     41  C   UNL     1     -14.932  58.683  53.356  0.00  0.00    +0.000 A 
ATOM     42  C   UNL     1     -15.798  56.800  52.104  0.00  0.00    +0.000 A 
ATOM     43  C   UNL     1     -15.608  57.461  53.318  0.00  0.00    +0.000 A 
ENDBRANCH  35  38
ENDBRANCH  33  35
ENDBRANCH  11  33
TORSDOF 8
ENDMDL
MODEL 6
REMARK VINA RESULT:      -7.2      2.184      2.670
REMARK  Name = 353224
REMARK  10 active torsions:
REMARK  status: ('A' for Active; 'I' for Inactive)
REMARK    1  A    between atoms: C_6  and  C_10
REMARK    2  A    between atoms: C_12  and  N_16
REMARK    3  A    between atoms: C_14  and  O_19
REMARK    4  A    between atoms: N_16  and  S_21
REMARK    5  A    between atoms: N_18  and  C_23
REMARK    6  A    between atoms: S_21  and  C_27
REMARK    7  A    between atoms: C_23  and  C_29
REMARK    8  A    between atoms: C_29  and  C_34
REMARK    9  A    between atoms: C_34  and  C_37
REMARK   10  A    between atoms: C_34  and  C_38
REMARK                            x       y       z     vdW  Elec       q    Type
REMARK                         _______ _______ _______ _____ _____    ______ ____
ROOT
ATOM      1  S   UNL     1      -9.852  53.612  52.027  0.00  0.00    +0.000 S 
ATOM      2  O   UNL     1      -9.241  54.750  52.683  0.00  0.00    +0.000 OA
ATOM      3  O   UNL     1     -10.398  52.519  52.805  0.00  0.00    +0.000 OA
ATOM      4  N   UNL     1      -8.762  52.995  51.000  0.00  0.00    +0.000 N 
ATOM      5  C   UNL     1     -11.193  54.244  51.088  0.00  0.00    +0.000 A 
ATOM      6  C   UNL     1      -8.894  53.126  49.713  0.00  0.00    +0.000 C 
ATOM      7  C   UNL     1     -11.064  54.248  49.706  0.00  0.00    +0.000 A 
ATOM      8  C   UNL     1     -12.343  54.708  51.734  0.00  0.00    +0.000 A 
ATOM      9  N   UNL     1      -9.905  53.808  49.078  0.00  0.00    +0.000 N 
ATOM     10  C   UNL     1     -12.103  54.785  48.944  0.00  0.00    +0.000 A 
ATOM     11  C   UNL     1     -13.373  55.217  50.955  0.00  0.00    +0.000 A 
ATOM     12  C   UNL     1     -13.261  55.248  49.565  0.00  0.00    +0.000 A 
ATOM     13  H   UNL     1      -7.983  52.509  51.357  0.00  0.00    +0.000 HD
ATOM     14  H   UNL     1      -9.801  53.996  48.117  0.00  0.00    +0.000 HD
ENDROOT
BRANCH   6  15
ATOM     15  C   UNL     1      -7.853  52.432  48.857  0.00  0.00    +0.000 A 
ATOM     16  C   UNL     1      -8.288  51.669  47.641  0.00  0.00    +0.000 A 
ATOM     17  C   UNL     1      -6.547  52.512  49.164  0.00  0.00    +0.000 A 
ATOM     18  O   UNL     1      -9.477  51.707  47.318  0.00  0.00    +0.000 OA
ATOM     19  N   UNL     1      -7.339  50.954  46.942  0.00  0.00    +0.000 N 
ATOM     20  C   UNL     1      -5.560  51.774  48.372  0.00  0.00    +0.000 A 
ATOM     21  C   UNL     1      -5.967  50.977  47.300  0.00  0.00    +0.000 A 
ATOM     22  C   UNL     1      -4.198  51.798  48.691  0.00  0.00    +0.000 A 
ATOM     23  N   UNL     1      -5.100  50.226  46.579  0.00  0.00    +0.000 NA
ATOM     24  C   UNL     1      -3.300  51.031  47.960  0.00  0.00    +0.000 A 
ATOM     25  C   UNL     1      -3.796  50.265  46.926  0.00  0.00    +0.000 A 
BRANCH  17  26
ATOM     26  O   UNL     1      -6.027  53.238  50.220  0.00  0.00    +0.000 OA
ATOM     27  H   UNL     1      -5.141  53.541  50.189  0.00  0.00    +0.000 HD
ENDBRANCH  17  26
BRANCH  19  28
ATOM     28  C   UNL     1      -7.752  50.105  45.818  0.00  0.00    +0.000 C 
BRANCH  28  29
ATOM     29  C   UNL     1      -7.831  50.900  44.507  0.00  0.00    +0.000 C 
BRANCH  29  30
ATOM     30  C   UNL     1      -9.188  50.804  43.785  0.00  0.00    +0.000 C 
ATOM     31  C   UNL     1     -10.167  49.860  44.486  0.00  0.00    +0.000 C 
ATOM     32  C   UNL     1      -9.815  52.199  43.683  0.00  0.00    +0.000 C 
ENDBRANCH  29  30
ENDBRANCH  28  29
ENDBRANCH  19  28
ENDBRANCH   6  15
BRANCH  11  33
ATOM     33  N   UNL     1     -14.544  55.754  51.535  0.00  0.00    +0.000 N 
ATOM     34  H   UNL     1     -15.411  55.303  51.411  0.00  0.00    +0.000 HD
BRANCH  33  35
ATOM     35  S   UNL     1     -14.449  57.170  52.440  0.00  0.00    +0.000 S 
ATOM     36  O   UNL     1     -15.723  57.299  53.113  0.00  0.00    +0.000 OA
ATOM     37  O   UNL     1     -13.206  57.174  53.181  0.00  0.00    +0.000 OA
BRANCH  35  38
ATOM     38  C   UNL     1     -14.361  58.427  51.186  0.00  0.00    +0.000 A 
ATOM     39  C   UNL     1     -13.213  58.558  50.401  0.00  0.00    +0.000 A 
ATOM     40  C   UNL     1     -15.458  59.276  50.995  0.00  0.00    +0.000 A 
ATOM     41  C   UNL     1     -13.154  59.571  49.442  0.00  0.00    +0.000 A 
ATOM     42  C   UNL     1     -15.386  60.292  50.045  0.00  0.00    +0.000 A 
ATOM     43  C   UNL     1     -14.235  60.441  49.271  0.00  0.00    +0.000 A 
ENDBRANCH  35  38
ENDBRANCH  33  35
ENDBRANCH  11  33
TORSDOF 8
ENDMDL
MODEL 7
REMARK VINA RESULT:      -7.2      3.702     10.003
REMARK  Name = 353224
REMARK  10 active torsions:
REMARK  status: ('A' for Active; 'I' for Inactive)
REMARK    1  A    between atoms: C_6  and  C_10
REMARK    2  A    between atoms: C_12  and  N_16
REMARK    3  A    between atoms: C_14  and  O_19
REMARK    4  A    between atoms: N_16  and  S_21
REMARK    5  A    between atoms: N_18  and  C_23
REMARK    6  A    between atoms: S_21  and  C_27
REMARK    7  A    between atoms: C_23  and  C_29
REMARK    8  A    between atoms: C_29  and  C_34
REMARK    9  A    between atoms: C_34  and  C_37
REMARK   10  A    between atoms: C_34  and  C_38
REMARK                            x       y       z     vdW  Elec       q    Type
REMARK                         _______ _______ _______ _____ _____    ______ ____
ROOT
ATOM      1  S   UNL     1      -8.997  53.013  52.993  0.00  0.00    +0.000 S 
ATOM      2  O   UNL     1      -9.718  52.199  53.950  0.00  0.00    +0.000 OA
ATOM      3  O   UNL     1      -7.910  53.867  53.424  0.00  0.00    +0.000 OA
ATOM      4  N   UNL     1     -10.081  53.939  52.223  0.00  0.00    +0.000 N 
ATOM      5  C   UNL     1      -8.298  51.904  51.827  0.00  0.00    +0.000 A 
ATOM      6  C   UNL     1     -10.401  53.717  50.982  0.00  0.00    +0.000 C 
ATOM      7  C   UNL     1      -8.839  51.890  50.549  0.00  0.00    +0.000 A 
ATOM      8  C   UNL     1      -7.227  51.084  52.196  0.00  0.00    +0.000 A 
ATOM      9  N   UNL     1      -9.920  52.692  50.203  0.00  0.00    +0.000 N 
ATOM     10  C   UNL     1      -8.323  50.985  49.620  0.00  0.00    +0.000 A 
ATOM     11  C   UNL     1      -6.716  50.206  51.248  0.00  0.00    +0.000 A 
ATOM     12  C   UNL     1      -7.253  50.161  49.962  0.00  0.00    +0.000 A 
ATOM     13  H   UNL     1     -10.506  54.686  52.704  0.00  0.00    +0.000 HD
ATOM     14  H   UNL     1     -10.371  52.515  49.345  0.00  0.00    +0.000 HD
ENDROOT
BRANCH   6  15
ATOM     15  C   UNL     1     -11.363  54.703  50.350  0.00  0.00    +0.000 A 
ATOM     16  C   UNL     1     -12.430  55.337  51.193  0.00  0.00    +0.000 A 
ATOM     17  C   UNL     1     -11.257  55.031  49.051  0.00  0.00    +0.000 A 
ATOM     18  O   UNL     1     -12.433  55.107  52.404  0.00  0.00    +0.000 OA
ATOM     19  N   UNL     1     -13.361  56.143  50.574  0.00  0.00    +0.000 N 
ATOM     20  C   UNL     1     -12.240  55.926  48.435  0.00  0.00    +0.000 A 
ATOM     21  C   UNL     1     -13.296  56.439  49.190  0.00  0.00    +0.000 A 
ATOM     22  C   UNL     1     -12.185  56.252  47.076  0.00  0.00    +0.000 A 
ATOM     23  N   UNL     1     -14.265  57.219  48.652  0.00  0.00    +0.000 NA
ATOM     24  C   UNL     1     -13.174  57.048  46.513  0.00  0.00    +0.000 A 
ATOM     25  C   UNL     1     -14.187  57.499  47.334  0.00  0.00    +0.000 A 
BRANCH  17  26
ATOM     26  O   UNL     1     -10.277  54.560  48.195  0.00  0.00    +0.000 OA
ATOM     27  H   UNL     1     -10.305  54.778  47.285  0.00  0.00    +0.000 HD
ENDBRANCH  17  26
BRANCH  19  28
ATOM     28  C   UNL     1     -14.484  56.683  51.352  0.00  0.00    +0.000 C 
BRANCH  28  29
ATOM     29  C   UNL     1     -13.998  57.596  52.487  0.00  0.00    +0.000 C 
BRANCH  29  30
ATOM     30  C   UNL     1     -14.511  59.046  52.400  0.00  0.00    +0.000 C 
ATOM     31  C   UNL     1     -15.129  59.376  51.041  0.00  0.00    +0.000 C 
ATOM     32  C   UNL     1     -15.549  59.289  53.502  0.00  0.00    +0.000 C 
ENDBRANCH  29  30
ENDBRANCH  28  29
ENDBRANCH  19  28
ENDBRANCH   6  15
BRANCH  11  33
ATOM     33  N   UNL     1      -5.671  49.308  51.560  0.00  0.00    +0.000 N 
ATOM     34  H   UNL     1      -5.876  48.413  51.916  0.00  0.00    +0.000 HD
BRANCH  33  35
ATOM     35  S   UNL     1      -4.073  49.777  51.317  0.00  0.00    +0.000 S 
ATOM     36  O   UNL     1      -3.302  49.107  52.342  0.00  0.00    +0.000 OA
ATOM     37  O   UNL     1      -3.745  49.630  49.916  0.00  0.00    +0.000 OA
BRANCH  35  38
ATOM     38  C   UNL     1      -4.114  51.512  51.708  0.00  0.00    +0.000 A 
ATOM     39  C   UNL     1      -4.312  52.455  50.696  0.00  0.00    +0.000 A 
ATOM     40  C   UNL     1      -3.949  51.914  53.038  0.00  0.00    +0.000 A 
ATOM     41  C   UNL     1      -4.312  53.813  51.021  0.00  0.00    +0.000 A 
ATOM     42  C   UNL     1      -3.937  53.271  53.351  0.00  0.00    +0.000 A 
ATOM     43  C   UNL     1      -4.116  54.219  52.344  0.00  0.00    +0.000 A 
ENDBRANCH  35  38
ENDBRANCH  33  35
ENDBRANCH  11  33
TORSDOF 8
ENDMDL
MODEL 8
REMARK VINA RESULT:      -7.2      2.485      3.957
REMARK  Name = 353224
REMARK  10 active torsions:
REMARK  status: ('A' for Active; 'I' for Inactive)
REMARK    1  A    between atoms: C_6  and  C_10
REMARK    2  A    between atoms: C_12  and  N_16
REMARK    3  A    between atoms: C_14  and  O_19
REMARK    4  A    between atoms: N_16  and  S_21
REMARK    5  A    between atoms: N_18  and  C_23
REMARK    6  A    between atoms: S_21  and  C_27
REMARK    7  A    between atoms: C_23  and  C_29
REMARK    8  A    between atoms: C_29  and  C_34
REMARK    9  A    between atoms: C_34  and  C_37
REMARK   10  A    between atoms: C_34  and  C_38
REMARK                            x       y       z     vdW  Elec       q    Type
REMARK                         _______ _______ _______ _____ _____    ______ ____
ROOT
ATOM      1  S   UNL     1      -9.092  55.967  50.458  0.00  0.00    +0.000 S 
ATOM      2  O   UNL     1      -8.437  57.227  50.171  0.00  0.00    +0.000 OA
ATOM      3  O   UNL     1      -9.763  55.757  51.725  0.00  0.00    +0.000 OA
ATOM      4  N   UNL     1      -7.992  54.791  50.278  0.00  0.00    +0.000 N 
ATOM      5  C   UNL     1     -10.324  55.757  49.226  0.00  0.00    +0.000 A 
ATOM      6  C   UNL     1      -8.037  53.970  49.271  0.00  0.00    +0.000 C 
ATOM      7  C   UNL     1     -10.112  54.776  48.267  0.00  0.00    +0.000 A 
ATOM      8  C   UNL     1     -11.472  56.554  49.242  0.00  0.00    +0.000 A 
ATOM      9  N   UNL     1      -8.954  54.008  48.248  0.00  0.00    +0.000 N 
ATOM     10  C   UNL     1     -11.062  54.623  47.255  0.00  0.00    +0.000 A 
ATOM     11  C   UNL     1     -12.414  56.369  48.237  0.00  0.00    +0.000 A 
ATOM     12  C   UNL     1     -12.217  55.401  47.252  0.00  0.00    +0.000 A 
ATOM     13  H   UNL     1      -7.274  54.696  50.946  0.00  0.00    +0.000 HD
ATOM     14  H   UNL     1      -8.779  53.456  47.451  0.00  0.00    +0.000 HD
ENDROOT
BRANCH   6  15
ATOM     15  C   UNL     1      -7.002  52.862  49.260  0.00  0.00    +0.000 A 
ATOM     16  C   UNL     1      -6.668  52.153  50.538  0.00  0.00    +0.000 A 
ATOM     17  C   UNL     1      -6.397  52.498  48.116  0.00  0.00    +0.000 A 
ATOM     18  O   UNL     1      -7.318  52.428  51.549  0.00  0.00    +0.000 OA
ATOM     19  N   UNL     1      -5.645  51.229  50.527  0.00  0.00    +0.000 N 
ATOM     20  C   UNL     1      -5.344  51.480  48.134  0.00  0.00    +0.000 A 
ATOM     21  C   UNL     1      -4.955  50.887  49.337  0.00  0.00    +0.000 A 
ATOM     22  C   UNL     1      -4.663  51.109  46.969  0.00  0.00    +0.000 A 
ATOM     23  N   UNL     1      -3.944  49.988  49.413  0.00  0.00    +0.000 NA
ATOM     24  C   UNL     1      -3.624  50.191  47.036  0.00  0.00    +0.000 A 
ATOM     25  C   UNL     1      -3.301  49.667  48.271  0.00  0.00    +0.000 A 
BRANCH  17  26
ATOM     26  O   UNL     1      -6.671  53.036  46.872  0.00  0.00    +0.000 OA
ATOM     27  H   UNL     1      -6.466  52.553  46.096  0.00  0.00    +0.000 HD
ENDBRANCH  17  26
BRANCH  19  28
ATOM     28  C   UNL     1      -5.219  50.603  51.785  0.00  0.00    +0.000 C 
BRANCH  28  29
ATOM     29  C   UNL     1      -4.027  51.342  52.409  0.00  0.00    +0.000 C 
BRANCH  29  30
ATOM     30  C   UNL     1      -4.373  52.153  53.673  0.00  0.00    +0.000 C 
ATOM     31  C   UNL     1      -4.480  53.654  53.403  0.00  0.00    +0.000 C 
ATOM     32  C   UNL     1      -5.696  51.648  54.260  0.00  0.00    +0.000 C 
ENDBRANCH  29  30
ENDBRANCH  28  29
ENDBRANCH  19  28
ENDBRANCH   6  15
BRANCH  11  33
ATOM     33  N   UNL     1     -13.573  57.171  48.153  0.00  0.00    +0.000 N 
ATOM     34  H   UNL     1     -14.318  56.906  47.566  0.00  0.00    +0.000 HD
BRANCH  33  35
ATOM     35  S   UNL     1     -13.675  58.582  49.064  0.00  0.00    +0.000 S 
ATOM     36  O   UNL     1     -12.313  58.940  49.398  0.00  0.00    +0.000 OA
ATOM     37  O   UNL     1     -14.551  59.516  48.391  0.00  0.00    +0.000 OA
BRANCH  35  38
ATOM     38  C   UNL     1     -14.477  58.028  50.551  0.00  0.00    +0.000 A 
ATOM     39  C   UNL     1     -14.181  58.632  51.775  0.00  0.00    +0.000 A 
ATOM     40  C   UNL     1     -15.408  56.985  50.475  0.00  0.00    +0.000 A 
ATOM     41  C   UNL     1     -14.801  58.162  52.935  0.00  0.00    +0.000 A 
ATOM     42  C   UNL     1     -16.011  56.514  51.638  0.00  0.00    +0.000 A 
ATOM     43  C   UNL     1     -15.706  57.100  52.867  0.00  0.00    +0.000 A 
ENDBRANCH  35  38
ENDBRANCH  33  35
ENDBRANCH  11  33
TORSDOF 8
ENDMDL
MODEL 9
REMARK VINA RESULT:      -7.1      2.315      3.931
REMARK  Name = 353224
REMARK  10 active torsions:
REMARK  status: ('A' for Active; 'I' for Inactive)
REMARK    1  A    between atoms: C_6  and  C_10
REMARK    2  A    between atoms: C_12  and  N_16
REMARK    3  A    between atoms: C_14  and  O_19
REMARK    4  A    between atoms: N_16  and  S_21
REMARK    5  A    between atoms: N_18  and  C_23
REMARK    6  A    between atoms: S_21  and  C_27
REMARK    7  A    between atoms: C_23  and  C_29
REMARK    8  A    between atoms: C_29  and  C_34
REMARK    9  A    between atoms: C_34  and  C_37
REMARK   10  A    between atoms: C_34  and  C_38
REMARK                            x       y       z     vdW  Elec       q    Type
REMARK                         _______ _______ _______ _____ _____    ______ ____
ROOT
ATOM      1  S   UNL     1      -9.071  55.658  50.031  0.00  0.00    +0.000 S 
ATOM      2  O   UNL     1      -8.954  56.993  49.479  0.00  0.00    +0.000 OA
ATOM      3  O   UNL     1      -8.366  55.298  51.243  0.00  0.00    +0.000 OA
ATOM      4  N   UNL     1      -8.638  54.611  48.873  0.00  0.00    +0.000 N 
ATOM      5  C   UNL     1     -10.773  55.415  50.380  0.00  0.00    +0.000 A 
ATOM      6  C   UNL     1      -9.516  53.860  48.276  0.00  0.00    +0.000 C 
ATOM      7  C   UNL     1     -11.474  54.528  49.575  0.00  0.00    +0.000 A 
ATOM      8  C   UNL     1     -11.373  56.095  51.445  0.00  0.00    +0.000 A 
ATOM      9  N   UNL     1     -10.871  53.879  48.503  0.00  0.00    +0.000 N 
ATOM     10  C   UNL     1     -12.839  54.353  49.812  0.00  0.00    +0.000 A 
ATOM     11  C   UNL     1     -12.727  55.888  51.675  0.00  0.00    +0.000 A 
ATOM     12  C   UNL     1     -13.458  55.014  50.870  0.00  0.00    +0.000 A 
ATOM     13  H   UNL     1      -7.690  54.540  48.617  0.00  0.00    +0.000 HD
ATOM     14  H   UNL     1     -11.452  53.403  47.866  0.00  0.00    +0.000 HD
ENDROOT
BRANCH   6  15
ATOM     15  C   UNL     1      -8.975  52.862  47.272  0.00  0.00    +0.000 A 
ATOM     16  C   UNL     1      -8.062  51.767  47.738  0.00  0.00    +0.000 A 
ATOM     17  C   UNL     1      -9.321  52.936  45.975  0.00  0.00    +0.000 A 
ATOM     18  O   UNL     1      -7.853  51.654  48.948  0.00  0.00    +0.000 OA
ATOM     19  N   UNL     1      -7.493  50.941  46.793  0.00  0.00    +0.000 N 
ATOM     20  C   UNL     1      -8.730  52.013  45.003  0.00  0.00    +0.000 A 
ATOM     21  C   UNL     1      -7.800  51.056  45.414  0.00  0.00    +0.000 A 
ATOM     22  C   UNL     1      -9.033  52.090  43.639  0.00  0.00    +0.000 A 
ATOM     23  N   UNL     1      -7.179  50.222  44.545  0.00  0.00    +0.000 NA
ATOM     24  C   UNL     1      -8.401  51.243  42.739  0.00  0.00    +0.000 A 
ATOM     25  C   UNL     1      -7.486  50.337  43.235  0.00  0.00    +0.000 A 
BRANCH  17  26
ATOM     26  O   UNL     1     -10.202  53.860  45.444  0.00  0.00    +0.000 OA
ATOM     27  H   UNL     1     -10.106  54.770  45.646  0.00  0.00    +0.000 HD
ENDBRANCH  17  26
BRANCH  19  28
ATOM     28  C   UNL     1      -6.506  49.935  47.208  0.00  0.00    +0.000 C 
BRANCH  28  29
ATOM     29  C   UNL     1      -5.084  50.513  47.228  0.00  0.00    +0.000 C 
BRANCH  29  30
ATOM     30  C   UNL     1      -4.421  50.523  48.619  0.00  0.00    +0.000 C 
ATOM     31  C   UNL     1      -4.436  51.906  49.272  0.00  0.00    +0.000 C 
ATOM     32  C   UNL     1      -5.136  49.522  49.535  0.00  0.00    +0.000 C 
ENDBRANCH  29  30
ENDBRANCH  28  29
ENDBRANCH  19  28
ENDBRANCH   6  15
BRANCH  11  33
ATOM     33  N   UNL     1     -13.417  56.577  52.697  0.00  0.00    +0.000 N 
ATOM     34  H   UNL     1     -13.050  56.607  53.610  0.00  0.00    +0.000 HD
BRANCH  33  35
ATOM     35  S   UNL     1     -14.870  57.349  52.343  0.00  0.00    +0.000 S 
ATOM     36  O   UNL     1     -15.792  56.303  51.953  0.00  0.00    +0.000 OA
ATOM     37  O   UNL     1     -15.190  58.268  53.414  0.00  0.00    +0.000 OA
BRANCH  35  38
ATOM     38  C   UNL     1     -14.466  58.293  50.891  0.00  0.00    +0.000 A 
ATOM     39  C   UNL     1     -14.066  59.626  51.009  0.00  0.00    +0.000 A 
ATOM     40  C   UNL     1     -14.550  57.679  49.636  0.00  0.00    +0.000 A 
ATOM     41  C   UNL     1     -13.781  60.357  49.854  0.00  0.00    +0.000 A 
ATOM     42  C   UNL     1     -14.277  58.419  48.488  0.00  0.00    +0.000 A 
ATOM     43  C   UNL     1     -13.895  59.757  48.597  0.00  0.00    +0.000 A 
ENDBRANCH  35  38
ENDBRANCH  33  35
ENDBRANCH  11  33
TORSDOF 8
ENDMDL
