MODEL 1
REMARK VINA RESULT:      -8.5      0.000      0.000
REMARK  Name = 352789
REMARK  6 active torsions:
REMARK  status: ('A' for Active; 'I' for Inactive)
REMARK    1  A    between atoms: C_6  and  C_10
REMARK    2  A    between atoms: C_12  and  O_16
REMARK    3  A    between atoms: C_14  and  O_19
REMARK    4  A    between atoms: O_16  and  C_21
REMARK    5  A    between atoms: N_18  and  C_23
REMARK    6  A    between atoms: C_23  and  C_26
REMARK                            x       y       z     vdW  Elec       q    Type
REMARK                         _______ _______ _______ _____ _____    ______ ____
ROOT
ATOM      1  C   UNL     1     -10.458  55.064  50.515  0.00  0.00    +0.000 A 
ATOM      2  C   UNL     1     -10.116  55.083  49.066  0.00  0.00    +0.000 A 
ATOM      3  C   UNL     1     -11.590  55.646  50.950  0.00  0.00    +0.000 A 
ATOM      4  O   UNL     1      -9.013  54.659  48.713  0.00  0.00    +0.000 OA
ATOM      5  N   UNL     1     -11.071  55.552  48.181  0.00  0.00    +0.000 N 
ATOM      6  C   UNL     1     -12.478  56.318  50.001  0.00  0.00    +0.000 A 
ATOM      7  C   UNL     1     -12.242  56.218  48.627  0.00  0.00    +0.000 A 
ATOM      8  C   UNL     1     -13.576  57.073  50.433  0.00  0.00    +0.000 A 
ATOM      9  N   UNL     1     -13.055  56.795  47.711  0.00  0.00    +0.000 NA
ATOM     10  C   UNL     1     -14.393  57.699  49.503  0.00  0.00    +0.000 A 
ATOM     11  C   UNL     1     -14.101  57.523  48.164  0.00  0.00    +0.000 A 
ENDROOT
BRANCH   1  17
ATOM     12  S   UNL     1      -7.259  54.755  52.800  0.00  0.00    +0.000 S 
ATOM     13  O   UNL     1      -7.536  55.880  53.666  0.00  0.00    +0.000 OA
ATOM     14  O   UNL     1      -5.923  54.476  52.321  0.00  0.00    +0.000 OA
ATOM     15  N   UNL     1      -8.235  54.856  51.481  0.00  0.00    +0.000 N 
ATOM     16  C   UNL     1      -7.859  53.321  53.583  0.00  0.00    +0.000 A 
ATOM     17  C   UNL     1      -9.560  54.436  51.516  0.00  0.00    +0.000 C 
ATOM     18  C   UNL     1      -9.147  52.911  53.264  0.00  0.00    +0.000 A 
ATOM     19  C   UNL     1      -7.045  52.623  54.482  0.00  0.00    +0.000 A 
ATOM     20  N   UNL     1     -10.009  53.580  52.383  0.00  0.00    +0.000 N 
ATOM     21  C   UNL     1      -9.619  51.743  53.865  0.00  0.00    +0.000 A 
ATOM     22  C   UNL     1      -7.537  51.471  55.088  0.00  0.00    +0.000 A 
ATOM     23  C   UNL     1      -8.822  51.028  54.767  0.00  0.00    +0.000 A 
ATOM     24  H   UNL     1      -7.873  55.224  50.643  0.00  0.00    +0.000 HD
ATOM     25  H   UNL     1     -10.976  53.397  52.423  0.00  0.00    +0.000 HD
BRANCH  22  26
ATOM     26  O   UNL     1      -6.870  50.698  55.997  0.00  0.00    +0.000 OA
ATOM     27  C   UNL     1      -7.671  49.920  56.879  0.00  0.00    +0.000 C 
ENDBRANCH  22  26
ENDBRANCH   1  17
BRANCH   3  28
ATOM     28  O   UNL     1     -12.008  55.681  52.271  0.00  0.00    +0.000 OA
ATOM     29  H   UNL     1     -11.379  55.619  52.963  0.00  0.00    +0.000 HD
ENDBRANCH   3  28
BRANCH   5  30
ATOM     30  C   UNL     1     -10.853  55.383  46.745  0.00  0.00    +0.000 C 
BRANCH  30  31
ATOM     31  C   UNL     1     -11.309  54.018  46.266  0.00  0.00    +0.000 A 
ATOM     32  C   UNL     1     -12.013  53.158  47.119  0.00  0.00    +0.000 A 
ATOM     33  C   UNL     1     -10.978  53.566  44.977  0.00  0.00    +0.000 A 
ATOM     34  C   UNL     1     -12.358  51.870  46.701  0.00  0.00    +0.000 A 
ATOM     35  C   UNL     1     -11.313  52.276  44.566  0.00  0.00    +0.000 A 
ATOM     36  C   UNL     1     -11.997  51.425  45.431  0.00  0.00    +0.000 A 
ENDBRANCH  30  31
ENDBRANCH   5  30
TORSDOF 5
ENDMDL
MODEL 2
REMARK VINA RESULT:      -8.3      3.621      6.748
REMARK  Name = 352789
REMARK  6 active torsions:
REMARK  status: ('A' for Active; 'I' for Inactive)
REMARK    1  A    between atoms: C_6  and  C_10
REMARK    2  A    between atoms: C_12  and  O_16
REMARK    3  A    between atoms: C_14  and  O_19
REMARK    4  A    between atoms: O_16  and  C_21
REMARK    5  A    between atoms: N_18  and  C_23
REMARK    6  A    between atoms: C_23  and  C_26
REMARK                            x       y       z     vdW  Elec       q    Type
REMARK                         _______ _______ _______ _____ _____    ______ ____
ROOT
ATOM      1  C   UNL     1     -10.231  54.474  47.491  0.00  0.00    +0.000 A 
ATOM      2  C   UNL     1      -8.773  54.747  47.353  0.00  0.00    +0.000 A 
ATOM      3  C   UNL     1     -10.890  53.819  46.519  0.00  0.00    +0.000 A 
ATOM      4  O   UNL     1      -8.224  55.461  48.196  0.00  0.00    +0.000 OA
ATOM      5  N   UNL     1      -8.101  54.159  46.297  0.00  0.00    +0.000 N 
ATOM      6  C   UNL     1     -10.180  53.393  45.313  0.00  0.00    +0.000 A 
ATOM      7  C   UNL     1      -8.790  53.515  45.237  0.00  0.00    +0.000 A 
ATOM      8  C   UNL     1     -10.861  52.858  44.212  0.00  0.00    +0.000 A 
ATOM      9  N   UNL     1      -8.087  53.103  44.155  0.00  0.00    +0.000 NA
ATOM     10  C   UNL     1     -10.152  52.467  43.084  0.00  0.00    +0.000 A 
ATOM     11  C   UNL     1      -8.778  52.599  43.108  0.00  0.00    +0.000 A 
ENDROOT
BRANCH   1  17
ATOM     12  S   UNL     1     -11.026  54.901  51.330  0.00  0.00    +0.000 S 
ATOM     13  O   UNL     1      -9.893  55.733  51.667  0.00  0.00    +0.000 OA
ATOM     14  O   UNL     1     -11.477  53.840  52.205  0.00  0.00    +0.000 OA
ATOM     15  N   UNL     1     -10.764  54.229  49.852  0.00  0.00    +0.000 N 
ATOM     16  C   UNL     1     -12.381  55.948  51.014  0.00  0.00    +0.000 A 
ATOM     17  C   UNL     1     -10.998  54.933  48.676  0.00  0.00    +0.000 C 
ATOM     18  C   UNL     1     -12.602  56.324  49.697  0.00  0.00    +0.000 A 
ATOM     19  C   UNL     1     -13.204  56.363  52.067  0.00  0.00    +0.000 A 
ATOM     20  N   UNL     1     -11.802  55.950  48.607  0.00  0.00    +0.000 N 
ATOM     21  C   UNL     1     -13.706  57.138  49.435  0.00  0.00    +0.000 A 
ATOM     22  C   UNL     1     -14.289  57.188  51.794  0.00  0.00    +0.000 A 
ATOM     23  C   UNL     1     -14.544  57.564  50.473  0.00  0.00    +0.000 A 
ATOM     24  H   UNL     1     -10.431  53.304  49.797  0.00  0.00    +0.000 HD
ATOM     25  H   UNL     1     -11.851  56.469  47.772  0.00  0.00    +0.000 HD
BRANCH  22  26
ATOM     26  O   UNL     1     -15.166  57.689  52.715  0.00  0.00    +0.000 OA
ATOM     27  C   UNL     1     -15.195  59.104  52.861  0.00  0.00    +0.000 C 
ENDBRANCH  22  26
ENDBRANCH   1  17
BRANCH   3  28
ATOM     28  O   UNL     1     -12.240  53.507  46.546  0.00  0.00    +0.000 OA
ATOM     29  H   UNL     1     -12.765  53.761  47.280  0.00  0.00    +0.000 HD
ENDBRANCH   3  28
BRANCH   5  30
ATOM     30  C   UNL     1      -6.641  54.228  46.257  0.00  0.00    +0.000 C 
BRANCH  30  31
ATOM     31  C   UNL     1      -6.006  53.255  47.233  0.00  0.00    +0.000 A 
ATOM     32  C   UNL     1      -6.331  51.892  47.197  0.00  0.00    +0.000 A 
ATOM     33  C   UNL     1      -5.130  53.713  48.230  0.00  0.00    +0.000 A 
ATOM     34  C   UNL     1      -5.808  51.014  48.150  0.00  0.00    +0.000 A 
ATOM     35  C   UNL     1      -4.618  52.836  49.188  0.00  0.00    +0.000 A 
ATOM     36  C   UNL     1      -4.963  51.488  49.152  0.00  0.00    +0.000 A 
ENDBRANCH  30  31
ENDBRANCH   5  30
TORSDOF 5
ENDMDL
MODEL 3
REMARK VINA RESULT:      -7.9      3.291      8.261
REMARK  Name = 352789
REMARK  6 active torsions:
REMARK  status: ('A' for Active; 'I' for Inactive)
REMARK    1  A    between atoms: C_6  and  C_10
REMARK    2  A    between atoms: C_12  and  O_16
REMARK    3  A    between atoms: C_14  and  O_19
REMARK    4  A    between atoms: O_16  and  C_21
REMARK    5  A    between atoms: N_18  and  C_23
REMARK    6  A    between atoms: C_23  and  C_26
REMARK                            x       y       z     vdW  Elec       q    Type
REMARK                         _______ _______ _______ _____ _____    ______ ____
ROOT
ATOM      1  C   UNL     1      -9.434  53.778  52.936  0.00  0.00    +0.000 A 
ATOM      2  C   UNL     1      -7.963  54.002  53.002  0.00  0.00    +0.000 A 
ATOM      3  C   UNL     1      -9.999  52.785  53.647  0.00  0.00    +0.000 A 
ATOM      4  O   UNL     1      -7.458  54.832  52.241  0.00  0.00    +0.000 OA
ATOM      5  N   UNL     1      -7.240  53.285  53.938  0.00  0.00    +0.000 N 
ATOM      6  C   UNL     1      -9.164  51.911  54.471  0.00  0.00    +0.000 A 
ATOM      7  C   UNL     1      -7.809  52.199  54.652  0.00  0.00    +0.000 A 
ATOM      8  C   UNL     1      -9.689  50.770  55.093  0.00  0.00    +0.000 A 
ATOM      9  N   UNL     1      -7.006  51.437  55.432  0.00  0.00    +0.000 NA
ATOM     10  C   UNL     1      -8.865  49.963  55.864  0.00  0.00    +0.000 A 
ATOM     11  C   UNL     1      -7.544  50.340  56.011  0.00  0.00    +0.000 A 
ENDROOT
BRANCH   1  17
ATOM     12  S   UNL     1     -10.875  55.183  49.546  0.00  0.00    +0.000 S 
ATOM     13  O   UNL     1     -11.478  53.957  49.073  0.00  0.00    +0.000 OA
ATOM     14  O   UNL     1     -10.169  56.076  48.652  0.00  0.00    +0.000 OA
ATOM     15  N   UNL     1      -9.850  54.823  50.779  0.00  0.00    +0.000 N 
ATOM     16  C   UNL     1     -12.109  56.104  50.359  0.00  0.00    +0.000 A 
ATOM     17  C   UNL     1     -10.309  54.612  52.075  0.00  0.00    +0.000 C 
ATOM     18  C   UNL     1     -12.223  55.942  51.733  0.00  0.00    +0.000 A 
ATOM     19  C   UNL     1     -12.925  56.976  49.630  0.00  0.00    +0.000 A 
ATOM     20  N   UNL     1     -11.442  55.074  52.509  0.00  0.00    +0.000 N 
ATOM     21  C   UNL     1     -13.189  56.703  52.394  0.00  0.00    +0.000 A 
ATOM     22  C   UNL     1     -13.896  57.714  50.299  0.00  0.00    +0.000 A 
ATOM     23  C   UNL     1     -14.017  57.582  51.685  0.00  0.00    +0.000 A 
ATOM     24  H   UNL     1      -8.885  54.754  50.597  0.00  0.00    +0.000 HD
ATOM     25  H   UNL     1     -11.760  54.808  53.402  0.00  0.00    +0.000 HD
BRANCH  22  26
ATOM     26  O   UNL     1     -14.777  58.586  49.723  0.00  0.00    +0.000 OA
ATOM     27  C   UNL     1     -14.460  59.969  49.824  0.00  0.00    +0.000 C 
ENDBRANCH  22  26
ENDBRANCH   1  17
BRANCH   3  28
ATOM     28  O   UNL     1     -11.353  52.493  53.666  0.00  0.00    +0.000 OA
ATOM     29  H   UNL     1     -11.923  52.949  54.255  0.00  0.00    +0.000 HD
ENDBRANCH   3  28
BRANCH   5  30
ATOM     30  C   UNL     1      -5.841  53.637  54.175  0.00  0.00    +0.000 C 
BRANCH  30  31
ATOM     31  C   UNL     1      -4.919  52.990  53.158  0.00  0.00    +0.000 A 
ATOM     32  C   UNL     1      -4.469  53.709  52.042  0.00  0.00    +0.000 A 
ATOM     33  C   UNL     1      -4.552  51.640  53.283  0.00  0.00    +0.000 A 
ATOM     34  C   UNL     1      -3.688  53.085  51.065  0.00  0.00    +0.000 A 
ATOM     35  C   UNL     1      -3.782  51.016  52.301  0.00  0.00    +0.000 A 
ATOM     36  C   UNL     1      -3.357  51.737  51.188  0.00  0.00    +0.000 A 
ENDBRANCH  30  31
ENDBRANCH   5  30
TORSDOF 5
ENDMDL
MODEL 4
REMARK VINA RESULT:      -7.8      3.372      7.399
REMARK  Name = 352789
REMARK  6 active torsions:
REMARK  status: ('A' for Active; 'I' for Inactive)
REMARK    1  A    between atoms: C_6  and  C_10
REMARK    2  A    between atoms: C_12  and  O_16
REMARK    3  A    between atoms: C_14  and  O_19
REMARK    4  A    between atoms: O_16  and  C_21
REMARK    5  A    between atoms: N_18  and  C_23
REMARK    6  A    between atoms: C_23  and  C_26
REMARK                            x       y       z     vdW  Elec       q    Type
REMARK                         _______ _______ _______ _____ _____    ______ ____
ROOT
ATOM      1  C   UNL     1     -11.592  55.578  49.127  0.00  0.00    +0.000 A 
ATOM      2  C   UNL     1     -10.604  54.773  49.898  0.00  0.00    +0.000 A 
ATOM      3  C   UNL     1     -11.733  55.387  47.803  0.00  0.00    +0.000 A 
ATOM      4  O   UNL     1     -10.404  55.060  51.081  0.00  0.00    +0.000 OA
ATOM      5  N   UNL     1      -9.980  53.722  49.251  0.00  0.00    +0.000 N 
ATOM      6  C   UNL     1     -10.900  54.402  47.114  0.00  0.00    +0.000 A 
ATOM      7  C   UNL     1     -10.075  53.544  47.847  0.00  0.00    +0.000 A 
ATOM      8  C   UNL     1     -10.900  54.290  45.718  0.00  0.00    +0.000 A 
ATOM      9  N   UNL     1      -9.312  52.594  47.255  0.00  0.00    +0.000 NA
ATOM     10  C   UNL     1     -10.093  53.345  45.100  0.00  0.00    +0.000 A 
ATOM     11  C   UNL     1      -9.332  52.521  45.905  0.00  0.00    +0.000 A 
ENDROOT
BRANCH   1  17
ATOM     12  S   UNL     1     -13.442  59.047  49.431  0.00  0.00    +0.000 S 
ATOM     13  O   UNL     1     -14.427  58.829  48.395  0.00  0.00    +0.000 OA
ATOM     14  O   UNL     1     -12.784  60.325  49.597  0.00  0.00    +0.000 OA
ATOM     15  N   UNL     1     -12.263  57.911  49.283  0.00  0.00    +0.000 N 
ATOM     16  C   UNL     1     -14.168  58.617  50.954  0.00  0.00    +0.000 A 
ATOM     17  C   UNL     1     -12.422  56.622  49.779  0.00  0.00    +0.000 C 
ATOM     18  C   UNL     1     -13.972  57.320  51.410  0.00  0.00    +0.000 A 
ATOM     19  C   UNL     1     -14.900  59.568  51.673  0.00  0.00    +0.000 A 
ATOM     20  N   UNL     1     -13.261  56.325  50.724  0.00  0.00    +0.000 N 
ATOM     21  C   UNL     1     -14.525  56.981  52.646  0.00  0.00    +0.000 A 
ATOM     22  C   UNL     1     -15.461  59.210  52.895  0.00  0.00    +0.000 A 
ATOM     23  C   UNL     1     -15.261  57.916  53.383  0.00  0.00    +0.000 A 
ATOM     24  H   UNL     1     -11.421  58.149  48.831  0.00  0.00    +0.000 HD
ATOM     25  H   UNL     1     -13.401  55.380  50.964  0.00  0.00    +0.000 HD
BRANCH  22  26
ATOM     26  O   UNL     1     -16.216  60.019  53.697  0.00  0.00    +0.000 OA
ATOM     27  C   UNL     1     -16.086  59.823  55.100  0.00  0.00    +0.000 C 
ENDBRANCH  22  26
ENDBRANCH   1  17
BRANCH   3  28
ATOM     28  O   UNL     1     -12.623  56.073  46.992  0.00  0.00    +0.000 OA
ATOM     29  H   UNL     1     -13.536  56.090  47.207  0.00  0.00    +0.000 HD
ENDBRANCH   3  28
BRANCH   5  30
ATOM     30  C   UNL     1      -9.175  52.785  50.033  0.00  0.00    +0.000 C 
BRANCH  30  31
ATOM     31  C   UNL     1      -7.857  53.400  50.462  0.00  0.00    +0.000 A 
ATOM     32  C   UNL     1      -7.014  54.012  49.524  0.00  0.00    +0.000 A 
ATOM     33  C   UNL     1      -7.428  53.312  51.797  0.00  0.00    +0.000 A 
ATOM     34  C   UNL     1      -5.763  54.504  49.909  0.00  0.00    +0.000 A 
ATOM     35  C   UNL     1      -6.174  53.794  52.177  0.00  0.00    +0.000 A 
ATOM     36  C   UNL     1      -5.339  54.383  51.230  0.00  0.00    +0.000 A 
ENDBRANCH  30  31
ENDBRANCH   5  30
TORSDOF 5
ENDMDL
MODEL 5
REMARK VINA RESULT:      -7.7      3.462      8.093
REMARK  Name = 352789
REMARK  6 active torsions:
REMARK  status: ('A' for Active; 'I' for Inactive)
REMARK    1  A    between atoms: C_6  and  C_10
REMARK    2  A    between atoms: C_12  and  O_16
REMARK    3  A    between atoms: C_14  and  O_19
REMARK    4  A    between atoms: O_16  and  C_21
REMARK    5  A    between atoms: N_18  and  C_23
REMARK    6  A    between atoms: C_23  and  C_26
REMARK                            x       y       z     vdW  Elec       q    Type
REMARK                         _______ _______ _______ _____ _____    ______ ____
ROOT
ATOM      1  C   UNL     1      -8.243  53.893  49.264  0.00  0.00    +0.000 A 
ATOM      2  C   UNL     1      -7.134  54.478  50.067  0.00  0.00    +0.000 A 
ATOM      3  C   UNL     1      -8.011  52.845  48.453  0.00  0.00    +0.000 A 
ATOM      4  O   UNL     1      -7.346  55.516  50.699  0.00  0.00    +0.000 OA
ATOM      5  N   UNL     1      -5.924  53.808  50.086  0.00  0.00    +0.000 N 
ATOM      6  C   UNL     1      -6.661  52.292  48.343  0.00  0.00    +0.000 A 
ATOM      7  C   UNL     1      -5.648  52.738  49.195  0.00  0.00    +0.000 A 
ATOM      8  C   UNL     1      -6.346  51.313  47.392  0.00  0.00    +0.000 A 
ATOM      9  N   UNL     1      -4.392  52.231  49.152  0.00  0.00    +0.000 NA
ATOM     10  C   UNL     1      -5.053  50.815  47.315  0.00  0.00    +0.000 A 
ATOM     11  C   UNL     1      -4.122  51.294  48.216  0.00  0.00    +0.000 A 
ENDROOT
BRANCH   1  17
ATOM     12  S   UNL     1     -11.790  54.872  47.846  0.00  0.00    +0.000 S 
ATOM     13  O   UNL     1     -12.284  53.531  47.627  0.00  0.00    +0.000 OA
ATOM     14  O   UNL     1     -12.038  55.937  46.899  0.00  0.00    +0.000 OA
ATOM     15  N   UNL     1     -10.164  54.802  48.080  0.00  0.00    +0.000 N 
ATOM     16  C   UNL     1     -12.357  55.399  49.406  0.00  0.00    +0.000 A 
ATOM     17  C   UNL     1      -9.616  54.456  49.311  0.00  0.00    +0.000 C 
ATOM     18  C   UNL     1     -11.516  55.197  50.491  0.00  0.00    +0.000 A 
ATOM     19  C   UNL     1     -13.608  56.014  49.524  0.00  0.00    +0.000 A 
ATOM     20  N   UNL     1     -10.260  54.575  50.432  0.00  0.00    +0.000 N 
ATOM     21  C   UNL     1     -11.952  55.648  51.738  0.00  0.00    +0.000 A 
ATOM     22  C   UNL     1     -14.038  56.441  50.776  0.00  0.00    +0.000 A 
ATOM     23  C   UNL     1     -13.200  56.265  51.880  0.00  0.00    +0.000 A 
ATOM     24  H   UNL     1      -9.562  55.010  47.330  0.00  0.00    +0.000 HD
ATOM     25  H   UNL     1      -9.858  54.221  51.258  0.00  0.00    +0.000 HD
BRANCH  22  26
ATOM     26  O   UNL     1     -15.238  57.035  51.050  0.00  0.00    +0.000 OA
ATOM     27  C   UNL     1     -15.637  57.061  52.416  0.00  0.00    +0.000 C 
ENDBRANCH  22  26
ENDBRANCH   1  17
BRANCH   3  28
ATOM     28  O   UNL     1      -8.967  52.220  47.670  0.00  0.00    +0.000 OA
ATOM     29  H   UNL     1      -9.877  52.311  47.879  0.00  0.00    +0.000 HD
ENDBRANCH   3  28
BRANCH   5  30
ATOM     30  C   UNL     1      -4.891  54.233  51.028  0.00  0.00    +0.000 C 
BRANCH  30  31
ATOM     31  C   UNL     1      -5.246  53.861  52.455  0.00  0.00    +0.000 A 
ATOM     32  C   UNL     1      -5.547  52.535  52.796  0.00  0.00    +0.000 A 
ATOM     33  C   UNL     1      -5.341  54.849  53.449  0.00  0.00    +0.000 A 
ATOM     34  C   UNL     1      -5.954  52.211  54.093  0.00  0.00    +0.000 A 
ATOM     35  C   UNL     1      -5.759  54.525  54.740  0.00  0.00    +0.000 A 
ATOM     36  C   UNL     1      -6.073  53.206  55.060  0.00  0.00    +0.000 A 
ENDBRANCH  30  31
ENDBRANCH   5  30
TORSDOF 5
ENDMDL
MODEL 6
REMARK VINA RESULT:      -7.6      2.072      2.842
REMARK  Name = 352789
REMARK  6 active torsions:
REMARK  status: ('A' for Active; 'I' for Inactive)
REMARK    1  A    between atoms: C_6  and  C_10
REMARK    2  A    between atoms: C_12  and  O_16
REMARK    3  A    between atoms: C_14  and  O_19
REMARK    4  A    between atoms: O_16  and  C_21
REMARK    5  A    between atoms: N_18  and  C_23
REMARK    6  A    between atoms: C_23  and  C_26
REMARK                            x       y       z     vdW  Elec       q    Type
REMARK                         _______ _______ _______ _____ _____    ______ ____
ROOT
ATOM      1  C   UNL     1     -10.235  54.435  50.352  0.00  0.00    +0.000 A 
ATOM      2  C   UNL     1     -10.256  54.718  48.890  0.00  0.00    +0.000 A 
ATOM      3  C   UNL     1     -11.258  54.829  51.132  0.00  0.00    +0.000 A 
ATOM      4  O   UNL     1      -9.249  54.463  48.225  0.00  0.00    +0.000 OA
ATOM      5  N   UNL     1     -11.421  55.230  48.346  0.00  0.00    +0.000 N 
ATOM      6  C   UNL     1     -12.384  55.557  50.547  0.00  0.00    +0.000 A 
ATOM      7  C   UNL     1     -12.483  55.702  49.160  0.00  0.00    +0.000 A 
ATOM      8  C   UNL     1     -13.384  56.126  51.346  0.00  0.00    +0.000 A 
ATOM      9  N   UNL     1     -13.524  56.338  48.572  0.00  0.00    +0.000 NA
ATOM     10  C   UNL     1     -14.435  56.812  50.755  0.00  0.00    +0.000 A 
ATOM     11  C   UNL     1     -14.467  56.881  49.376  0.00  0.00    +0.000 A 
ENDROOT
BRANCH   1  17
ATOM     12  S   UNL     1      -8.318  51.423  52.025  0.00  0.00    +0.000 S 
ATOM     13  O   UNL     1      -8.264  50.564  50.863  0.00  0.00    +0.000 OA
ATOM     14  O   UNL     1      -8.590  50.898  53.345  0.00  0.00    +0.000 OA
ATOM     15  N   UNL     1      -9.411  52.618  51.744  0.00  0.00    +0.000 N 
ATOM     16  C   UNL     1      -6.823  52.312  52.099  0.00  0.00    +0.000 A 
ATOM     17  C   UNL     1      -9.089  53.743  50.993  0.00  0.00    +0.000 C 
ATOM     18  C   UNL     1      -6.796  53.565  51.502  0.00  0.00    +0.000 A 
ATOM     19  C   UNL     1      -5.715  51.763  52.756  0.00  0.00    +0.000 A 
ATOM     20  N   UNL     1      -7.870  54.155  50.821  0.00  0.00    +0.000 N 
ATOM     21  C   UNL     1      -5.609  54.294  51.588  0.00  0.00    +0.000 A 
ATOM     22  C   UNL     1      -4.533  52.494  52.817  0.00  0.00    +0.000 A 
ATOM     23  C   UNL     1      -4.488  53.766  52.240  0.00  0.00    +0.000 A 
ATOM     24  H   UNL     1     -10.318  52.536  52.117  0.00  0.00    +0.000 HD
ATOM     25  H   UNL     1      -7.696  54.897  50.198  0.00  0.00    +0.000 HD
BRANCH  22  26
ATOM     26  O   UNL     1      -3.368  52.084  53.402  0.00  0.00    +0.000 OA
ATOM     27  C   UNL     1      -3.301  50.718  53.795  0.00  0.00    +0.000 C 
ENDBRANCH  22  26
ENDBRANCH   1  17
BRANCH   3  28
ATOM     28  O   UNL     1     -11.345  54.613  52.497  0.00  0.00    +0.000 OA
ATOM     29  H   UNL     1     -12.047  54.098  52.846  0.00  0.00    +0.000 HD
ENDBRANCH   3  28
BRANCH   5  30
ATOM     30  C   UNL     1     -11.548  55.314  46.892  0.00  0.00    +0.000 C 
BRANCH  30  31
ATOM     31  C   UNL     1     -11.581  53.940  46.251  0.00  0.00    +0.000 A 
ATOM     32  C   UNL     1     -10.976  53.716  45.007  0.00  0.00    +0.000 A 
ATOM     33  C   UNL     1     -12.274  52.882  46.864  0.00  0.00    +0.000 A 
ATOM     34  C   UNL     1     -11.080  52.470  44.382  0.00  0.00    +0.000 A 
ATOM     35  C   UNL     1     -12.386  51.643  46.232  0.00  0.00    +0.000 A 
ATOM     36  C   UNL     1     -11.796  51.439  44.988  0.00  0.00    +0.000 A 
ENDBRANCH  30  31
ENDBRANCH   5  30
TORSDOF 5
ENDMDL
MODEL 7
REMARK VINA RESULT:      -7.6      3.276      6.794
REMARK  Name = 352789
REMARK  6 active torsions:
REMARK  status: ('A' for Active; 'I' for Inactive)
REMARK    1  A    between atoms: C_6  and  C_10
REMARK    2  A    between atoms: C_12  and  O_16
REMARK    3  A    between atoms: C_14  and  O_19
REMARK    4  A    between atoms: O_16  and  C_21
REMARK    5  A    between atoms: N_18  and  C_23
REMARK    6  A    between atoms: C_23  and  C_26
REMARK                            x       y       z     vdW  Elec       q    Type
REMARK                         _______ _______ _______ _____ _____    ______ ____
ROOT
ATOM      1  C   UNL     1     -11.076  54.719  50.093  0.00  0.00    +0.000 A 
ATOM      2  C   UNL     1     -11.395  53.549  49.228  0.00  0.00    +0.000 A 
ATOM      3  C   UNL     1      -9.867  54.821  50.673  0.00  0.00    +0.000 A 
ATOM      4  O   UNL     1     -12.550  53.415  48.818  0.00  0.00    +0.000 OA
ATOM      5  N   UNL     1     -10.366  52.683  48.906  0.00  0.00    +0.000 N 
ATOM      6  C   UNL     1      -8.869  53.770  50.472  0.00  0.00    +0.000 A 
ATOM      7  C   UNL     1      -9.104  52.745  49.552  0.00  0.00    +0.000 A 
ATOM      8  C   UNL     1      -7.664  53.758  51.186  0.00  0.00    +0.000 A 
ATOM      9  N   UNL     1      -8.196  51.770  49.309  0.00  0.00    +0.000 NA
ATOM     10  C   UNL     1      -6.743  52.742  50.971  0.00  0.00    +0.000 A 
ATOM     11  C   UNL     1      -7.047  51.785  50.023  0.00  0.00    +0.000 A 
ENDROOT
BRANCH   1  17
ATOM     12  S   UNL     1     -13.807  57.414  49.184  0.00  0.00    +0.000 S 
ATOM     13  O   UNL     1     -14.818  56.503  48.695  0.00  0.00    +0.000 OA
ATOM     14  O   UNL     1     -13.540  58.675  48.526  0.00  0.00    +0.000 OA
ATOM     15  N   UNL     1     -12.377  56.608  49.284  0.00  0.00    +0.000 N 
ATOM     16  C   UNL     1     -14.153  57.745  50.858  0.00  0.00    +0.000 A 
ATOM     17  C   UNL     1     -12.077  55.782  50.361  0.00  0.00    +0.000 C 
ATOM     18  C   UNL     1     -13.521  56.954  51.807  0.00  0.00    +0.000 A 
ATOM     19  C   UNL     1     -15.026  58.784  51.199  0.00  0.00    +0.000 A 
ATOM     20  N   UNL     1     -12.650  55.892  51.521  0.00  0.00    +0.000 N 
ATOM     21  C   UNL     1     -13.770  57.237  53.152  0.00  0.00    +0.000 A 
ATOM     22  C   UNL     1     -15.279  59.042  52.543  0.00  0.00    +0.000 A 
ATOM     23  C   UNL     1     -14.639  58.272  53.517  0.00  0.00    +0.000 A 
ATOM     24  H   UNL     1     -11.716  56.713  48.563  0.00  0.00    +0.000 HD
ATOM     25  H   UNL     1     -12.469  55.216  52.213  0.00  0.00    +0.000 HD
BRANCH  22  26
ATOM     26  O   UNL     1     -16.119  60.005  53.028  0.00  0.00    +0.000 OA
ATOM     27  C   UNL     1     -16.247  60.082  54.443  0.00  0.00    +0.000 C 
ENDBRANCH  22  26
ENDBRANCH   1  17
BRANCH   3  28
ATOM     28  O   UNL     1      -9.462  55.867  51.487  0.00  0.00    +0.000 OA
ATOM     29  H   UNL     1      -9.418  55.747  52.416  0.00  0.00    +0.000 HD
ENDBRANCH   3  28
BRANCH   5  30
ATOM     30  C   UNL     1     -10.594  51.655  47.891  0.00  0.00    +0.000 C 
BRANCH  30  31
ATOM     31  C   UNL     1     -10.317  52.175  46.494  0.00  0.00    +0.000 A 
ATOM     32  C   UNL     1     -11.361  52.647  45.686  0.00  0.00    +0.000 A 
ATOM     33  C   UNL     1      -9.018  52.133  45.960  0.00  0.00    +0.000 A 
ATOM     34  C   UNL     1     -11.113  53.047  44.370  0.00  0.00    +0.000 A 
ATOM     35  C   UNL     1      -8.775  52.523  44.642  0.00  0.00    +0.000 A 
ATOM     36  C   UNL     1      -9.825  52.973  43.845  0.00  0.00    +0.000 A 
ENDBRANCH  30  31
ENDBRANCH   5  30
TORSDOF 5
ENDMDL
MODEL 8
REMARK VINA RESULT:      -7.6      3.853      7.081
REMARK  Name = 352789
REMARK  6 active torsions:
REMARK  status: ('A' for Active; 'I' for Inactive)
REMARK    1  A    between atoms: C_6  and  C_10
REMARK    2  A    between atoms: C_12  and  O_16
REMARK    3  A    between atoms: C_14  and  O_19
REMARK    4  A    between atoms: O_16  and  C_21
REMARK    5  A    between atoms: N_18  and  C_23
REMARK    6  A    between atoms: C_23  and  C_26
REMARK                            x       y       z     vdW  Elec       q    Type
REMARK                         _______ _______ _______ _____ _____    ______ ____
ROOT
ATOM      1  C   UNL     1     -10.655  55.124  47.318  0.00  0.00    +0.000 A 
ATOM      2  C   UNL     1      -9.177  55.222  47.477  0.00  0.00    +0.000 A 
ATOM      3  C   UNL     1     -11.180  54.415  46.302  0.00  0.00    +0.000 A 
ATOM      4  O   UNL     1      -8.725  55.983  48.336  0.00  0.00    +0.000 OA
ATOM      5  N   UNL     1      -8.385  54.428  46.668  0.00  0.00    +0.000 N 
ATOM      6  C   UNL     1     -10.298  53.756  45.339  0.00  0.00    +0.000 A 
ATOM      7  C   UNL     1      -8.918  53.721  45.559  0.00  0.00    +0.000 A 
ATOM      8  C   UNL     1     -10.801  53.150  44.180  0.00  0.00    +0.000 A 
ATOM      9  N   UNL     1      -8.067  53.094  44.712  0.00  0.00    +0.000 NA
ATOM     10  C   UNL     1      -9.932  52.537  43.288  0.00  0.00    +0.000 A 
ATOM     11  C   UNL     1      -8.587  52.526  43.601  0.00  0.00    +0.000 A 
ENDROOT
BRANCH   1  17
ATOM     12  S   UNL     1     -13.740  57.363  48.326  0.00  0.00    +0.000 S 
ATOM     13  O   UNL     1     -14.780  56.477  47.853  0.00  0.00    +0.000 OA
ATOM     14  O   UNL     1     -13.820  58.796  48.140  0.00  0.00    +0.000 OA
ATOM     15  N   UNL     1     -12.304  56.872  47.694  0.00  0.00    +0.000 N 
ATOM     16  C   UNL     1     -13.510  57.055  50.024  0.00  0.00    +0.000 A 
ATOM     17  C   UNL     1     -11.583  55.818  48.245  0.00  0.00    +0.000 C 
ATOM     18  C   UNL     1     -12.526  56.142  50.379  0.00  0.00    +0.000 A 
ATOM     19  C   UNL     1     -14.291  57.730  50.969  0.00  0.00    +0.000 A 
ATOM     20  N   UNL     1     -11.726  55.429  49.475  0.00  0.00    +0.000 N 
ATOM     21  C   UNL     1     -12.317  55.917  51.741  0.00  0.00    +0.000 A 
ATOM     22  C   UNL     1     -14.083  57.481  52.322  0.00  0.00    +0.000 A 
ATOM     23  C   UNL     1     -13.086  56.581  52.704  0.00  0.00    +0.000 A 
ATOM     24  H   UNL     1     -11.944  57.336  46.903  0.00  0.00    +0.000 HD
ATOM     25  H   UNL     1     -11.263  54.615  49.779  0.00  0.00    +0.000 HD
BRANCH  22  26
ATOM     26  O   UNL     1     -14.778  58.045  53.355  0.00  0.00    +0.000 OA
ATOM     27  C   UNL     1     -15.417  59.288  53.088  0.00  0.00    +0.000 C 
ENDBRANCH  22  26
ENDBRANCH   1  17
BRANCH   3  28
ATOM     28  O   UNL     1     -12.535  54.252  46.064  0.00  0.00    +0.000 OA
ATOM     29  H   UNL     1     -12.884  54.422  45.211  0.00  0.00    +0.000 HD
ENDBRANCH   3  28
BRANCH   5  30
ATOM     30  C   UNL     1      -6.952  54.338  46.944  0.00  0.00    +0.000 C 
BRANCH  30  31
ATOM     31  C   UNL     1      -6.671  53.512  48.185  0.00  0.00    +0.000 A 
ATOM     32  C   UNL     1      -5.903  54.035  49.235  0.00  0.00    +0.000 A 
ATOM     33  C   UNL     1      -7.122  52.185  48.277  0.00  0.00    +0.000 A 
ATOM     34  C   UNL     1      -5.577  53.241  50.338  0.00  0.00    +0.000 A 
ATOM     35  C   UNL     1      -6.786  51.391  49.375  0.00  0.00    +0.000 A 
ATOM     36  C   UNL     1      -6.006  51.918  50.402  0.00  0.00    +0.000 A 
ENDBRANCH  30  31
ENDBRANCH   5  30
TORSDOF 5
ENDMDL
MODEL 9
REMARK VINA RESULT:      -7.5      3.135      5.220
REMARK  Name = 352789
REMARK  6 active torsions:
REMARK  status: ('A' for Active; 'I' for Inactive)
REMARK    1  A    between atoms: C_6  and  C_10
REMARK    2  A    between atoms: C_12  and  O_16
REMARK    3  A    between atoms: C_14  and  O_19
REMARK    4  A    between atoms: O_16  and  C_21
REMARK    5  A    between atoms: N_18  and  C_23
REMARK    6  A    between atoms: C_23  and  C_26
REMARK                            x       y       z     vdW  Elec       q    Type
REMARK                         _______ _______ _______ _____ _____    ______ ____
ROOT
ATOM      1  C   UNL     1      -8.497  53.320  48.201  0.00  0.00    +0.000 A 
ATOM      2  C   UNL     1      -9.885  53.209  48.729  0.00  0.00    +0.000 A 
ATOM      3  C   UNL     1      -8.276  53.306  46.874  0.00  0.00    +0.000 A 
ATOM      4  O   UNL     1     -10.047  53.092  49.946  0.00  0.00    +0.000 OA
ATOM      5  N   UNL     1     -10.930  53.272  47.824  0.00  0.00    +0.000 N 
ATOM      6  C   UNL     1      -9.399  53.161  45.948  0.00  0.00    +0.000 A 
ATOM      7  C   UNL     1     -10.712  53.201  46.423  0.00  0.00    +0.000 A 
ATOM      8  C   UNL     1      -9.196  52.979  44.573  0.00  0.00    +0.000 A 
ATOM      9  N   UNL     1     -11.782  53.105  45.599  0.00  0.00    +0.000 NA
ATOM     10  C   UNL     1     -10.286  52.842  43.726  0.00  0.00    +0.000 A 
ATOM     11  C   UNL     1     -11.549  52.922  44.280  0.00  0.00    +0.000 A 
ENDROOT
BRANCH   1  17
ATOM     12  S   UNL     1      -4.713  52.983  49.256  0.00  0.00    +0.000 S 
ATOM     13  O   UNL     1      -4.176  53.981  48.359  0.00  0.00    +0.000 OA
ATOM     14  O   UNL     1      -4.028  51.732  49.497  0.00  0.00    +0.000 OA
ATOM     15  N   UNL     1      -6.242  52.614  48.777  0.00  0.00    +0.000 N 
ATOM     16  C   UNL     1      -4.992  53.747  50.796  0.00  0.00    +0.000 A 
ATOM     17  C   UNL     1      -7.327  53.419  49.108  0.00  0.00    +0.000 C 
ATOM     18  C   UNL     1      -6.260  54.260  51.033  0.00  0.00    +0.000 A 
ATOM     19  C   UNL     1      -3.962  53.811  51.741  0.00  0.00    +0.000 A 
ATOM     20  N   UNL     1      -7.322  54.235  50.117  0.00  0.00    +0.000 N 
ATOM     21  C   UNL     1      -6.497  54.844  52.279  0.00  0.00    +0.000 A 
ATOM     22  C   UNL     1      -4.208  54.412  52.971  0.00  0.00    +0.000 A 
ATOM     23  C   UNL     1      -5.482  54.918  53.240  0.00  0.00    +0.000 A 
ATOM     24  H   UNL     1      -6.394  51.802  48.242  0.00  0.00    +0.000 HD
ATOM     25  H   UNL     1      -8.080  54.851  50.242  0.00  0.00    +0.000 HD
BRANCH  22  26
ATOM     26  O   UNL     1      -3.300  54.567  53.982  0.00  0.00    +0.000 OA
ATOM     27  C   UNL     1      -3.374  55.780  54.723  0.00  0.00    +0.000 C 
ENDBRANCH  22  26
ENDBRANCH   1  17
BRANCH   3  28
ATOM     28  O   UNL     1      -7.031  53.410  46.276  0.00  0.00    +0.000 OA
ATOM     29  H   UNL     1      -6.962  53.450  45.341  0.00  0.00    +0.000 HD
ENDBRANCH   3  28
BRANCH   5  30
ATOM     30  C   UNL     1     -12.298  53.385  48.325  0.00  0.00    +0.000 C 
BRANCH  30  31
ATOM     31  C   UNL     1     -12.622  54.802  48.758  0.00  0.00    +0.000 A 
ATOM     32  C   UNL     1     -12.932  55.089  50.096  0.00  0.00    +0.000 A 
ATOM     33  C   UNL     1     -12.679  55.842  47.816  0.00  0.00    +0.000 A 
ATOM     34  C   UNL     1     -13.310  56.380  50.474  0.00  0.00    +0.000 A 
ATOM     35  C   UNL     1     -13.068  57.128  48.195  0.00  0.00    +0.000 A 
ATOM     36  C   UNL     1     -13.391  57.394  49.523  0.00  0.00    +0.000 A 
ENDBRANCH  30  31
ENDBRANCH   5  30
TORSDOF 5
ENDMDL
