MODEL 1
REMARK VINA RESULT:      -7.2      0.000      0.000
REMARK  Name = 352769
REMARK  10 active torsions:
REMARK  status: ('A' for Active; 'I' for Inactive)
REMARK    1  A    between atoms: C_6  and  C_10
REMARK    2  A    between atoms: C_12  and  O_16
REMARK    3  A    between atoms: C_14  and  O_19
REMARK    4  A    between atoms: O_16  and  C_21
REMARK    5  A    between atoms: N_18  and  C_23
REMARK    6  A    between atoms: C_21  and  C_25
REMARK    7  A    between atoms: C_23  and  C_27
REMARK    8  A    between atoms: C_27  and  C_32
REMARK    9  A    between atoms: C_32  and  C_33
REMARK   10  A    between atoms: C_32  and  C_34
REMARK                            x       y       z     vdW  Elec       q    Type
REMARK                         _______ _______ _______ _____ _____    ______ ____
ROOT
ATOM      1  S   UNL     1     -13.387  58.723  49.337  0.00  0.00    +0.000 S 
ATOM      2  O   UNL     1     -14.472  58.713  48.376  0.00  0.00    +0.000 OA
ATOM      3  O   UNL     1     -12.567  59.907  49.502  0.00  0.00    +0.000 OA
ATOM      4  N   UNL     1     -12.409  57.482  48.995  0.00  0.00    +0.000 N 
ATOM      5  C   UNL     1     -14.123  58.426  50.900  0.00  0.00    +0.000 A 
ATOM      6  C   UNL     1     -12.353  56.433  49.765  0.00  0.00    +0.000 C 
ATOM      7  C   UNL     1     -13.884  57.203  51.506  0.00  0.00    +0.000 A 
ATOM      8  C   UNL     1     -14.911  59.415  51.493  0.00  0.00    +0.000 A 
ATOM      9  N   UNL     1     -13.113  56.223  50.891  0.00  0.00    +0.000 N 
ATOM     10  C   UNL     1     -14.503  56.940  52.730  0.00  0.00    +0.000 A 
ATOM     11  C   UNL     1     -15.515  59.140  52.715  0.00  0.00    +0.000 A 
ATOM     12  C   UNL     1     -15.300  57.910  53.338  0.00  0.00    +0.000 A 
ATOM     13  H   UNL     1     -11.847  57.518  48.187  0.00  0.00    +0.000 HD
ATOM     14  H   UNL     1     -13.111  55.322  51.287  0.00  0.00    +0.000 HD
ENDROOT
BRANCH   6  15
ATOM     15  C   UNL     1     -11.335  55.382  49.383  0.00  0.00    +0.000 A 
ATOM     16  C   UNL     1     -11.454  54.689  48.061  0.00  0.00    +0.000 A 
ATOM     17  C   UNL     1     -10.317  55.077  50.208  0.00  0.00    +0.000 A 
ATOM     18  O   UNL     1     -12.335  55.061  47.280  0.00  0.00    +0.000 OA
ATOM     19  N   UNL     1     -10.572  53.669  47.770  0.00  0.00    +0.000 N 
ATOM     20  C   UNL     1      -9.384  54.004  49.858  0.00  0.00    +0.000 A 
ATOM     21  C   UNL     1      -9.540  53.294  48.666  0.00  0.00    +0.000 A 
ATOM     22  C   UNL     1      -8.346  53.623  50.718  0.00  0.00    +0.000 A 
ATOM     23  N   UNL     1      -8.740  52.256  48.325  0.00  0.00    +0.000 NA
ATOM     24  C   UNL     1      -7.521  52.559  50.380  0.00  0.00    +0.000 A 
ATOM     25  C   UNL     1      -7.759  51.909  49.186  0.00  0.00    +0.000 A 
BRANCH  17  26
ATOM     26  O   UNL     1     -10.074  55.691  51.424  0.00  0.00    +0.000 OA
ATOM     27  H   UNL     1     -10.448  55.340  52.209  0.00  0.00    +0.000 HD
ENDBRANCH  17  26
BRANCH  19  28
ATOM     28  C   UNL     1     -10.728  52.911  46.526  0.00  0.00    +0.000 C 
BRANCH  28  29
ATOM     29  C   UNL     1     -10.235  53.708  45.311  0.00  0.00    +0.000 C 
BRANCH  29  30
ATOM     30  C   UNL     1      -8.779  53.412  44.905  0.00  0.00    +0.000 C 
ATOM     31  C   UNL     1      -8.618  53.187  43.401  0.00  0.00    +0.000 C 
ATOM     32  C   UNL     1      -7.879  54.571  45.345  0.00  0.00    +0.000 C 
ENDBRANCH  29  30
ENDBRANCH  28  29
ENDBRANCH  19  28
ENDBRANCH   6  15
BRANCH  11  33
ATOM     33  O   UNL     1     -16.318  60.003  53.401  0.00  0.00    +0.000 OA
BRANCH  33  34
ATOM     34  C   UNL     1     -16.060  60.102  54.804  0.00  0.00    +0.000 C 
BRANCH  34  35
ATOM     35  C   UNL     1     -17.113  60.991  55.457  0.00  0.00    +0.000 C 
ATOM     36  O   UNL     1     -17.603  61.969  54.905  0.00  0.00    +0.000 OA
ATOM     37  N   UNL     1     -17.509  60.618  56.710  0.00  0.00    +0.000 N 
ATOM     38  H   UNL     1     -17.106  59.829  57.140  0.00  0.00    +0.000 HD
ATOM     39  H   UNL     1     -18.200  61.137  57.183  0.00  0.00    +0.000 HD
ENDBRANCH  34  35
ENDBRANCH  33  34
ENDBRANCH  11  33
TORSDOF 8
ENDMDL
MODEL 2
REMARK VINA RESULT:      -7.1      2.352      4.730
REMARK  Name = 352769
REMARK  10 active torsions:
REMARK  status: ('A' for Active; 'I' for Inactive)
REMARK    1  A    between atoms: C_6  and  C_10
REMARK    2  A    between atoms: C_12  and  O_16
REMARK    3  A    between atoms: C_14  and  O_19
REMARK    4  A    between atoms: O_16  and  C_21
REMARK    5  A    between atoms: N_18  and  C_23
REMARK    6  A    between atoms: C_21  and  C_25
REMARK    7  A    between atoms: C_23  and  C_27
REMARK    8  A    between atoms: C_27  and  C_32
REMARK    9  A    between atoms: C_32  and  C_33
REMARK   10  A    between atoms: C_32  and  C_34
REMARK                            x       y       z     vdW  Elec       q    Type
REMARK                         _______ _______ _______ _____ _____    ______ ____
ROOT
ATOM      1  S   UNL     1     -11.597  54.810  50.644  0.00  0.00    +0.000 S 
ATOM      2  O   UNL     1     -10.644  55.524  51.469  0.00  0.00    +0.000 OA
ATOM      3  O   UNL     1     -12.516  53.860  51.241  0.00  0.00    +0.000 OA
ATOM      4  N   UNL     1     -10.773  54.046  49.482  0.00  0.00    +0.000 N 
ATOM      5  C   UNL     1     -12.597  56.036  49.890  0.00  0.00    +0.000 A 
ATOM      6  C   UNL     1     -10.826  54.443  48.242  0.00  0.00    +0.000 C 
ATOM      7  C   UNL     1     -12.447  56.248  48.528  0.00  0.00    +0.000 A 
ATOM      8  C   UNL     1     -13.514  56.753  50.662  0.00  0.00    +0.000 A 
ATOM      9  N   UNL     1     -11.515  55.539  47.780  0.00  0.00    +0.000 N 
ATOM     10  C   UNL     1     -13.207  57.254  47.928  0.00  0.00    +0.000 A 
ATOM     11  C   UNL     1     -14.268  57.747  50.049  0.00  0.00    +0.000 A 
ATOM     12  C   UNL     1     -14.124  57.986  48.682  0.00  0.00    +0.000 A 
ATOM     13  H   UNL     1     -10.219  53.266  49.715  0.00  0.00    +0.000 HD
ATOM     14  H   UNL     1     -11.336  55.841  46.860  0.00  0.00    +0.000 HD
ENDROOT
BRANCH   6  15
ATOM     15  C   UNL     1     -10.081  53.590  47.239  0.00  0.00    +0.000 A 
ATOM     16  C   UNL     1      -8.736  53.040  47.597  0.00  0.00    +0.000 A 
ATOM     17  C   UNL     1     -10.622  53.307  46.040  0.00  0.00    +0.000 A 
ATOM     18  O   UNL     1      -8.310  53.227  48.741  0.00  0.00    +0.000 OA
ATOM     19  N   UNL     1      -8.032  52.343  46.637  0.00  0.00    +0.000 N 
ATOM     20  C   UNL     1      -9.856  52.545  45.051  0.00  0.00    +0.000 A 
ATOM     21  C   UNL     1      -8.565  52.103  45.346  0.00  0.00    +0.000 A 
ATOM     22  C   UNL     1     -10.366  52.280  43.773  0.00  0.00    +0.000 A 
ATOM     23  N   UNL     1      -7.796  51.445  44.446  0.00  0.00    +0.000 NA
ATOM     24  C   UNL     1      -9.585  51.609  42.841  0.00  0.00    +0.000 A 
ATOM     25  C   UNL     1      -8.316  51.220  43.220  0.00  0.00    +0.000 A 
BRANCH  17  26
ATOM     26  O   UNL     1     -11.878  53.711  45.623  0.00  0.00    +0.000 OA
ATOM     27  H   UNL     1     -12.010  54.587  45.315  0.00  0.00    +0.000 HD
ENDBRANCH  17  26
BRANCH  19  28
ATOM     28  C   UNL     1      -6.674  51.878  46.930  0.00  0.00    +0.000 C 
BRANCH  28  29
ATOM     29  C   UNL     1      -5.681  53.043  47.010  0.00  0.00    +0.000 C 
BRANCH  29  30
ATOM     30  C   UNL     1      -4.726  52.982  48.218  0.00  0.00    +0.000 C 
ATOM     31  C   UNL     1      -4.748  54.263  49.054  0.00  0.00    +0.000 C 
ATOM     32  C   UNL     1      -5.098  51.790  49.105  0.00  0.00    +0.000 C 
ENDBRANCH  29  30
ENDBRANCH  28  29
ENDBRANCH  19  28
ENDBRANCH   6  15
BRANCH  11  33
ATOM     33  O   UNL     1     -15.189  58.531  50.679  0.00  0.00    +0.000 OA
BRANCH  33  34
ATOM     34  C   UNL     1     -14.695  59.301  51.777  0.00  0.00    +0.000 C 
BRANCH  34  35
ATOM     35  C   UNL     1     -15.301  58.787  53.079  0.00  0.00    +0.000 C 
ATOM     36  O   UNL     1     -15.451  57.595  53.325  0.00  0.00    +0.000 OA
ATOM     37  N   UNL     1     -15.655  59.743  53.987  0.00  0.00    +0.000 N 
ATOM     38  H   UNL     1     -15.528  60.696  53.774  0.00  0.00    +0.000 HD
ATOM     39  H   UNL     1     -16.035  59.480  54.857  0.00  0.00    +0.000 HD
ENDBRANCH  34  35
ENDBRANCH  33  34
ENDBRANCH  11  33
TORSDOF 8
ENDMDL
MODEL 3
REMARK VINA RESULT:      -7.1      3.057      5.632
REMARK  Name = 352769
REMARK  10 active torsions:
REMARK  status: ('A' for Active; 'I' for Inactive)
REMARK    1  A    between atoms: C_6  and  C_10
REMARK    2  A    between atoms: C_12  and  O_16
REMARK    3  A    between atoms: C_14  and  O_19
REMARK    4  A    between atoms: O_16  and  C_21
REMARK    5  A    between atoms: N_18  and  C_23
REMARK    6  A    between atoms: C_21  and  C_25
REMARK    7  A    between atoms: C_23  and  C_27
REMARK    8  A    between atoms: C_27  and  C_32
REMARK    9  A    between atoms: C_32  and  C_33
REMARK   10  A    between atoms: C_32  and  C_34
REMARK                            x       y       z     vdW  Elec       q    Type
REMARK                         _______ _______ _______ _____ _____    ______ ____
ROOT
ATOM      1  S   UNL     1     -11.326  54.510  47.847  0.00  0.00    +0.000 S 
ATOM      2  O   UNL     1     -12.200  53.439  47.410  0.00  0.00    +0.000 OA
ATOM      3  O   UNL     1     -11.139  55.686  47.020  0.00  0.00    +0.000 OA
ATOM      4  N   UNL     1      -9.871  53.872  48.146  0.00  0.00    +0.000 N 
ATOM      5  C   UNL     1     -11.992  55.089  49.361  0.00  0.00    +0.000 A 
ATOM      6  C   UNL     1      -9.424  53.749  49.364  0.00  0.00    +0.000 C 
ATOM      7  C   UNL     1     -11.290  54.816  50.525  0.00  0.00    +0.000 A 
ATOM      8  C   UNL     1     -13.189  55.809  49.361  0.00  0.00    +0.000 A 
ATOM      9  N   UNL     1     -10.110  54.081  50.507  0.00  0.00    +0.000 N 
ATOM     10  C   UNL     1     -11.836  55.234  51.739  0.00  0.00    +0.000 A 
ATOM     11  C   UNL     1     -13.717  56.224  50.578  0.00  0.00    +0.000 A 
ATOM     12  C   UNL     1     -13.034  55.949  51.763  0.00  0.00    +0.000 A 
ATOM     13  H   UNL     1      -9.312  53.569  47.394  0.00  0.00    +0.000 HD
ATOM     14  H   UNL     1      -9.743  53.778  51.369  0.00  0.00    +0.000 HD
ENDROOT
BRANCH   6  15
ATOM     15  C   UNL     1      -8.013  53.220  49.503  0.00  0.00    +0.000 A 
ATOM     16  C   UNL     1      -7.050  53.927  50.406  0.00  0.00    +0.000 A 
ATOM     17  C   UNL     1      -7.622  52.117  48.841  0.00  0.00    +0.000 A 
ATOM     18  O   UNL     1      -7.465  54.873  51.083  0.00  0.00    +0.000 OA
ATOM     19  N   UNL     1      -5.744  53.486  50.450  0.00  0.00    +0.000 N 
ATOM     20  C   UNL     1      -6.232  51.663  48.927  0.00  0.00    +0.000 A 
ATOM     21  C   UNL     1      -5.307  52.367  49.699  0.00  0.00    +0.000 A 
ATOM     22  C   UNL     1      -5.777  50.551  48.207  0.00  0.00    +0.000 A 
ATOM     23  N   UNL     1      -3.999  52.021  49.765  0.00  0.00    +0.000 NA
ATOM     24  C   UNL     1      -4.438  50.189  48.264  0.00  0.00    +0.000 A 
ATOM     25  C   UNL     1      -3.594  50.952  49.046  0.00  0.00    +0.000 A 
BRANCH  17  26
ATOM     26  O   UNL     1      -8.439  51.353  48.026  0.00  0.00    +0.000 OA
ATOM     27  H   UNL     1      -9.012  51.770  47.413  0.00  0.00    +0.000 HD
ENDBRANCH  17  26
BRANCH  19  28
ATOM     28  C   UNL     1      -4.760  54.218  51.252  0.00  0.00    +0.000 C 
BRANCH  28  29
ATOM     29  C   UNL     1      -4.775  53.768  52.718  0.00  0.00    +0.000 C 
BRANCH  29  30
ATOM     30  C   UNL     1      -5.110  54.887  53.722  0.00  0.00    +0.000 C 
ATOM     31  C   UNL     1      -6.069  54.428  54.821  0.00  0.00    +0.000 C 
ATOM     32  C   UNL     1      -3.817  55.406  54.359  0.00  0.00    +0.000 C 
ENDBRANCH  29  30
ENDBRANCH  28  29
ENDBRANCH  19  28
ENDBRANCH   6  15
BRANCH  11  33
ATOM     33  O   UNL     1     -14.879  56.922  50.729  0.00  0.00    +0.000 OA
BRANCH  33  34
ATOM     34  C   UNL     1     -15.211  57.283  52.072  0.00  0.00    +0.000 C 
BRANCH  34  35
ATOM     35  C   UNL     1     -15.091  58.794  52.241  0.00  0.00    +0.000 C 
ATOM     36  O   UNL     1     -14.856  59.557  51.311  0.00  0.00    +0.000 OA
ATOM     37  N   UNL     1     -15.288  59.266  53.507  0.00  0.00    +0.000 N 
ATOM     38  H   UNL     1     -15.475  58.639  54.243  0.00  0.00    +0.000 HD
ATOM     39  H   UNL     1     -15.243  60.234  53.685  0.00  0.00    +0.000 HD
ENDBRANCH  34  35
ENDBRANCH  33  34
ENDBRANCH  11  33
TORSDOF 8
ENDMDL
MODEL 4
REMARK VINA RESULT:      -7.1      1.202      3.588
REMARK  Name = 352769
REMARK  10 active torsions:
REMARK  status: ('A' for Active; 'I' for Inactive)
REMARK    1  A    between atoms: C_6  and  C_10
REMARK    2  A    between atoms: C_12  and  O_16
REMARK    3  A    between atoms: C_14  and  O_19
REMARK    4  A    between atoms: O_16  and  C_21
REMARK    5  A    between atoms: N_18  and  C_23
REMARK    6  A    between atoms: C_21  and  C_25
REMARK    7  A    between atoms: C_23  and  C_27
REMARK    8  A    between atoms: C_27  and  C_32
REMARK    9  A    between atoms: C_32  and  C_33
REMARK   10  A    between atoms: C_32  and  C_34
REMARK                            x       y       z     vdW  Elec       q    Type
REMARK                         _______ _______ _______ _____ _____    ______ ____
ROOT
ATOM      1  S   UNL     1     -13.416  59.041  49.302  0.00  0.00    +0.000 S 
ATOM      2  O   UNL     1     -14.517  58.977  48.361  0.00  0.00    +0.000 OA
ATOM      3  O   UNL     1     -12.687  60.279  49.493  0.00  0.00    +0.000 OA
ATOM      4  N   UNL     1     -12.353  57.891  48.900  0.00  0.00    +0.000 N 
ATOM      5  C   UNL     1     -14.094  58.636  50.867  0.00  0.00    +0.000 A 
ATOM      6  C   UNL     1     -12.200  56.825  49.632  0.00  0.00    +0.000 C 
ATOM      7  C   UNL     1     -13.749  57.416  51.426  0.00  0.00    +0.000 A 
ATOM      8  C   UNL     1     -14.944  59.540  51.508  0.00  0.00    +0.000 A 
ATOM      9  N   UNL     1     -12.918  56.520  50.764  0.00  0.00    +0.000 N 
ATOM     10  C   UNL     1     -14.321  57.066  52.651  0.00  0.00    +0.000 A 
ATOM     11  C   UNL     1     -15.500  59.180  52.730  0.00  0.00    +0.000 A 
ATOM     12  C   UNL     1     -15.177  57.951  53.306  0.00  0.00    +0.000 A 
ATOM     13  H   UNL     1     -11.812  57.998  48.084  0.00  0.00    +0.000 HD
ATOM     14  H   UNL     1     -12.838  55.609  51.129  0.00  0.00    +0.000 HD
ENDROOT
BRANCH   6  15
ATOM     15  C   UNL     1     -11.111  55.869  49.196  0.00  0.00    +0.000 A 
ATOM     16  C   UNL     1     -10.155  55.332  50.215  0.00  0.00    +0.000 A 
ATOM     17  C   UNL     1     -11.005  55.486  47.911  0.00  0.00    +0.000 A 
ATOM     18  O   UNL     1     -10.339  55.617  51.402  0.00  0.00    +0.000 OA
ATOM     19  N   UNL     1      -9.113  54.536  49.785  0.00  0.00    +0.000 N 
ATOM     20  C   UNL     1      -9.900  54.621  47.492  0.00  0.00    +0.000 A 
ATOM     21  C   UNL     1      -8.953  54.186  48.421  0.00  0.00    +0.000 A 
ATOM     22  C   UNL     1      -9.727  54.248  46.153  0.00  0.00    +0.000 A 
ATOM     23  N   UNL     1      -7.882  53.434  48.073  0.00  0.00    +0.000 NA
ATOM     24  C   UNL     1      -8.631  53.479  45.784  0.00  0.00    +0.000 A 
ATOM     25  C   UNL     1      -7.742  53.105  46.771  0.00  0.00    +0.000 A 
BRANCH  17  26
ATOM     26  O   UNL     1     -11.864  55.872  46.898  0.00  0.00    +0.000 OA
ATOM     27  H   UNL     1     -11.992  56.782  46.713  0.00  0.00    +0.000 HD
ENDBRANCH  17  26
BRANCH  19  28
ATOM     28  C   UNL     1      -8.110  54.076  50.747  0.00  0.00    +0.000 C 
BRANCH  28  29
ATOM     29  C   UNL     1      -8.528  52.762  51.419  0.00  0.00    +0.000 C 
BRANCH  29  30
ATOM     30  C   UNL     1      -8.645  52.842  52.953  0.00  0.00    +0.000 C 
ATOM     31  C   UNL     1      -7.989  54.096  53.532  0.00  0.00    +0.000 C 
ATOM     32  C   UNL     1     -10.122  52.808  53.356  0.00  0.00    +0.000 C 
ENDBRANCH  29  30
ENDBRANCH  28  29
ENDBRANCH  19  28
ENDBRANCH   6  15
BRANCH  11  33
ATOM     33  O   UNL     1     -16.353  59.955  53.460  0.00  0.00    +0.000 OA
BRANCH  33  34
ATOM     34  C   UNL     1     -16.147  59.933  54.874  0.00  0.00    +0.000 C 
BRANCH  34  35
ATOM     35  C   UNL     1     -17.131  60.883  55.550  0.00  0.00    +0.000 C 
ATOM     36  O   UNL     1     -17.611  61.863  54.990  0.00  0.00    +0.000 OA
ATOM     37  N   UNL     1     -17.476  60.566  56.832  0.00  0.00    +0.000 N 
ATOM     38  H   UNL     1     -17.082  59.776  57.268  0.00  0.00    +0.000 HD
ATOM     39  H   UNL     1     -18.122  61.127  57.322  0.00  0.00    +0.000 HD
ENDBRANCH  34  35
ENDBRANCH  33  34
ENDBRANCH  11  33
TORSDOF 8
ENDMDL
MODEL 5
REMARK VINA RESULT:      -7.0      3.162      5.408
REMARK  Name = 352769
REMARK  10 active torsions:
REMARK  status: ('A' for Active; 'I' for Inactive)
REMARK    1  A    between atoms: C_6  and  C_10
REMARK    2  A    between atoms: C_12  and  O_16
REMARK    3  A    between atoms: C_14  and  O_19
REMARK    4  A    between atoms: O_16  and  C_21
REMARK    5  A    between atoms: N_18  and  C_23
REMARK    6  A    between atoms: C_21  and  C_25
REMARK    7  A    between atoms: C_23  and  C_27
REMARK    8  A    between atoms: C_27  and  C_32
REMARK    9  A    between atoms: C_32  and  C_33
REMARK   10  A    between atoms: C_32  and  C_34
REMARK                            x       y       z     vdW  Elec       q    Type
REMARK                         _______ _______ _______ _____ _____    ______ ____
ROOT
ATOM      1  S   UNL     1     -11.388  54.643  50.466  0.00  0.00    +0.000 S 
ATOM      2  O   UNL     1     -10.464  55.494  51.190  0.00  0.00    +0.000 OA
ATOM      3  O   UNL     1     -12.304  53.779  51.184  0.00  0.00    +0.000 OA
ATOM      4  N   UNL     1     -10.526  53.726  49.452  0.00  0.00    +0.000 N 
ATOM      5  C   UNL     1     -12.390  55.720  49.513  0.00  0.00    +0.000 A 
ATOM      6  C   UNL     1     -10.557  53.927  48.165  0.00  0.00    +0.000 C 
ATOM      7  C   UNL     1     -12.212  55.723  48.138  0.00  0.00    +0.000 A 
ATOM      8  C   UNL     1     -13.335  56.530  50.147  0.00  0.00    +0.000 A 
ATOM      9  N   UNL     1     -11.252  54.925  47.526  0.00  0.00    +0.000 N 
ATOM     10  C   UNL     1     -12.974  56.611  47.376  0.00  0.00    +0.000 A 
ATOM     11  C   UNL     1     -14.091  57.403  49.374  0.00  0.00    +0.000 A 
ATOM     12  C   UNL     1     -13.919  57.433  47.989  0.00  0.00    +0.000 A 
ATOM     13  H   UNL     1      -9.965  53.002  49.814  0.00  0.00    +0.000 HD
ATOM     14  H   UNL     1     -11.058  55.086  46.575  0.00  0.00    +0.000 HD
ENDROOT
BRANCH   6  15
ATOM     15  C   UNL     1      -9.777  52.944  47.320  0.00  0.00    +0.000 A 
ATOM     16  C   UNL     1      -8.350  52.649  47.665  0.00  0.00    +0.000 A 
ATOM     17  C   UNL     1     -10.355  52.323  46.276  0.00  0.00    +0.000 A 
ATOM     18  O   UNL     1      -7.877  53.152  48.688  0.00  0.00    +0.000 OA
ATOM     19  N   UNL     1      -7.628  51.822  46.830  0.00  0.00    +0.000 N 
ATOM     20  C   UNL     1      -9.565  51.433  45.422  0.00  0.00    +0.000 A 
ATOM     21  C   UNL     1      -8.211  51.220  45.687  0.00  0.00    +0.000 A 
ATOM     22  C   UNL     1     -10.120  50.813  44.296  0.00  0.00    +0.000 A 
ATOM     23  N   UNL     1      -7.424  50.454  44.894  0.00  0.00    +0.000 NA
ATOM     24  C   UNL     1      -9.323  50.027  43.473  0.00  0.00    +0.000 A 
ATOM     25  C   UNL     1      -7.992  49.883  43.809  0.00  0.00    +0.000 A 
BRANCH  17  26
ATOM     26  O   UNL     1     -11.678  52.473  45.900  0.00  0.00    +0.000 OA
ATOM     27  H   UNL     1     -12.345  51.968  46.322  0.00  0.00    +0.000 HD
ENDBRANCH  17  26
BRANCH  19  28
ATOM     28  C   UNL     1      -6.205  51.594  47.091  0.00  0.00    +0.000 C 
BRANCH  28  29
ATOM     29  C   UNL     1      -5.987  50.432  48.068  0.00  0.00    +0.000 C 
BRANCH  29  30
ATOM     30  C   UNL     1      -5.154  50.795  49.312  0.00  0.00    +0.000 C 
ATOM     31  C   UNL     1      -4.466  52.155  49.187  0.00  0.00    +0.000 C 
ATOM     32  C   UNL     1      -6.054  50.791  50.550  0.00  0.00    +0.000 C 
ENDBRANCH  29  30
ENDBRANCH  28  29
ENDBRANCH  19  28
ENDBRANCH   6  15
BRANCH  11  33
ATOM     33  O   UNL     1     -15.038  58.257  49.857  0.00  0.00    +0.000 OA
BRANCH  33  34
ATOM     34  C   UNL     1     -14.543  59.347  50.638  0.00  0.00    +0.000 C 
BRANCH  34  35
ATOM     35  C   UNL     1     -13.851  60.357  49.729  0.00  0.00    +0.000 C 
ATOM     36  O   UNL     1     -12.675  60.679  49.854  0.00  0.00    +0.000 OA
ATOM     37  N   UNL     1     -14.621  60.879  48.729  0.00  0.00    +0.000 N 
ATOM     38  H   UNL     1     -15.565  60.611  48.642  0.00  0.00    +0.000 HD
ATOM     39  H   UNL     1     -14.232  61.524  48.093  0.00  0.00    +0.000 HD
ENDBRANCH  34  35
ENDBRANCH  33  34
ENDBRANCH  11  33
TORSDOF 8
ENDMDL
MODEL 6
REMARK VINA RESULT:      -6.9      1.869      2.034
REMARK  Name = 352769
REMARK  10 active torsions:
REMARK  status: ('A' for Active; 'I' for Inactive)
REMARK    1  A    between atoms: C_6  and  C_10
REMARK    2  A    between atoms: C_12  and  O_16
REMARK    3  A    between atoms: C_14  and  O_19
REMARK    4  A    between atoms: O_16  and  C_21
REMARK    5  A    between atoms: N_18  and  C_23
REMARK    6  A    between atoms: C_21  and  C_25
REMARK    7  A    between atoms: C_23  and  C_27
REMARK    8  A    between atoms: C_27  and  C_32
REMARK    9  A    between atoms: C_32  and  C_33
REMARK   10  A    between atoms: C_32  and  C_34
REMARK                            x       y       z     vdW  Elec       q    Type
REMARK                         _______ _______ _______ _____ _____    ______ ____
ROOT
ATOM      1  S   UNL     1     -13.166  58.009  48.907  0.00  0.00    +0.000 S 
ATOM      2  O   UNL     1     -14.170  58.479  47.973  0.00  0.00    +0.000 OA
ATOM      3  O   UNL     1     -12.011  58.829  49.214  0.00  0.00    +0.000 OA
ATOM      4  N   UNL     1     -12.636  56.574  48.385  0.00  0.00    +0.000 N 
ATOM      5  C   UNL     1     -14.000  57.764  50.429  0.00  0.00    +0.000 A 
ATOM      6  C   UNL     1     -12.945  55.472  49.007  0.00  0.00    +0.000 C 
ATOM      7  C   UNL     1     -14.188  56.461  50.862  0.00  0.00    +0.000 A 
ATOM      8  C   UNL     1     -14.440  58.868  51.163  0.00  0.00    +0.000 A 
ATOM      9  N   UNL     1     -13.761  55.374  50.108  0.00  0.00    +0.000 N 
ATOM     10  C   UNL     1     -14.891  56.255  52.051  0.00  0.00    +0.000 A 
ATOM     11  C   UNL     1     -15.133  58.646  52.348  0.00  0.00    +0.000 A 
ATOM     12  C   UNL     1     -15.346  57.342  52.797  0.00  0.00    +0.000 A 
ATOM     13  H   UNL     1     -12.071  56.531  47.579  0.00  0.00    +0.000 HD
ATOM     14  H   UNL     1     -14.062  54.477  50.380  0.00  0.00    +0.000 HD
ENDROOT
BRANCH   6  15
ATOM     15  C   UNL     1     -12.313  54.206  48.470  0.00  0.00    +0.000 A 
ATOM     16  C   UNL     1     -11.928  54.133  47.025  0.00  0.00    +0.000 A 
ATOM     17  C   UNL     1     -12.078  53.157  49.278  0.00  0.00    +0.000 A 
ATOM     18  O   UNL     1     -12.058  55.146  46.330  0.00  0.00    +0.000 OA
ATOM     19  N   UNL     1     -11.439  52.941  46.532  0.00  0.00    +0.000 N 
ATOM     20  C   UNL     1     -11.537  51.912  48.727  0.00  0.00    +0.000 A 
ATOM     21  C   UNL     1     -11.256  51.808  47.363  0.00  0.00    +0.000 A 
ATOM     22  C   UNL     1     -11.332  50.782  49.529  0.00  0.00    +0.000 A 
ATOM     23  N   UNL     1     -10.810  50.661  46.797  0.00  0.00    +0.000 NA
ATOM     24  C   UNL     1     -10.877  49.601  48.959  0.00  0.00    +0.000 A 
ATOM     25  C   UNL     1     -10.638  49.589  47.599  0.00  0.00    +0.000 A 
BRANCH  17  26
ATOM     26  O   UNL     1     -12.338  53.132  50.636  0.00  0.00    +0.000 OA
ATOM     27  H   UNL     1     -12.404  53.935  51.116  0.00  0.00    +0.000 HD
ENDBRANCH  17  26
BRANCH  19  28
ATOM     28  C   UNL     1     -11.146  52.814  45.103  0.00  0.00    +0.000 C 
BRANCH  28  29
ATOM     29  C   UNL     1      -9.719  53.268  44.774  0.00  0.00    +0.000 C 
BRANCH  29  30
ATOM     30  C   UNL     1      -8.830  53.513  46.009  0.00  0.00    +0.000 C 
ATOM     31  C   UNL     1      -7.610  52.591  46.052  0.00  0.00    +0.000 C 
ATOM     32  C   UNL     1      -8.366  54.972  46.023  0.00  0.00    +0.000 C 
ENDBRANCH  29  30
ENDBRANCH  28  29
ENDBRANCH  19  28
ENDBRANCH   6  15
BRANCH  11  33
ATOM     33  O   UNL     1     -15.630  59.625  53.157  0.00  0.00    +0.000 OA
BRANCH  33  34
ATOM     34  C   UNL     1     -16.042  59.198  54.458  0.00  0.00    +0.000 C 
BRANCH  34  35
ATOM     35  C   UNL     1     -16.715  60.356  55.188  0.00  0.00    +0.000 C 
ATOM     36  O   UNL     1     -17.269  61.284  54.608  0.00  0.00    +0.000 OA
ATOM     37  N   UNL     1     -16.691  60.292  56.552  0.00  0.00    +0.000 N 
ATOM     38  H   UNL     1     -16.242  59.540  57.002  0.00  0.00    +0.000 HD
ATOM     39  H   UNL     1     -17.124  60.998  57.086  0.00  0.00    +0.000 HD
ENDBRANCH  34  35
ENDBRANCH  33  34
ENDBRANCH  11  33
TORSDOF 8
ENDMDL
MODEL 7
REMARK VINA RESULT:      -6.7      2.639      4.237
REMARK  Name = 352769
REMARK  10 active torsions:
REMARK  status: ('A' for Active; 'I' for Inactive)
REMARK    1  A    between atoms: C_6  and  C_10
REMARK    2  A    between atoms: C_12  and  O_16
REMARK    3  A    between atoms: C_14  and  O_19
REMARK    4  A    between atoms: O_16  and  C_21
REMARK    5  A    between atoms: N_18  and  C_23
REMARK    6  A    between atoms: C_21  and  C_25
REMARK    7  A    between atoms: C_23  and  C_27
REMARK    8  A    between atoms: C_27  and  C_32
REMARK    9  A    between atoms: C_32  and  C_33
REMARK   10  A    between atoms: C_32  and  C_34
REMARK                            x       y       z     vdW  Elec       q    Type
REMARK                         _______ _______ _______ _____ _____    ______ ____
ROOT
ATOM      1  S   UNL     1     -11.172  54.108  51.804  0.00  0.00    +0.000 S 
ATOM      2  O   UNL     1     -10.654  55.077  52.749  0.00  0.00    +0.000 OA
ATOM      3  O   UNL     1     -11.947  52.975  52.269  0.00  0.00    +0.000 OA
ATOM      4  N   UNL     1      -9.928  53.543  50.941  0.00  0.00    +0.000 N 
ATOM      5  C   UNL     1     -12.226  55.002  50.725  0.00  0.00    +0.000 A 
ATOM      6  C   UNL     1      -9.771  53.865  49.689  0.00  0.00    +0.000 C 
ATOM      7  C   UNL     1     -11.803  55.194  49.420  0.00  0.00    +0.000 A 
ATOM      8  C   UNL     1     -13.450  55.483  51.195  0.00  0.00    +0.000 A 
ATOM      9  N   UNL     1     -10.572  54.725  48.976  0.00  0.00    +0.000 N 
ATOM     10  C   UNL     1     -12.616  55.943  48.566  0.00  0.00    +0.000 A 
ATOM     11  C   UNL     1     -14.250  56.222  50.331  0.00  0.00    +0.000 A 
ATOM     12  C   UNL     1     -13.839  56.439  49.016  0.00  0.00    +0.000 A 
ATOM     13  H   UNL     1      -9.274  52.944  51.370  0.00  0.00    +0.000 HD
ATOM     14  H   UNL     1     -10.254  55.028  48.095  0.00  0.00    +0.000 HD
ENDROOT
BRANCH   6  15
ATOM     15  C   UNL     1      -8.619  53.199  48.969  0.00  0.00    +0.000 A 
ATOM     16  C   UNL     1      -8.878  52.458  47.694  0.00  0.00    +0.000 A 
ATOM     17  C   UNL     1      -7.366  53.279  49.453  0.00  0.00    +0.000 A 
ATOM     18  O   UNL     1     -10.017  52.489  47.218  0.00  0.00    +0.000 OA
ATOM     19  N   UNL     1      -7.834  51.780  47.102  0.00  0.00    +0.000 N 
ATOM     20  C   UNL     1      -6.275  52.565  48.787  0.00  0.00    +0.000 A 
ATOM     21  C   UNL     1      -6.525  51.801  47.645  0.00  0.00    +0.000 A 
ATOM     22  C   UNL     1      -4.969  52.582  49.294  0.00  0.00    +0.000 A 
ATOM     23  N   UNL     1      -5.562  51.076  47.028  0.00  0.00    +0.000 NA
ATOM     24  C   UNL     1      -3.974  51.840  48.671  0.00  0.00    +0.000 A 
ATOM     25  C   UNL     1      -4.318  51.106  47.554  0.00  0.00    +0.000 A 
BRANCH  17  26
ATOM     26  O   UNL     1      -7.000  53.982  50.587  0.00  0.00    +0.000 OA
ATOM     27  H   UNL     1      -6.838  54.904  50.536  0.00  0.00    +0.000 HD
ENDBRANCH  17  26
BRANCH  19  28
ATOM     28  C   UNL     1      -8.081  50.970  45.907  0.00  0.00    +0.000 C 
BRANCH  28  29
ATOM     29  C   UNL     1      -8.174  51.835  44.644  0.00  0.00    +0.000 C 
BRANCH  29  30
ATOM     30  C   UNL     1      -9.198  51.338  43.607  0.00  0.00    +0.000 C 
ATOM     31  C   UNL     1     -10.393  50.631  44.248  0.00  0.00    +0.000 C 
ATOM     32  C   UNL     1      -9.695  52.521  42.771  0.00  0.00    +0.000 C 
ENDBRANCH  29  30
ENDBRANCH  28  29
ENDBRANCH  19  28
ENDBRANCH   6  15
BRANCH  11  33
ATOM     33  O   UNL     1     -15.460  56.761  50.656  0.00  0.00    +0.000 OA
BRANCH  33  34
ATOM     34  C   UNL     1     -15.547  57.342  51.959  0.00  0.00    +0.000 C 
BRANCH  34  35
ATOM     35  C   UNL     1     -14.983  58.759  51.928  0.00  0.00    +0.000 C 
ATOM     36  O   UNL     1     -15.227  59.559  51.031  0.00  0.00    +0.000 OA
ATOM     37  N   UNL     1     -14.194  59.107  52.986  0.00  0.00    +0.000 N 
ATOM     38  H   UNL     1     -14.008  58.452  53.698  0.00  0.00    +0.000 HD
ATOM     39  H   UNL     1     -13.812  60.013  53.039  0.00  0.00    +0.000 HD
ENDBRANCH  34  35
ENDBRANCH  33  34
ENDBRANCH  11  33
TORSDOF 8
ENDMDL
MODEL 8
REMARK VINA RESULT:      -6.6      4.104      9.940
REMARK  Name = 352769
REMARK  10 active torsions:
REMARK  status: ('A' for Active; 'I' for Inactive)
REMARK    1  A    between atoms: C_6  and  C_10
REMARK    2  A    between atoms: C_12  and  O_16
REMARK    3  A    between atoms: C_14  and  O_19
REMARK    4  A    between atoms: O_16  and  C_21
REMARK    5  A    between atoms: N_18  and  C_23
REMARK    6  A    between atoms: C_21  and  C_25
REMARK    7  A    between atoms: C_23  and  C_27
REMARK    8  A    between atoms: C_27  and  C_32
REMARK    9  A    between atoms: C_32  and  C_33
REMARK   10  A    between atoms: C_32  and  C_34
REMARK                            x       y       z     vdW  Elec       q    Type
REMARK                         _______ _______ _______ _____ _____    ______ ____
ROOT
ATOM      1  S   UNL     1      -8.736  51.072  50.580  0.00  0.00    +0.000 S 
ATOM      2  O   UNL     1      -8.720  50.114  49.493  0.00  0.00    +0.000 OA
ATOM      3  O   UNL     1      -8.924  50.625  51.947  0.00  0.00    +0.000 OA
ATOM      4  N   UNL     1      -9.872  52.175  50.254  0.00  0.00    +0.000 N 
ATOM      5  C   UNL     1      -7.174  51.867  50.546  0.00  0.00    +0.000 A 
ATOM      6  C   UNL     1      -9.555  53.391  49.914  0.00  0.00    +0.000 C 
ATOM      7  C   UNL     1      -7.131  53.192  50.142  0.00  0.00    +0.000 A 
ATOM      8  C   UNL     1      -6.030  51.164  50.929  0.00  0.00    +0.000 A 
ATOM      9  N   UNL     1      -8.278  53.871  49.745  0.00  0.00    +0.000 N 
ATOM     10  C   UNL     1      -5.886  53.820  50.068  0.00  0.00    +0.000 A 
ATOM     11  C   UNL     1      -4.799  51.805  50.856  0.00  0.00    +0.000 A 
ATOM     12  C   UNL     1      -4.730  53.135  50.440  0.00  0.00    +0.000 A 
ATOM     13  H   UNL     1     -10.822  51.921  50.312  0.00  0.00    +0.000 HD
ATOM     14  H   UNL     1      -8.169  54.750  49.316  0.00  0.00    +0.000 HD
ENDROOT
BRANCH   6  15
ATOM     15  C   UNL     1     -10.710  54.350  49.722  0.00  0.00    +0.000 A 
ATOM     16  C   UNL     1     -11.604  54.664  50.881  0.00  0.00    +0.000 A 
ATOM     17  C   UNL     1     -10.930  54.934  48.530  0.00  0.00    +0.000 A 
ATOM     18  O   UNL     1     -11.318  54.196  51.988  0.00  0.00    +0.000 OA
ATOM     19  N   UNL     1     -12.705  55.466  50.666  0.00  0.00    +0.000 N 
ATOM     20  C   UNL     1     -12.097  55.799  48.341  0.00  0.00    +0.000 A 
ATOM     21  C   UNL     1     -12.984  56.027  49.395  0.00  0.00    +0.000 A 
ATOM     22  C   UNL     1     -12.387  56.379  47.100  0.00  0.00    +0.000 A 
ATOM     23  N   UNL     1     -14.107  56.772  49.254  0.00  0.00    +0.000 NA
ATOM     24  C   UNL     1     -13.537  57.142  46.942  0.00  0.00    +0.000 A 
ATOM     25  C   UNL     1     -14.360  57.303  48.038  0.00  0.00    +0.000 A 
BRANCH  17  26
ATOM     26  O   UNL     1     -10.139  54.764  47.409  0.00  0.00    +0.000 OA
ATOM     27  H   UNL     1     -10.506  54.879  46.554  0.00  0.00    +0.000 HD
ENDBRANCH  17  26
BRANCH  19  28
ATOM     28  C   UNL     1     -13.648  55.710  51.759  0.00  0.00    +0.000 C 
BRANCH  28  29
ATOM     29  C   UNL     1     -13.325  57.009  52.508  0.00  0.00    +0.000 C 
BRANCH  29  30
ATOM     30  C   UNL     1     -14.562  57.813  52.950  0.00  0.00    +0.000 C 
ATOM     31  C   UNL     1     -14.618  59.206  52.321  0.00  0.00    +0.000 C 
ATOM     32  C   UNL     1     -15.832  57.038  52.586  0.00  0.00    +0.000 C 
ENDBRANCH  29  30
ENDBRANCH  28  29
ENDBRANCH  19  28
ENDBRANCH   6  15
BRANCH  11  33
ATOM     33  O   UNL     1      -3.602  51.239  51.185  0.00  0.00    +0.000 OA
BRANCH  33  34
ATOM     34  C   UNL     1      -3.665  50.167  52.128  0.00  0.00    +0.000 C 
BRANCH  34  35
ATOM     35  C   UNL     1      -3.401  50.703  53.532  0.00  0.00    +0.000 C 
ATOM     36  O   UNL     1      -3.303  51.898  53.787  0.00  0.00    +0.000 OA
ATOM     37  N   UNL     1      -3.300  49.761  54.516  0.00  0.00    +0.000 N 
ATOM     38  H   UNL     1      -3.381  48.805  54.294  0.00  0.00    +0.000 HD
ATOM     39  H   UNL     1      -3.148  50.039  55.449  0.00  0.00    +0.000 HD
ENDBRANCH  34  35
ENDBRANCH  33  34
ENDBRANCH  11  33
TORSDOF 8
ENDMDL
MODEL 9
REMARK VINA RESULT:      -6.6      3.438      4.952
REMARK  Name = 352769
REMARK  10 active torsions:
REMARK  status: ('A' for Active; 'I' for Inactive)
REMARK    1  A    between atoms: C_6  and  C_10
REMARK    2  A    between atoms: C_12  and  O_16
REMARK    3  A    between atoms: C_14  and  O_19
REMARK    4  A    between atoms: O_16  and  C_21
REMARK    5  A    between atoms: N_18  and  C_23
REMARK    6  A    between atoms: C_21  and  C_25
REMARK    7  A    between atoms: C_23  and  C_27
REMARK    8  A    between atoms: C_27  and  C_32
REMARK    9  A    between atoms: C_32  and  C_33
REMARK   10  A    between atoms: C_32  and  C_34
REMARK                            x       y       z     vdW  Elec       q    Type
REMARK                         _______ _______ _______ _____ _____    ______ ____
ROOT
ATOM      1  S   UNL     1     -11.084  54.743  48.345  0.00  0.00    +0.000 S 
ATOM      2  O   UNL     1     -12.012  53.791  47.766  0.00  0.00    +0.000 OA
ATOM      3  O   UNL     1     -10.512  55.796  47.529  0.00  0.00    +0.000 OA
ATOM      4  N   UNL     1      -9.870  53.909  49.011  0.00  0.00    +0.000 N 
ATOM      5  C   UNL     1     -11.961  55.552  49.629  0.00  0.00    +0.000 A 
ATOM      6  C   UNL     1      -9.737  53.824  50.303  0.00  0.00    +0.000 C 
ATOM      7  C   UNL     1     -11.598  55.274  50.937  0.00  0.00    +0.000 A 
ATOM      8  C   UNL     1     -12.982  56.451  49.311  0.00  0.00    +0.000 A 
ATOM      9  N   UNL     1     -10.593  54.361  51.235  0.00  0.00    +0.000 N 
ATOM     10  C   UNL     1     -12.321  55.879  51.967  0.00  0.00    +0.000 A 
ATOM     11  C   UNL     1     -13.688  57.051  50.347  0.00  0.00    +0.000 A 
ATOM     12  C   UNL     1     -13.348  56.775  51.672  0.00  0.00    +0.000 A 
ATOM     13  H   UNL     1      -9.218  53.456  48.427  0.00  0.00    +0.000 HD
ATOM     14  H   UNL     1     -10.488  54.080  52.173  0.00  0.00    +0.000 HD
ENDROOT
BRANCH   6  15
ATOM     15  C   UNL     1      -8.509  53.091  50.798  0.00  0.00    +0.000 A 
ATOM     16  C   UNL     1      -8.273  51.677  50.365  0.00  0.00    +0.000 A 
ATOM     17  C   UNL     1      -7.622  53.700  51.605  0.00  0.00    +0.000 A 
ATOM     18  O   UNL     1      -9.046  51.178  49.542  0.00  0.00    +0.000 OA
ATOM     19  N   UNL     1      -7.200  50.995  50.899  0.00  0.00    +0.000 N 
ATOM     20  C   UNL     1      -6.480  52.953  52.137  0.00  0.00    +0.000 A 
ATOM     21  C   UNL     1      -6.301  51.609  51.807  0.00  0.00    +0.000 A 
ATOM     22  C   UNL     1      -5.567  53.540  53.024  0.00  0.00    +0.000 A 
ATOM     23  N   UNL     1      -5.294  50.860  52.318  0.00  0.00    +0.000 NA
ATOM     24  C   UNL     1      -4.533  52.781  53.557  0.00  0.00    +0.000 A 
ATOM     25  C   UNL     1      -4.443  51.456  53.181  0.00  0.00    +0.000 A 
BRANCH  17  26
ATOM     26  O   UNL     1      -7.706  55.016  52.022  0.00  0.00    +0.000 OA
ATOM     27  H   UNL     1      -7.099  55.652  51.695  0.00  0.00    +0.000 HD
ENDBRANCH  17  26
BRANCH  19  28
ATOM     28  C   UNL     1      -7.002  49.583  50.567  0.00  0.00    +0.000 C 
BRANCH  28  29
ATOM     29  C   UNL     1      -5.879  49.394  49.540  0.00  0.00    +0.000 C 
BRANCH  29  30
ATOM     30  C   UNL     1      -5.808  50.495  48.465  0.00  0.00    +0.000 C 
ATOM     31  C   UNL     1      -4.377  50.952  48.180  0.00  0.00    +0.000 C 
ATOM     32  C   UNL     1      -6.448  49.987  47.169  0.00  0.00    +0.000 C 
ENDBRANCH  29  30
ENDBRANCH  28  29
ENDBRANCH  19  28
ENDBRANCH   6  15
BRANCH  11  33
ATOM     33  O   UNL     1     -14.713  57.936  50.185  0.00  0.00    +0.000 OA
BRANCH  33  34
ATOM     34  C   UNL     1     -14.526  59.215  50.795  0.00  0.00    +0.000 C 
BRANCH  34  35
ATOM     35  C   UNL     1     -13.901  60.176  49.789  0.00  0.00    +0.000 C 
ATOM     36  O   UNL     1     -12.764  60.622  49.903  0.00  0.00    +0.000 OA
ATOM     37  N   UNL     1     -14.682  60.503  48.717  0.00  0.00    +0.000 N 
ATOM     38  H   UNL     1     -15.592  60.136  48.641  0.00  0.00    +0.000 HD
ATOM     39  H   UNL     1     -14.333  61.104  48.019  0.00  0.00    +0.000 HD
ENDBRANCH  34  35
ENDBRANCH  33  34
ENDBRANCH  11  33
TORSDOF 8
ENDMDL
