MODEL 1
REMARK VINA RESULT:      -7.8      0.000      0.000
REMARK  Name = 352944
REMARK  11 active torsions:
REMARK  status: ('A' for Active; 'I' for Inactive)
REMARK    1  A    between atoms: C_6  and  C_10
REMARK    2  A    between atoms: C_12  and  O_16
REMARK    3  A    between atoms: C_14  and  O_19
REMARK    4  A    between atoms: O_16  and  C_21
REMARK    5  A    between atoms: N_18  and  C_23
REMARK    6  A    between atoms: C_21  and  C_25
REMARK    7  A    between atoms: C_23  and  C_27
REMARK    8  A    between atoms: C_25  and  C_29
REMARK    9  A    between atoms: C_27  and  C_31
REMARK   10  A    between atoms: C_31  and  C_32
REMARK   11  A    between atoms: C_31  and  C_33
REMARK                            x       y       z     vdW  Elec       q    Type
REMARK                         _______ _______ _______ _____ _____    ______ ____
ROOT
ATOM      1  S   UNL     1     -13.268  58.592  49.377  0.00  0.00    +0.000 S 
ATOM      2  O   UNL     1     -14.234  58.642  48.305  0.00  0.00    +0.000 OA
ATOM      3  O   UNL     1     -12.330  59.667  49.612  0.00  0.00    +0.000 OA
ATOM      4  N   UNL     1     -12.392  57.205  49.222  0.00  0.00    +0.000 N 
ATOM      5  C   UNL     1     -14.123  58.282  50.863  0.00  0.00    +0.000 A 
ATOM      6  C   UNL     1     -12.876  55.976  49.648  0.00  0.00    +0.000 C 
ATOM      7  C   UNL     1     -14.253  56.963  51.277  0.00  0.00    +0.000 A 
ATOM      8  C   UNL     1     -14.640  59.347  51.595  0.00  0.00    +0.000 A 
ATOM      9  N   UNL     1     -13.778  55.854  50.570  0.00  0.00    +0.000 N 
ATOM     10  C   UNL     1     -14.911  56.714  52.482  0.00  0.00    +0.000 A 
ATOM     11  C   UNL     1     -15.327  59.081  52.775  0.00  0.00    +0.000 A 
ATOM     12  C   UNL     1     -15.438  57.767  53.232  0.00  0.00    +0.000 A 
ATOM     13  H   UNL     1     -11.496  57.251  48.814  0.00  0.00    +0.000 HD
ATOM     14  H   UNL     1     -14.139  54.961  50.777  0.00  0.00    +0.000 HD
ENDROOT
BRANCH   6  15
ATOM     15  C   UNL     1     -12.328  54.786  48.957  0.00  0.00    +0.000 A 
ATOM     16  C   UNL     1     -12.022  54.809  47.504  0.00  0.00    +0.000 A 
ATOM     17  C   UNL     1     -12.165  53.656  49.669  0.00  0.00    +0.000 A 
ATOM     18  O   UNL     1     -12.285  55.827  46.860  0.00  0.00    +0.000 OA
ATOM     19  N   UNL     1     -11.438  53.687  46.942  0.00  0.00    +0.000 N 
ATOM     20  C   UNL     1     -11.705  52.438  49.008  0.00  0.00    +0.000 A 
ATOM     21  C   UNL     1     -11.333  52.465  47.661  0.00  0.00    +0.000 A 
ATOM     22  C   UNL     1     -11.657  51.216  49.691  0.00  0.00    +0.000 A 
ATOM     23  N   UNL     1     -10.922  51.352  47.010  0.00  0.00    +0.000 NA
ATOM     24  C   UNL     1     -11.268  50.065  49.022  0.00  0.00    +0.000 A 
ATOM     25  C   UNL     1     -10.907  50.186  47.696  0.00  0.00    +0.000 A 
BRANCH  17  26
ATOM     26  O   UNL     1     -12.441  53.518  51.020  0.00  0.00    +0.000 OA
ATOM     27  H   UNL     1     -11.859  53.885  51.656  0.00  0.00    +0.000 HD
ENDBRANCH  17  26
BRANCH  19  28
ATOM     28  C   UNL     1     -11.098  53.719  45.520  0.00  0.00    +0.000 C 
BRANCH  28  29
ATOM     29  C   UNL     1      -9.605  53.979  45.233  0.00  0.00    +0.000 C 
BRANCH  29  30
ATOM     30  C   UNL     1      -8.977  53.062  44.169  0.00  0.00    +0.000 C 
ATOM     31  C   UNL     1      -8.245  51.880  44.800  0.00  0.00    +0.000 C 
ATOM     32  C   UNL     1     -10.066  52.552  43.220  0.00  0.00    +0.000 C 
ENDBRANCH  29  30
ENDBRANCH  28  29
ENDBRANCH  19  28
ENDBRANCH   6  15
BRANCH  11  33
ATOM     33  O   UNL     1     -15.897  60.036  53.568  0.00  0.00    +0.000 OA
BRANCH  33  34
ATOM     34  C   UNL     1     -16.323  59.559  54.847  0.00  0.00    +0.000 C 
BRANCH  34  35
ATOM     35  C   UNL     1     -16.709  60.756  55.701  0.00  0.00    +0.000 C 
ATOM     36  C   UNL     1     -17.697  61.643  54.966  0.00  0.00    +0.000 C 
ENDBRANCH  34  35
ENDBRANCH  33  34
ENDBRANCH  11  33
TORSDOF 8
ENDMDL
MODEL 2
REMARK VINA RESULT:      -7.7      2.266      3.338
REMARK  Name = 352944
REMARK  11 active torsions:
REMARK  status: ('A' for Active; 'I' for Inactive)
REMARK    1  A    between atoms: C_6  and  C_10
REMARK    2  A    between atoms: C_12  and  O_16
REMARK    3  A    between atoms: C_14  and  O_19
REMARK    4  A    between atoms: O_16  and  C_21
REMARK    5  A    between atoms: N_18  and  C_23
REMARK    6  A    between atoms: C_21  and  C_25
REMARK    7  A    between atoms: C_23  and  C_27
REMARK    8  A    between atoms: C_25  and  C_29
REMARK    9  A    between atoms: C_27  and  C_31
REMARK   10  A    between atoms: C_31  and  C_32
REMARK   11  A    between atoms: C_31  and  C_33
REMARK                            x       y       z     vdW  Elec       q    Type
REMARK                         _______ _______ _______ _____ _____    ______ ____
ROOT
ATOM      1  S   UNL     1     -13.446  59.069  49.396  0.00  0.00    +0.000 S 
ATOM      2  O   UNL     1     -14.442  58.859  48.372  0.00  0.00    +0.000 OA
ATOM      3  O   UNL     1     -12.779  60.340  49.565  0.00  0.00    +0.000 OA
ATOM      4  N   UNL     1     -12.274  57.923  49.223  0.00  0.00    +0.000 N 
ATOM      5  C   UNL     1     -14.138  58.610  50.928  0.00  0.00    +0.000 A 
ATOM      6  C   UNL     1     -12.436  56.628  49.695  0.00  0.00    +0.000 C 
ATOM      7  C   UNL     1     -13.934  57.310  51.372  0.00  0.00    +0.000 A 
ATOM      8  C   UNL     1     -14.860  59.545  51.665  0.00  0.00    +0.000 A 
ATOM      9  N   UNL     1     -13.243  56.324  50.663  0.00  0.00    +0.000 N 
ATOM     10  C   UNL     1     -14.462  56.949  52.611  0.00  0.00    +0.000 A 
ATOM     11  C   UNL     1     -15.413  59.159  52.882  0.00  0.00    +0.000 A 
ATOM     12  C   UNL     1     -15.190  57.871  53.367  0.00  0.00    +0.000 A 
ATOM     13  H   UNL     1     -11.434  58.166  48.772  0.00  0.00    +0.000 HD
ATOM     14  H   UNL     1     -13.373  55.378  50.903  0.00  0.00    +0.000 HD
ENDROOT
BRANCH   6  15
ATOM     15  C   UNL     1     -11.653  55.579  49.000  0.00  0.00    +0.000 A 
ATOM     16  C   UNL     1     -10.577  54.829  49.698  0.00  0.00    +0.000 A 
ATOM     17  C   UNL     1     -11.902  55.359  47.697  0.00  0.00    +0.000 A 
ATOM     18  O   UNL     1     -10.303  55.133  50.861  0.00  0.00    +0.000 OA
ATOM     19  N   UNL     1      -9.942  53.810  49.011  0.00  0.00    +0.000 N 
ATOM     20  C   UNL     1     -11.097  54.392  46.955  0.00  0.00    +0.000 A 
ATOM     21  C   UNL     1     -10.138  53.619  47.615  0.00  0.00    +0.000 A 
ATOM     22  C   UNL     1     -11.240  54.240  45.570  0.00  0.00    +0.000 A 
ATOM     23  N   UNL     1      -9.360  52.729  46.958  0.00  0.00    +0.000 NA
ATOM     24  C   UNL     1     -10.424  53.354  44.884  0.00  0.00    +0.000 A 
ATOM     25  C   UNL     1      -9.512  52.623  45.617  0.00  0.00    +0.000 A 
BRANCH  17  26
ATOM     26  O   UNL     1     -12.863  56.016  46.946  0.00  0.00    +0.000 OA
ATOM     27  H   UNL     1     -12.710  56.187  46.037  0.00  0.00    +0.000 HD
ENDBRANCH  17  26
BRANCH  19  28
ATOM     28  C   UNL     1      -8.909  53.042  49.706  0.00  0.00    +0.000 C 
BRANCH  28  29
ATOM     29  C   UNL     1      -7.478  53.577  49.500  0.00  0.00    +0.000 C 
BRANCH  29  30
ATOM     30  C   UNL     1      -6.910  54.388  50.678  0.00  0.00    +0.000 C 
ATOM     31  C   UNL     1      -5.507  53.923  51.062  0.00  0.00    +0.000 C 
ATOM     32  C   UNL     1      -6.884  55.876  50.315  0.00  0.00    +0.000 C 
ENDBRANCH  29  30
ENDBRANCH  28  29
ENDBRANCH  19  28
ENDBRANCH   6  15
BRANCH  11  33
ATOM     33  O   UNL     1     -16.157  59.977  53.684  0.00  0.00    +0.000 OA
BRANCH  33  34
ATOM     34  C   UNL     1     -16.129  59.622  55.069  0.00  0.00    +0.000 C 
BRANCH  34  35
ATOM     35  C   UNL     1     -16.861  60.699  55.855  0.00  0.00    +0.000 C 
ATOM     36  C   UNL     1     -17.614  61.627  54.920  0.00  0.00    +0.000 C 
ENDBRANCH  34  35
ENDBRANCH  33  34
ENDBRANCH  11  33
TORSDOF 8
ENDMDL
MODEL 3
REMARK VINA RESULT:      -7.5      1.071      3.277
REMARK  Name = 352944
REMARK  11 active torsions:
REMARK  status: ('A' for Active; 'I' for Inactive)
REMARK    1  A    between atoms: C_6  and  C_10
REMARK    2  A    between atoms: C_12  and  O_16
REMARK    3  A    between atoms: C_14  and  O_19
REMARK    4  A    between atoms: O_16  and  C_21
REMARK    5  A    between atoms: N_18  and  C_23
REMARK    6  A    between atoms: C_21  and  C_25
REMARK    7  A    between atoms: C_23  and  C_27
REMARK    8  A    between atoms: C_25  and  C_29
REMARK    9  A    between atoms: C_27  and  C_31
REMARK   10  A    between atoms: C_31  and  C_32
REMARK   11  A    between atoms: C_31  and  C_33
REMARK                            x       y       z     vdW  Elec       q    Type
REMARK                         _______ _______ _______ _____ _____    ______ ____
ROOT
ATOM      1  S   UNL     1     -13.461  58.881  49.417  0.00  0.00    +0.000 S 
ATOM      2  O   UNL     1     -14.467  58.800  48.385  0.00  0.00    +0.000 OA
ATOM      3  O   UNL     1     -12.652  60.064  49.606  0.00  0.00    +0.000 OA
ATOM      4  N   UNL     1     -12.428  57.609  49.236  0.00  0.00    +0.000 N 
ATOM      5  C   UNL     1     -14.211  58.487  50.939  0.00  0.00    +0.000 A 
ATOM      6  C   UNL     1     -12.743  56.336  49.691  0.00  0.00    +0.000 C 
ATOM      7  C   UNL     1     -14.163  57.167  51.368  0.00  0.00    +0.000 A 
ATOM      8  C   UNL     1     -14.825  59.490  51.684  0.00  0.00    +0.000 A 
ATOM      9  N   UNL     1     -13.586  56.116  50.650  0.00  0.00    +0.000 N 
ATOM     10  C   UNL     1     -14.738  56.855  52.600  0.00  0.00    +0.000 A 
ATOM     11  C   UNL     1     -15.428  59.157  52.893  0.00  0.00    +0.000 A 
ATOM     12  C   UNL     1     -15.359  57.846  53.363  0.00  0.00    +0.000 A 
ATOM     13  H   UNL     1     -11.562  57.758  48.792  0.00  0.00    +0.000 HD
ATOM     14  H   UNL     1     -13.826  55.189  50.878  0.00  0.00    +0.000 HD
ENDROOT
BRANCH   6  15
ATOM     15  C   UNL     1     -12.082  55.212  48.987  0.00  0.00    +0.000 A 
ATOM     16  C   UNL     1     -11.339  54.163  49.732  0.00  0.00    +0.000 A 
ATOM     17  C   UNL     1     -12.121  55.192  47.643  0.00  0.00    +0.000 A 
ATOM     18  O   UNL     1     -11.231  54.272  50.956  0.00  0.00    +0.000 OA
ATOM     19  N   UNL     1     -10.815  53.101  49.017  0.00  0.00    +0.000 N 
ATOM     20  C   UNL     1     -11.413  54.147  46.908  0.00  0.00    +0.000 A 
ATOM     21  C   UNL     1     -10.781  53.107  47.595  0.00  0.00    +0.000 A 
ATOM     22  C   UNL     1     -11.322  54.178  45.510  0.00  0.00    +0.000 A 
ATOM     23  N   UNL     1     -10.098  52.134  46.949  0.00  0.00    +0.000 NA
ATOM     24  C   UNL     1     -10.596  53.203  44.844  0.00  0.00    +0.000 A 
ATOM     25  C   UNL     1     -10.014  52.207  45.600  0.00  0.00    +0.000 A 
BRANCH  17  26
ATOM     26  O   UNL     1     -12.763  56.130  46.849  0.00  0.00    +0.000 OA
ATOM     27  H   UNL     1     -13.462  55.864  46.284  0.00  0.00    +0.000 HD
ENDBRANCH  17  26
BRANCH  19  28
ATOM     28  C   UNL     1     -10.117  52.046  49.751  0.00  0.00    +0.000 C 
BRANCH  28  29
ATOM     29  C   UNL     1     -11.042  50.947  50.309  0.00  0.00    +0.000 C 
BRANCH  29  30
ATOM     30  C   UNL     1     -10.428  49.536  50.350  0.00  0.00    +0.000 C 
ATOM     31  C   UNL     1      -9.712  49.192  49.046  0.00  0.00    +0.000 C 
ATOM     32  C   UNL     1      -9.449  49.433  51.524  0.00  0.00    +0.000 C 
ENDBRANCH  29  30
ENDBRANCH  28  29
ENDBRANCH  19  28
ENDBRANCH   6  15
BRANCH  11  33
ATOM     33  O   UNL     1     -16.077  60.046  53.702  0.00  0.00    +0.000 OA
BRANCH  33  34
ATOM     34  C   UNL     1     -16.093  59.678  55.083  0.00  0.00    +0.000 C 
BRANCH  34  35
ATOM     35  C   UNL     1     -16.880  60.729  55.851  0.00  0.00    +0.000 C 
ATOM     36  C   UNL     1     -17.629  61.641  54.897  0.00  0.00    +0.000 C 
ENDBRANCH  34  35
ENDBRANCH  33  34
ENDBRANCH  11  33
TORSDOF 8
ENDMDL
MODEL 4
REMARK VINA RESULT:      -7.5      4.667      6.006
REMARK  Name = 352944
REMARK  11 active torsions:
REMARK  status: ('A' for Active; 'I' for Inactive)
REMARK    1  A    between atoms: C_6  and  C_10
REMARK    2  A    between atoms: C_12  and  O_16
REMARK    3  A    between atoms: C_14  and  O_19
REMARK    4  A    between atoms: O_16  and  C_21
REMARK    5  A    between atoms: N_18  and  C_23
REMARK    6  A    between atoms: C_21  and  C_25
REMARK    7  A    between atoms: C_23  and  C_27
REMARK    8  A    between atoms: C_25  and  C_29
REMARK    9  A    between atoms: C_27  and  C_31
REMARK   10  A    between atoms: C_31  and  C_32
REMARK   11  A    between atoms: C_31  and  C_33
REMARK                            x       y       z     vdW  Elec       q    Type
REMARK                         _______ _______ _______ _____ _____    ______ ____
ROOT
ATOM      1  S   UNL     1     -11.780  54.924  48.109  0.00  0.00    +0.000 S 
ATOM      2  O   UNL     1     -12.323  53.603  47.899  0.00  0.00    +0.000 OA
ATOM      3  O   UNL     1     -11.947  55.982  47.139  0.00  0.00    +0.000 OA
ATOM      4  N   UNL     1     -10.165  54.781  48.402  0.00  0.00    +0.000 N 
ATOM      5  C   UNL     1     -12.348  55.505  49.650  0.00  0.00    +0.000 A 
ATOM      6  C   UNL     1      -9.671  54.418  49.648  0.00  0.00    +0.000 C 
ATOM      7  C   UNL     1     -11.546  55.290  50.764  0.00  0.00    +0.000 A 
ATOM      8  C   UNL     1     -13.568  56.169  49.729  0.00  0.00    +0.000 A 
ATOM      9  N   UNL     1     -10.327  54.606  50.750  0.00  0.00    +0.000 N 
ATOM     10  C   UNL     1     -11.985  55.780  51.994  0.00  0.00    +0.000 A 
ATOM     11  C   UNL     1     -14.011  56.619  50.968  0.00  0.00    +0.000 A 
ATOM     12  C   UNL     1     -13.207  56.449  52.095  0.00  0.00    +0.000 A 
ATOM     13  H   UNL     1      -9.530  54.959  47.670  0.00  0.00    +0.000 HD
ATOM     14  H   UNL     1      -9.960  54.259  51.594  0.00  0.00    +0.000 HD
ENDROOT
BRANCH   6  15
ATOM     15  C   UNL     1      -8.345  53.757  49.655  0.00  0.00    +0.000 A 
ATOM     16  C   UNL     1      -7.199  54.335  50.403  0.00  0.00    +0.000 A 
ATOM     17  C   UNL     1      -8.185  52.644  48.918  0.00  0.00    +0.000 A 
ATOM     18  O   UNL     1      -7.352  55.414  50.979  0.00  0.00    +0.000 OA
ATOM     19  N   UNL     1      -6.013  53.622  50.431  0.00  0.00    +0.000 N 
ATOM     20  C   UNL     1      -6.873  52.008  48.834  0.00  0.00    +0.000 A 
ATOM     21  C   UNL     1      -5.806  52.490  49.596  0.00  0.00    +0.000 A 
ATOM     22  C   UNL     1      -6.644  50.931  47.968  0.00  0.00    +0.000 A 
ATOM     23  N   UNL     1      -4.572  51.940  49.528  0.00  0.00    +0.000 NA
ATOM     24  C   UNL     1      -5.375  50.383  47.868  0.00  0.00    +0.000 A 
ATOM     25  C   UNL     1      -4.382  50.913  48.667  0.00  0.00    +0.000 A 
BRANCH  17  26
ATOM     26  O   UNL     1      -9.178  52.035  48.166  0.00  0.00    +0.000 OA
ATOM     27  H   UNL     1      -9.006  51.787  47.279  0.00  0.00    +0.000 HD
ENDBRANCH  17  26
BRANCH  19  28
ATOM     28  C   UNL     1      -4.893  54.167  51.199  0.00  0.00    +0.000 C 
BRANCH  28  29
ATOM     29  C   UNL     1      -4.865  53.724  52.676  0.00  0.00    +0.000 C 
BRANCH  29  30
ATOM     30  C   UNL     1      -5.150  54.841  53.696  0.00  0.00    +0.000 C 
ATOM     31  C   UNL     1      -6.105  54.376  54.793  0.00  0.00    +0.000 C 
ATOM     32  C   UNL     1      -3.835  55.318  54.319  0.00  0.00    +0.000 C 
ENDBRANCH  29  30
ENDBRANCH  28  29
ENDBRANCH  19  28
ENDBRANCH   6  15
BRANCH  11  33
ATOM     33  O   UNL     1     -15.197  57.264  51.176  0.00  0.00    +0.000 OA
BRANCH  33  34
ATOM     34  C   UNL     1     -15.061  58.587  51.703  0.00  0.00    +0.000 C 
BRANCH  34  35
ATOM     35  C   UNL     1     -15.175  59.575  50.552  0.00  0.00    +0.000 C 
ATOM     36  C   UNL     1     -13.800  60.020  50.088  0.00  0.00    +0.000 C 
ENDBRANCH  34  35
ENDBRANCH  33  34
ENDBRANCH  11  33
TORSDOF 8
ENDMDL
MODEL 5
REMARK VINA RESULT:      -7.4      2.703      4.675
REMARK  Name = 352944
REMARK  11 active torsions:
REMARK  status: ('A' for Active; 'I' for Inactive)
REMARK    1  A    between atoms: C_6  and  C_10
REMARK    2  A    between atoms: C_12  and  O_16
REMARK    3  A    between atoms: C_14  and  O_19
REMARK    4  A    between atoms: O_16  and  C_21
REMARK    5  A    between atoms: N_18  and  C_23
REMARK    6  A    between atoms: C_21  and  C_25
REMARK    7  A    between atoms: C_23  and  C_27
REMARK    8  A    between atoms: C_25  and  C_29
REMARK    9  A    between atoms: C_27  and  C_31
REMARK   10  A    between atoms: C_31  and  C_32
REMARK   11  A    between atoms: C_31  and  C_33
REMARK                            x       y       z     vdW  Elec       q    Type
REMARK                         _______ _______ _______ _____ _____    ______ ____
ROOT
ATOM      1  S   UNL     1     -11.388  55.033  50.546  0.00  0.00    +0.000 S 
ATOM      2  O   UNL     1     -10.169  55.735  50.870  0.00  0.00    +0.000 OA
ATOM      3  O   UNL     1     -12.147  54.316  51.547  0.00  0.00    +0.000 OA
ATOM      4  N   UNL     1     -11.069  53.972  49.326  0.00  0.00    +0.000 N 
ATOM      5  C   UNL     1     -12.462  56.148  49.747  0.00  0.00    +0.000 A 
ATOM      6  C   UNL     1     -10.992  54.377  48.000  0.00  0.00    +0.000 C 
ATOM      7  C   UNL     1     -12.436  56.195  48.359  0.00  0.00    +0.000 A 
ATOM      8  C   UNL     1     -13.313  56.947  50.504  0.00  0.00    +0.000 A 
ATOM      9  N   UNL     1     -11.585  55.438  47.550  0.00  0.00    +0.000 N 
ATOM     10  C   UNL     1     -13.315  57.066  47.715  0.00  0.00    +0.000 A 
ATOM     11  C   UNL     1     -14.157  57.839  49.850  0.00  0.00    +0.000 A 
ATOM     12  C   UNL     1     -14.178  57.878  48.455  0.00  0.00    +0.000 A 
ATOM     13  H   UNL     1     -10.928  53.022  49.545  0.00  0.00    +0.000 HD
ATOM     14  H   UNL     1     -11.431  55.717  46.619  0.00  0.00    +0.000 HD
ENDROOT
BRANCH   6  15
ATOM     15  C   UNL     1     -10.150  53.541  47.113  0.00  0.00    +0.000 A 
ATOM     16  C   UNL     1      -8.813  53.060  47.544  0.00  0.00    +0.000 A 
ATOM     17  C   UNL     1     -10.603  53.271  45.876  0.00  0.00    +0.000 A 
ATOM     18  O   UNL     1      -8.383  53.417  48.644  0.00  0.00    +0.000 OA
ATOM     19  N   UNL     1      -8.117  52.218  46.696  0.00  0.00    +0.000 N 
ATOM     20  C   UNL     1      -9.769  52.519  44.942  0.00  0.00    +0.000 A 
ATOM     21  C   UNL     1      -8.546  51.989  45.359  0.00  0.00    +0.000 A 
ATOM     22  C   UNL     1     -10.155  52.341  43.607  0.00  0.00    +0.000 A 
ATOM     23  N   UNL     1      -7.737  51.306  44.517  0.00  0.00    +0.000 NA
ATOM     24  C   UNL     1      -9.317  51.671  42.729  0.00  0.00    +0.000 A 
ATOM     25  C   UNL     1      -8.133  51.170  43.229  0.00  0.00    +0.000 A 
BRANCH  17  26
ATOM     26  O   UNL     1     -11.822  53.689  45.363  0.00  0.00    +0.000 OA
ATOM     27  H   UNL     1     -11.866  54.057  44.503  0.00  0.00    +0.000 HD
ENDBRANCH  17  26
BRANCH  19  28
ATOM     28  C   UNL     1      -6.816  51.709  47.133  0.00  0.00    +0.000 C 
BRANCH  28  29
ATOM     29  C   UNL     1      -5.681  52.751  47.081  0.00  0.00    +0.000 C 
BRANCH  29  30
ATOM     30  C   UNL     1      -4.837  52.859  48.363  0.00  0.00    +0.000 C 
ATOM     31  C   UNL     1      -4.930  54.249  48.987  0.00  0.00    +0.000 C 
ATOM     32  C   UNL     1      -5.297  51.803  49.373  0.00  0.00    +0.000 C 
ENDBRANCH  29  30
ENDBRANCH  28  29
ENDBRANCH  19  28
ENDBRANCH   6  15
BRANCH  11  33
ATOM     33  O   UNL     1     -15.021  58.688  50.481  0.00  0.00    +0.000 OA
BRANCH  33  34
ATOM     34  C   UNL     1     -14.442  59.409  51.571  0.00  0.00    +0.000 C 
BRANCH  34  35
ATOM     35  C   UNL     1     -15.313  59.201  52.801  0.00  0.00    +0.000 C 
ATOM     36  C   UNL     1     -15.267  57.753  53.252  0.00  0.00    +0.000 C 
ENDBRANCH  34  35
ENDBRANCH  33  34
ENDBRANCH  11  33
TORSDOF 8
ENDMDL
MODEL 6
REMARK VINA RESULT:      -7.3      1.856      2.509
REMARK  Name = 352944
REMARK  11 active torsions:
REMARK  status: ('A' for Active; 'I' for Inactive)
REMARK    1  A    between atoms: C_6  and  C_10
REMARK    2  A    between atoms: C_12  and  O_16
REMARK    3  A    between atoms: C_14  and  O_19
REMARK    4  A    between atoms: O_16  and  C_21
REMARK    5  A    between atoms: N_18  and  C_23
REMARK    6  A    between atoms: C_21  and  C_25
REMARK    7  A    between atoms: C_23  and  C_27
REMARK    8  A    between atoms: C_25  and  C_29
REMARK    9  A    between atoms: C_27  and  C_31
REMARK   10  A    between atoms: C_31  and  C_32
REMARK   11  A    between atoms: C_31  and  C_33
REMARK                            x       y       z     vdW  Elec       q    Type
REMARK                         _______ _______ _______ _____ _____    ______ ____
ROOT
ATOM      1  S   UNL     1     -13.368  59.020  49.364  0.00  0.00    +0.000 S 
ATOM      2  O   UNL     1     -14.342  58.682  48.353  0.00  0.00    +0.000 OA
ATOM      3  O   UNL     1     -12.819  60.352  49.482  0.00  0.00    +0.000 OA
ATOM      4  N   UNL     1     -12.098  57.980  49.230  0.00  0.00    +0.000 N 
ATOM      5  C   UNL     1     -14.014  58.560  50.915  0.00  0.00    +0.000 A 
ATOM      6  C   UNL     1     -12.141  56.694  49.752  0.00  0.00    +0.000 C 
ATOM      7  C   UNL     1     -13.694  57.302  51.407  0.00  0.00    +0.000 A 
ATOM      8  C   UNL     1     -14.817  59.453  51.619  0.00  0.00    +0.000 A 
ATOM      9  N   UNL     1     -12.916  56.356  50.734  0.00  0.00    +0.000 N 
ATOM     10  C   UNL     1     -14.186  56.943  52.662  0.00  0.00    +0.000 A 
ATOM     11  C   UNL     1     -15.332  59.066  52.852  0.00  0.00    +0.000 A 
ATOM     12  C   UNL     1     -14.994  57.822  53.385  0.00  0.00    +0.000 A 
ATOM     13  H   UNL     1     -11.283  58.279  48.766  0.00  0.00    +0.000 HD
ATOM     14  H   UNL     1     -12.960  55.412  51.010  0.00  0.00    +0.000 HD
ENDROOT
BRANCH   6  15
ATOM     15  C   UNL     1     -11.267  55.695  49.094  0.00  0.00    +0.000 A 
ATOM     16  C   UNL     1     -11.808  54.406  48.592  0.00  0.00    +0.000 A 
ATOM     17  C   UNL     1      -9.951  55.958  49.011  0.00  0.00    +0.000 A 
ATOM     18  O   UNL     1     -12.999  54.151  48.783  0.00  0.00    +0.000 OA
ATOM     19  N   UNL     1     -10.950  53.556  47.918  0.00  0.00    +0.000 N 
ATOM     20  C   UNL     1      -9.043  54.965  48.443  0.00  0.00    +0.000 A 
ATOM     21  C   UNL     1      -9.547  53.784  47.891  0.00  0.00    +0.000 A 
ATOM     22  C   UNL     1      -7.655  55.153  48.468  0.00  0.00    +0.000 A 
ATOM     23  N   UNL     1      -8.735  52.832  47.376  0.00  0.00    +0.000 NA
ATOM     24  C   UNL     1      -6.815  54.168  47.972  0.00  0.00    +0.000 A 
ATOM     25  C   UNL     1      -7.399  53.039  47.435  0.00  0.00    +0.000 A 
BRANCH  17  26
ATOM     26  O   UNL     1      -9.338  57.115  49.466  0.00  0.00    +0.000 OA
ATOM     27  H   UNL     1      -8.847  57.101  50.264  0.00  0.00    +0.000 HD
ENDBRANCH  17  26
BRANCH  19  28
ATOM     28  C   UNL     1     -11.487  52.303  47.387  0.00  0.00    +0.000 C 
BRANCH  28  29
ATOM     29  C   UNL     1     -12.188  52.444  46.021  0.00  0.00    +0.000 C 
BRANCH  29  30
ATOM     30  C   UNL     1     -11.422  51.841  44.830  0.00  0.00    +0.000 C 
ATOM     31  C   UNL     1     -10.499  52.864  44.174  0.00  0.00    +0.000 C 
ATOM     32  C   UNL     1     -10.608  50.631  45.300  0.00  0.00    +0.000 C 
ENDBRANCH  29  30
ENDBRANCH  28  29
ENDBRANCH  19  28
ENDBRANCH   6  15
BRANCH  11  33
ATOM     33  O   UNL     1     -16.147  59.843  53.626  0.00  0.00    +0.000 OA
BRANCH  33  34
ATOM     34  C   UNL     1     -16.087  59.545  55.023  0.00  0.00    +0.000 C 
BRANCH  34  35
ATOM     35  C   UNL     1     -16.801  60.654  55.781  0.00  0.00    +0.000 C 
ATOM     36  C   UNL     1     -17.527  61.578  54.822  0.00  0.00    +0.000 C 
ENDBRANCH  34  35
ENDBRANCH  33  34
ENDBRANCH  11  33
TORSDOF 8
ENDMDL
MODEL 7
REMARK VINA RESULT:      -7.3      4.938      9.557
REMARK  Name = 352944
REMARK  11 active torsions:
REMARK  status: ('A' for Active; 'I' for Inactive)
REMARK    1  A    between atoms: C_6  and  C_10
REMARK    2  A    between atoms: C_12  and  O_16
REMARK    3  A    between atoms: C_14  and  O_19
REMARK    4  A    between atoms: O_16  and  C_21
REMARK    5  A    between atoms: N_18  and  C_23
REMARK    6  A    between atoms: C_21  and  C_25
REMARK    7  A    between atoms: C_23  and  C_27
REMARK    8  A    between atoms: C_25  and  C_29
REMARK    9  A    between atoms: C_27  and  C_31
REMARK   10  A    between atoms: C_31  and  C_32
REMARK   11  A    between atoms: C_31  and  C_33
REMARK                            x       y       z     vdW  Elec       q    Type
REMARK                         _______ _______ _______ _____ _____    ______ ____
ROOT
ATOM      1  S   UNL     1      -7.457  54.899  53.193  0.00  0.00    +0.000 S 
ATOM      2  O   UNL     1      -8.225  54.089  54.109  0.00  0.00    +0.000 OA
ATOM      3  O   UNL     1      -6.525  55.902  53.656  0.00  0.00    +0.000 OA
ATOM      4  N   UNL     1      -8.500  55.644  52.157  0.00  0.00    +0.000 N 
ATOM      5  C   UNL     1      -6.610  53.833  52.105  0.00  0.00    +0.000 A 
ATOM      6  C   UNL     1      -9.045  54.986  51.063  0.00  0.00    +0.000 C 
ATOM      7  C   UNL     1      -7.218  53.519  50.897  0.00  0.00    +0.000 A 
ATOM      8  C   UNL     1      -5.360  53.336  52.461  0.00  0.00    +0.000 A 
ATOM      9  N   UNL     1      -8.481  53.965  50.498  0.00  0.00    +0.000 N 
ATOM     10  C   UNL     1      -6.530  52.689  50.011  0.00  0.00    +0.000 A 
ATOM     11  C   UNL     1      -4.702  52.480  51.585  0.00  0.00    +0.000 A 
ATOM     12  C   UNL     1      -5.275  52.179  50.349  0.00  0.00    +0.000 A 
ATOM     13  H   UNL     1      -8.743  56.584  52.320  0.00  0.00    +0.000 HD
ATOM     14  H   UNL     1      -8.953  53.493  49.775  0.00  0.00    +0.000 HD
ENDROOT
BRANCH   6  15
ATOM     15  C   UNL     1     -10.351  55.496  50.583  0.00  0.00    +0.000 A 
ATOM     16  C   UNL     1     -11.507  55.647  51.504  0.00  0.00    +0.000 A 
ATOM     17  C   UNL     1     -10.485  55.768  49.273  0.00  0.00    +0.000 A 
ATOM     18  O   UNL     1     -11.380  55.285  52.676  0.00  0.00    +0.000 OA
ATOM     19  N   UNL     1     -12.671  56.203  51.005  0.00  0.00    +0.000 N 
ATOM     20  C   UNL     1     -11.779  56.194  48.746  0.00  0.00    +0.000 A 
ATOM     21  C   UNL     1     -12.853  56.421  49.611  0.00  0.00    +0.000 A 
ATOM     22  C   UNL     1     -11.985  56.352  47.369  0.00  0.00    +0.000 A 
ATOM     23  N   UNL     1     -14.071  56.796  49.157  0.00  0.00    +0.000 NA
ATOM     24  C   UNL     1     -13.238  56.704  46.893  0.00  0.00    +0.000 A 
ATOM     25  C   UNL     1     -14.238  56.920  47.820  0.00  0.00    +0.000 A 
BRANCH  17  26
ATOM     26  O   UNL     1      -9.483  55.640  48.325  0.00  0.00    +0.000 OA
ATOM     27  H   UNL     1      -9.492  56.180  47.559  0.00  0.00    +0.000 HD
ENDBRANCH  17  26
BRANCH  19  28
ATOM     28  C   UNL     1     -13.800  56.391  51.917  0.00  0.00    +0.000 C 
BRANCH  28  29
ATOM     29  C   UNL     1     -13.859  57.786  52.570  0.00  0.00    +0.000 C 
BRANCH  29  30
ATOM     30  C   UNL     1     -15.160  58.568  52.318  0.00  0.00    +0.000 C 
ATOM     31  C   UNL     1     -15.611  59.333  53.560  0.00  0.00    +0.000 C 
ATOM     32  C   UNL     1     -14.959  59.542  51.152  0.00  0.00    +0.000 C 
ENDBRANCH  29  30
ENDBRANCH  28  29
ENDBRANCH  19  28
ENDBRANCH   6  15
BRANCH  11  33
ATOM     33  O   UNL     1      -3.484  51.912  51.830  0.00  0.00    +0.000 OA
BRANCH  33  34
ATOM     34  C   UNL     1      -3.329  50.598  51.288  0.00  0.00    +0.000 C 
BRANCH  34  35
ATOM     35  C   UNL     1      -3.334  49.601  52.436  0.00  0.00    +0.000 C 
ATOM     36  C   UNL     1      -3.312  50.321  53.772  0.00  0.00    +0.000 C 
ENDBRANCH  34  35
ENDBRANCH  33  34
ENDBRANCH  11  33
TORSDOF 8
ENDMDL
MODEL 8
REMARK VINA RESULT:      -7.1      4.708      8.324
REMARK  Name = 352944
REMARK  11 active torsions:
REMARK  status: ('A' for Active; 'I' for Inactive)
REMARK    1  A    between atoms: C_6  and  C_10
REMARK    2  A    between atoms: C_12  and  O_16
REMARK    3  A    between atoms: C_14  and  O_19
REMARK    4  A    between atoms: O_16  and  C_21
REMARK    5  A    between atoms: N_18  and  C_23
REMARK    6  A    between atoms: C_21  and  C_25
REMARK    7  A    between atoms: C_23  and  C_27
REMARK    8  A    between atoms: C_25  and  C_29
REMARK    9  A    between atoms: C_27  and  C_31
REMARK   10  A    between atoms: C_31  and  C_32
REMARK   11  A    between atoms: C_31  and  C_33
REMARK                            x       y       z     vdW  Elec       q    Type
REMARK                         _______ _______ _______ _____ _____    ______ ____
ROOT
ATOM      1  S   UNL     1      -9.601  52.180  52.728  0.00  0.00    +0.000 S 
ATOM      2  O   UNL     1      -9.880  50.970  51.992  0.00  0.00    +0.000 OA
ATOM      3  O   UNL     1      -9.946  52.322  54.125  0.00  0.00    +0.000 OA
ATOM      4  N   UNL     1     -10.287  53.446  51.927  0.00  0.00    +0.000 N 
ATOM      5  C   UNL     1      -7.908  52.548  52.547  0.00  0.00    +0.000 A 
ATOM      6  C   UNL     1      -9.688  54.026  50.817  0.00  0.00    +0.000 C 
ATOM      7  C   UNL     1      -7.534  53.405  51.520  0.00  0.00    +0.000 A 
ATOM      8  C   UNL     1      -6.984  51.991  53.426  0.00  0.00    +0.000 A 
ATOM      9  N   UNL     1      -8.413  53.971  50.592  0.00  0.00    +0.000 N 
ATOM     10  C   UNL     1      -6.183  53.725  51.391  0.00  0.00    +0.000 A 
ATOM     11  C   UNL     1      -5.635  52.289  53.261  0.00  0.00    +0.000 A 
ATOM     12  C   UNL     1      -5.238  53.177  52.261  0.00  0.00    +0.000 A 
ATOM     13  H   UNL     1     -11.148  53.802  52.246  0.00  0.00    +0.000 HD
ATOM     14  H   UNL     1      -8.056  54.334  49.750  0.00  0.00    +0.000 HD
ENDROOT
BRANCH   6  15
ATOM     15  C   UNL     1     -10.601  54.693  49.860  0.00  0.00    +0.000 A 
ATOM     16  C   UNL     1     -10.449  54.513  48.393  0.00  0.00    +0.000 A 
ATOM     17  C   UNL     1     -11.543  55.518  50.349  0.00  0.00    +0.000 A 
ATOM     18  O   UNL     1      -9.507  53.836  47.975  0.00  0.00    +0.000 OA
ATOM     19  N   UNL     1     -11.386  55.102  47.562  0.00  0.00    +0.000 N 
ATOM     20  C   UNL     1     -12.411  56.258  49.436  0.00  0.00    +0.000 A 
ATOM     21  C   UNL     1     -12.336  56.037  48.058  0.00  0.00    +0.000 A 
ATOM     22  C   UNL     1     -13.306  57.226  49.911  0.00  0.00    +0.000 A 
ATOM     23  N   UNL     1     -13.108  56.719  47.181  0.00  0.00    +0.000 NA
ATOM     24  C   UNL     1     -14.077  57.952  49.016  0.00  0.00    +0.000 A 
ATOM     25  C   UNL     1     -13.948  57.659  47.674  0.00  0.00    +0.000 A 
BRANCH  17  26
ATOM     26  O   UNL     1     -11.757  55.777  51.694  0.00  0.00    +0.000 OA
ATOM     27  H   UNL     1     -12.627  55.924  52.010  0.00  0.00    +0.000 HD
ENDBRANCH  17  26
BRANCH  19  28
ATOM     28  C   UNL     1     -11.264  54.895  46.119  0.00  0.00    +0.000 C 
BRANCH  28  29
ATOM     29  C   UNL     1     -11.895  53.582  45.614  0.00  0.00    +0.000 C 
BRANCH  29  30
ATOM     30  C   UNL     1     -11.142  52.900  44.459  0.00  0.00    +0.000 C 
ATOM     31  C   UNL     1      -9.639  53.159  44.529  0.00  0.00    +0.000 C 
ATOM     32  C   UNL     1     -11.411  51.392  44.487  0.00  0.00    +0.000 C 
ENDBRANCH  29  30
ENDBRANCH  28  29
ENDBRANCH  19  28
ENDBRANCH   6  15
BRANCH  11  33
ATOM     33  O   UNL     1      -4.634  51.789  54.045  0.00  0.00    +0.000 OA
BRANCH  33  34
ATOM     34  C   UNL     1      -3.436  51.469  53.333  0.00  0.00    +0.000 C 
BRANCH  34  35
ATOM     35  C   UNL     1      -3.419  49.970  53.074  0.00  0.00    +0.000 C 
ATOM     36  C   UNL     1      -3.510  49.681  51.587  0.00  0.00    +0.000 C 
ENDBRANCH  34  35
ENDBRANCH  33  34
ENDBRANCH  11  33
TORSDOF 8
ENDMDL
MODEL 9
REMARK VINA RESULT:      -7.0      5.317      6.671
REMARK  Name = 352944
REMARK  11 active torsions:
REMARK  status: ('A' for Active; 'I' for Inactive)
REMARK    1  A    between atoms: C_6  and  C_10
REMARK    2  A    between atoms: C_12  and  O_16
REMARK    3  A    between atoms: C_14  and  O_19
REMARK    4  A    between atoms: O_16  and  C_21
REMARK    5  A    between atoms: N_18  and  C_23
REMARK    6  A    between atoms: C_21  and  C_25
REMARK    7  A    between atoms: C_23  and  C_27
REMARK    8  A    between atoms: C_25  and  C_29
REMARK    9  A    between atoms: C_27  and  C_31
REMARK   10  A    between atoms: C_31  and  C_32
REMARK   11  A    between atoms: C_31  and  C_33
REMARK                            x       y       z     vdW  Elec       q    Type
REMARK                         _______ _______ _______ _____ _____    ______ ____
ROOT
ATOM      1  S   UNL     1     -10.818  54.306  49.500  0.00  0.00    +0.000 S 
ATOM      2  O   UNL     1     -11.453  53.020  49.340  0.00  0.00    +0.000 OA
ATOM      3  O   UNL     1     -10.213  55.004  48.388  0.00  0.00    +0.000 OA
ATOM      4  N   UNL     1      -9.671  54.178  50.676  0.00  0.00    +0.000 N 
ATOM      5  C   UNL     1     -11.957  55.383  50.261  0.00  0.00    +0.000 A 
ATOM      6  C   UNL     1      -9.995  54.209  52.026  0.00  0.00    +0.000 C 
ATOM      7  C   UNL     1     -11.924  55.494  51.645  0.00  0.00    +0.000 A 
ATOM      8  C   UNL     1     -12.854  56.103  49.477  0.00  0.00    +0.000 A 
ATOM      9  N   UNL     1     -11.066  54.777  52.483  0.00  0.00    +0.000 N 
ATOM     10  C   UNL     1     -12.816  56.377  52.254  0.00  0.00    +0.000 A 
ATOM     11  C   UNL     1     -13.763  56.951  50.101  0.00  0.00    +0.000 A 
ATOM     12  C   UNL     1     -13.725  57.109  51.487  0.00  0.00    +0.000 A 
ATOM     13  H   UNL     1      -8.728  54.076  50.413  0.00  0.00    +0.000 HD
ATOM     14  H   UNL     1     -11.281  54.700  53.440  0.00  0.00    +0.000 HD
ENDROOT
BRANCH   6  15
ATOM     15  C   UNL     1      -9.055  53.514  52.936  0.00  0.00    +0.000 A 
ATOM     16  C   UNL     1      -7.589  53.741  52.853  0.00  0.00    +0.000 A 
ATOM     17  C   UNL     1      -9.556  52.623  53.810  0.00  0.00    +0.000 A 
ATOM     18  O   UNL     1      -7.155  54.482  51.968  0.00  0.00    +0.000 OA
ATOM     19  N   UNL     1      -6.778  53.120  53.786  0.00  0.00    +0.000 N 
ATOM     20  C   UNL     1      -8.656  51.858  54.669  0.00  0.00    +0.000 A 
ATOM     21  C   UNL     1      -7.283  52.119  54.661  0.00  0.00    +0.000 A 
ATOM     22  C   UNL     1      -9.137  50.829  55.488  0.00  0.00    +0.000 A 
ATOM     23  N   UNL     1      -6.417  51.417  55.427  0.00  0.00    +0.000 NA
ATOM     24  C   UNL     1      -8.252  50.082  56.251  0.00  0.00    +0.000 A 
ATOM     25  C   UNL     1      -6.914  50.417  56.192  0.00  0.00    +0.000 A 
BRANCH  17  26
ATOM     26  O   UNL     1     -10.901  52.318  53.955  0.00  0.00    +0.000 OA
ATOM     27  H   UNL     1     -11.399  52.038  53.213  0.00  0.00    +0.000 HD
ENDBRANCH  17  26
BRANCH  19  28
ATOM     28  C   UNL     1      -5.338  53.372  53.733  0.00  0.00    +0.000 C 
BRANCH  28  29
ATOM     29  C   UNL     1      -4.683  53.009  52.386  0.00  0.00    +0.000 C 
BRANCH  29  30
ATOM     30  C   UNL     1      -4.132  51.575  52.294  0.00  0.00    +0.000 C 
ATOM     31  C   UNL     1      -3.555  51.103  53.627  0.00  0.00    +0.000 C 
ATOM     32  C   UNL     1      -5.245  50.623  51.843  0.00  0.00    +0.000 C 
ENDBRANCH  29  30
ENDBRANCH  28  29
ENDBRANCH  19  28
ENDBRANCH   6  15
BRANCH  11  33
ATOM     33  O   UNL     1     -14.703  57.693  49.444  0.00  0.00    +0.000 OA
BRANCH  33  34
ATOM     34  C   UNL     1     -14.161  58.685  48.570  0.00  0.00    +0.000 C 
BRANCH  34  35
ATOM     35  C   UNL     1     -14.360  60.050  49.211  0.00  0.00    +0.000 C 
ATOM     36  C   UNL     1     -13.048  60.582  49.758  0.00  0.00    +0.000 C 
ENDBRANCH  34  35
ENDBRANCH  33  34
ENDBRANCH  11  33
TORSDOF 8
ENDMDL
