MODEL 1
REMARK VINA RESULT:      -6.9      0.000      0.000
REMARK  Name = 353194
REMARK  9 active torsions:
REMARK  status: ('A' for Active; 'I' for Inactive)
REMARK    1  A    between atoms: C_6  and  C_10
REMARK    2  A    between atoms: C_12  and  N_16
REMARK    3  A    between atoms: C_14  and  O_19
REMARK    4  A    between atoms: N_18  and  C_23
REMARK    5  A    between atoms: C_21  and  C_26
REMARK    6  A    between atoms: C_23  and  C_28
REMARK    7  A    between atoms: C_28  and  C_34
REMARK    8  A    between atoms: C_34  and  C_35
REMARK    9  A    between atoms: C_34  and  C_36
REMARK                            x       y       z     vdW  Elec       q    Type
REMARK                         _______ _______ _______ _____ _____    ______ ____
ROOT
ATOM      1  S   UNL     1     -10.259  55.362  47.708  0.00  0.00    +0.000 S 
ATOM      2  O   UNL     1     -11.277  55.788  46.765  0.00  0.00    +0.000 OA
ATOM      3  O   UNL     1      -9.287  56.300  48.226  0.00  0.00    +0.000 OA
ATOM      4  N   UNL     1      -9.454  54.142  47.031  0.00  0.00    +0.000 N 
ATOM      5  C   UNL     1     -11.113  54.723  49.095  0.00  0.00    +0.000 A 
ATOM      6  C   UNL     1      -9.589  52.921  47.450  0.00  0.00    +0.000 C 
ATOM      7  C   UNL     1     -11.092  53.359  49.322  0.00  0.00    +0.000 A 
ATOM      8  C   UNL     1     -11.778  55.613  49.934  0.00  0.00    +0.000 A 
ATOM      9  N   UNL     1     -10.430  52.494  48.455  0.00  0.00    +0.000 N 
ATOM     10  C   UNL     1     -11.829  52.873  50.403  0.00  0.00    +0.000 A 
ATOM     11  C   UNL     1     -12.491  55.135  51.025  0.00  0.00    +0.000 A 
ATOM     12  C   UNL     1     -12.517  53.753  51.254  0.00  0.00    +0.000 A 
ATOM     13  H   UNL     1      -8.845  54.327  46.279  0.00  0.00    +0.000 HD
ATOM     14  H   UNL     1     -10.570  51.526  48.565  0.00  0.00    +0.000 HD
ENDROOT
BRANCH   6  15
ATOM     15  C   UNL     1      -8.697  51.914  46.768  0.00  0.00    +0.000 A 
ATOM     16  C   UNL     1      -7.575  51.287  47.531  0.00  0.00    +0.000 A 
ATOM     17  C   UNL     1      -8.903  51.588  45.480  0.00  0.00    +0.000 A 
ATOM     18  O   UNL     1      -7.476  51.528  48.738  0.00  0.00    +0.000 OA
ATOM     19  N   UNL     1      -6.703  50.466  46.849  0.00  0.00    +0.000 N 
ATOM     20  C   UNL     1      -7.974  50.692  44.793  0.00  0.00    +0.000 A 
ATOM     21  C   UNL     1      -6.872  50.168  45.471  0.00  0.00    +0.000 A 
ATOM     22  C   UNL     1      -8.129  50.379  43.438  0.00  0.00    +0.000 A 
ATOM     23  N   UNL     1      -5.954  49.380  44.862  0.00  0.00    +0.000 NA
ATOM     24  C   UNL     1      -7.191  49.576  42.804  0.00  0.00    +0.000 A 
ATOM     25  C   UNL     1      -6.130  49.108  43.552  0.00  0.00    +0.000 A 
BRANCH  17  26
ATOM     26  O   UNL     1      -9.934  52.070  44.694  0.00  0.00    +0.000 OA
ATOM     27  H   UNL     1      -9.747  52.465  43.865  0.00  0.00    +0.000 HD
ENDBRANCH  17  26
BRANCH  19  28
ATOM     28  C   UNL     1      -5.538  49.915  47.546  0.00  0.00    +0.000 C 
BRANCH  28  29
ATOM     29  C   UNL     1      -4.253  50.677  47.198  0.00  0.00    +0.000 C 
BRANCH  29  30
ATOM     30  C   UNL     1      -3.784  51.658  48.289  0.00  0.00    +0.000 C 
ATOM     31  C   UNL     1      -4.373  53.059  48.114  0.00  0.00    +0.000 C 
ATOM     32  C   UNL     1      -4.169  51.114  49.669  0.00  0.00    +0.000 C 
ENDBRANCH  29  30
ENDBRANCH  28  29
ENDBRANCH  19  28
ENDBRANCH   6  15
BRANCH  11  33
ATOM     33  N   UNL     1     -13.200  55.978  51.903  0.00  0.00    +0.000 N 
ATOM     34  C   UNL     1     -14.346  56.724  51.600  0.00  0.00    +0.000 C 
ATOM     35  O   UNL     1     -14.900  56.759  50.501  0.00  0.00    +0.000 OA
ATOM     36  H   UNL     1     -12.854  56.051  52.821  0.00  0.00    +0.000 HD
BRANCH  34  37
ATOM     37  C   UNL     1     -14.881  57.527  52.792  0.00  0.00    +0.000 C 
ATOM     38  F   UNL     1     -15.288  58.777  52.418  0.00  0.00    +0.000 F 
ATOM     39  F   UNL     1     -15.955  56.934  53.379  0.00  0.00    +0.000 F 
ATOM     40  F   UNL     1     -13.945  57.704  53.764  0.00  0.00    +0.000 F 
ENDBRANCH  34  37
ENDBRANCH  11  33
TORSDOF 7
ENDMDL
MODEL 2
REMARK VINA RESULT:      -6.8      1.596      1.804
REMARK  Name = 353194
REMARK  9 active torsions:
REMARK  status: ('A' for Active; 'I' for Inactive)
REMARK    1  A    between atoms: C_6  and  C_10
REMARK    2  A    between atoms: C_12  and  N_16
REMARK    3  A    between atoms: C_14  and  O_19
REMARK    4  A    between atoms: N_18  and  C_23
REMARK    5  A    between atoms: C_21  and  C_26
REMARK    6  A    between atoms: C_23  and  C_28
REMARK    7  A    between atoms: C_28  and  C_34
REMARK    8  A    between atoms: C_34  and  C_35
REMARK    9  A    between atoms: C_34  and  C_36
REMARK                            x       y       z     vdW  Elec       q    Type
REMARK                         _______ _______ _______ _____ _____    ______ ____
ROOT
ATOM      1  S   UNL     1      -8.963  55.389  49.513  0.00  0.00    +0.000 S 
ATOM      2  O   UNL     1      -8.224  56.585  49.156  0.00  0.00    +0.000 OA
ATOM      3  O   UNL     1      -8.960  54.890  50.871  0.00  0.00    +0.000 OA
ATOM      4  N   UNL     1      -8.453  54.201  48.550  0.00  0.00    +0.000 N 
ATOM      5  C   UNL     1     -10.636  55.710  49.111  0.00  0.00    +0.000 A 
ATOM      6  C   UNL     1      -9.199  53.729  47.599  0.00  0.00    +0.000 C 
ATOM      7  C   UNL     1     -11.201  55.055  48.032  0.00  0.00    +0.000 A 
ATOM      8  C   UNL     1     -11.348  56.608  49.902  0.00  0.00    +0.000 A 
ATOM      9  N   UNL     1     -10.456  54.175  47.253  0.00  0.00    +0.000 N 
ATOM     10  C   UNL     1     -12.520  55.374  47.702  0.00  0.00    +0.000 A 
ATOM     11  C   UNL     1     -12.668  56.908  49.591  0.00  0.00    +0.000 A 
ATOM     12  C   UNL     1     -13.251  56.287  48.479  0.00  0.00    +0.000 A 
ATOM     13  H   UNL     1      -7.554  53.826  48.687  0.00  0.00    +0.000 HD
ATOM     14  H   UNL     1     -10.848  53.854  46.408  0.00  0.00    +0.000 HD
ENDROOT
BRANCH   6  15
ATOM     15  C   UNL     1      -8.608  52.561  46.851  0.00  0.00    +0.000 A 
ATOM     16  C   UNL     1      -7.756  51.573  47.581  0.00  0.00    +0.000 A 
ATOM     17  C   UNL     1      -8.837  52.412  45.535  0.00  0.00    +0.000 A 
ATOM     18  O   UNL     1      -7.649  51.679  48.806  0.00  0.00    +0.000 OA
ATOM     19  N   UNL     1      -7.130  50.587  46.848  0.00  0.00    +0.000 N 
ATOM     20  C   UNL     1      -8.179  51.338  44.792  0.00  0.00    +0.000 A 
ATOM     21  C   UNL     1      -7.311  50.461  45.446  0.00  0.00    +0.000 A 
ATOM     22  C   UNL     1      -8.352  51.192  43.411  0.00  0.00    +0.000 A 
ATOM     23  N   UNL     1      -6.635  49.487  44.791  0.00  0.00    +0.000 NA
ATOM     24  C   UNL     1      -7.660  50.200  42.730  0.00  0.00    +0.000 A 
ATOM     25  C   UNL     1      -6.819  49.383  43.458  0.00  0.00    +0.000 A 
BRANCH  17  26
ATOM     26  O   UNL     1      -9.644  53.237  44.771  0.00  0.00    +0.000 OA
ATOM     27  H   UNL     1      -9.758  54.135  45.013  0.00  0.00    +0.000 HD
ENDBRANCH  17  26
BRANCH  19  28
ATOM     28  C   UNL     1      -6.212  49.664  47.520  0.00  0.00    +0.000 C 
BRANCH  28  29
ATOM     29  C   UNL     1      -4.785  50.224  47.583  0.00  0.00    +0.000 C 
BRANCH  29  30
ATOM     30  C   UNL     1      -4.229  50.381  49.011  0.00  0.00    +0.000 C 
ATOM     31  C   UNL     1      -4.213  51.837  49.480  0.00  0.00    +0.000 C 
ATOM     32  C   UNL     1      -5.067  49.544  49.983  0.00  0.00    +0.000 C 
ENDBRANCH  29  30
ENDBRANCH  28  29
ENDBRANCH  19  28
ENDBRANCH   6  15
BRANCH  11  33
ATOM     33  N   UNL     1     -13.440  57.819  50.338  0.00  0.00    +0.000 N 
ATOM     34  C   UNL     1     -14.148  57.543  51.515  0.00  0.00    +0.000 C 
ATOM     35  O   UNL     1     -14.207  56.445  52.068  0.00  0.00    +0.000 OA
ATOM     36  H   UNL     1     -13.487  58.741  49.998  0.00  0.00    +0.000 HD
BRANCH  34  37
ATOM     37  C   UNL     1     -14.874  58.767  52.088  0.00  0.00    +0.000 C 
ATOM     38  F   UNL     1     -15.676  59.362  51.154  0.00  0.00    +0.000 F 
ATOM     39  F   UNL     1     -15.678  58.451  53.138  0.00  0.00    +0.000 F 
ATOM     40  F   UNL     1     -14.014  59.728  52.521  0.00  0.00    +0.000 F 
ENDBRANCH  34  37
ENDBRANCH  11  33
TORSDOF 7
ENDMDL
MODEL 3
REMARK VINA RESULT:      -6.8      2.375      3.382
REMARK  Name = 353194
REMARK  9 active torsions:
REMARK  status: ('A' for Active; 'I' for Inactive)
REMARK    1  A    between atoms: C_6  and  C_10
REMARK    2  A    between atoms: C_12  and  N_16
REMARK    3  A    between atoms: C_14  and  O_19
REMARK    4  A    between atoms: N_18  and  C_23
REMARK    5  A    between atoms: C_21  and  C_26
REMARK    6  A    between atoms: C_23  and  C_28
REMARK    7  A    between atoms: C_28  and  C_34
REMARK    8  A    between atoms: C_34  and  C_35
REMARK    9  A    between atoms: C_34  and  C_36
REMARK                            x       y       z     vdW  Elec       q    Type
REMARK                         _______ _______ _______ _____ _____    ______ ____
ROOT
ATOM      1  S   UNL     1     -10.689  54.546  47.865  0.00  0.00    +0.000 S 
ATOM      2  O   UNL     1     -11.704  53.604  47.433  0.00  0.00    +0.000 OA
ATOM      3  O   UNL     1     -10.435  55.759  47.119  0.00  0.00    +0.000 OA
ATOM      4  N   UNL     1      -9.299  53.739  47.982  0.00  0.00    +0.000 N 
ATOM      5  C   UNL     1     -11.143  55.048  49.479  0.00  0.00    +0.000 A 
ATOM      6  C   UNL     1      -8.767  53.463  49.133  0.00  0.00    +0.000 C 
ATOM      7  C   UNL     1     -10.388  54.609  50.552  0.00  0.00    +0.000 A 
ATOM      8  C   UNL     1     -12.245  55.885  49.630  0.00  0.00    +0.000 A 
ATOM      9  N   UNL     1      -9.300  53.761  50.368  0.00  0.00    +0.000 N 
ATOM     10  C   UNL     1     -10.807  54.980  51.831  0.00  0.00    +0.000 A 
ATOM     11  C   UNL     1     -12.650  56.276  50.899  0.00  0.00    +0.000 A 
ATOM     12  C   UNL     1     -11.925  55.813  52.004  0.00  0.00    +0.000 A 
ATOM     13  H   UNL     1      -8.843  53.448  47.159  0.00  0.00    +0.000 HD
ATOM     14  H   UNL     1      -8.890  53.350  51.164  0.00  0.00    +0.000 HD
ENDROOT
BRANCH   6  15
ATOM     15  C   UNL     1      -7.422  52.783  49.063  0.00  0.00    +0.000 A 
ATOM     16  C   UNL     1      -6.354  53.161  50.037  0.00  0.00    +0.000 A 
ATOM     17  C   UNL     1      -7.183  51.850  48.126  0.00  0.00    +0.000 A 
ATOM     18  O   UNL     1      -6.637  53.944  50.948  0.00  0.00    +0.000 OA
ATOM     19  N   UNL     1      -5.099  52.614  49.871  0.00  0.00    +0.000 N 
ATOM     20  C   UNL     1      -5.847  51.269  47.994  0.00  0.00    +0.000 A 
ATOM     21  C   UNL     1      -4.817  51.678  48.842  0.00  0.00    +0.000 A 
ATOM     22  C   UNL     1      -5.551  50.338  46.992  0.00  0.00    +0.000 A 
ATOM     23  N   UNL     1      -3.550  51.211  48.722  0.00  0.00    +0.000 NA
ATOM     24  C   UNL     1      -4.256  49.857  46.857  0.00  0.00    +0.000 A 
ATOM     25  C   UNL     1      -3.300  50.322  47.738  0.00  0.00    +0.000 A 
BRANCH  17  26
ATOM     26  O   UNL     1      -8.109  51.391  47.206  0.00  0.00    +0.000 OA
ATOM     27  H   UNL     1      -8.768  51.970  46.876  0.00  0.00    +0.000 HD
ENDBRANCH  17  26
BRANCH  19  28
ATOM     28  C   UNL     1      -4.006  53.039  50.749  0.00  0.00    +0.000 C 
BRANCH  28  29
ATOM     29  C   UNL     1      -3.895  52.147  51.992  0.00  0.00    +0.000 C 
BRANCH  29  30
ATOM     30  C   UNL     1      -3.921  52.917  53.327  0.00  0.00    +0.000 C 
ATOM     31  C   UNL     1      -3.572  54.397  53.161  0.00  0.00    +0.000 C 
ATOM     32  C   UNL     1      -5.308  52.790  53.966  0.00  0.00    +0.000 C 
ENDBRANCH  29  30
ENDBRANCH  28  29
ENDBRANCH  19  28
ENDBRANCH   6  15
BRANCH  11  33
ATOM     33  N   UNL     1     -13.765  57.107  51.123  0.00  0.00    +0.000 N 
ATOM     34  C   UNL     1     -13.966  58.391  50.602  0.00  0.00    +0.000 C 
ATOM     35  O   UNL     1     -13.179  58.993  49.871  0.00  0.00    +0.000 OA
ATOM     36  H   UNL     1     -14.473  56.748  51.704  0.00  0.00    +0.000 HD
BRANCH  34  37
ATOM     37  C   UNL     1     -15.300  59.018  51.029  0.00  0.00    +0.000 C 
ATOM     38  F   UNL     1     -16.323  58.113  50.979  0.00  0.00    +0.000 F 
ATOM     39  F   UNL     1     -15.269  59.492  52.303  0.00  0.00    +0.000 F 
ATOM     40  F   UNL     1     -15.668  60.055  50.229  0.00  0.00    +0.000 F 
ENDBRANCH  34  37
ENDBRANCH  11  33
TORSDOF 7
ENDMDL
MODEL 4
REMARK VINA RESULT:      -6.8      2.064      3.985
REMARK  Name = 353194
REMARK  9 active torsions:
REMARK  status: ('A' for Active; 'I' for Inactive)
REMARK    1  A    between atoms: C_6  and  C_10
REMARK    2  A    between atoms: C_12  and  N_16
REMARK    3  A    between atoms: C_14  and  O_19
REMARK    4  A    between atoms: N_18  and  C_23
REMARK    5  A    between atoms: C_21  and  C_26
REMARK    6  A    between atoms: C_23  and  C_28
REMARK    7  A    between atoms: C_28  and  C_34
REMARK    8  A    between atoms: C_34  and  C_35
REMARK    9  A    between atoms: C_34  and  C_36
REMARK                            x       y       z     vdW  Elec       q    Type
REMARK                         _______ _______ _______ _____ _____    ______ ____
ROOT
ATOM      1  S   UNL     1      -9.356  54.777  50.947  0.00  0.00    +0.000 S 
ATOM      2  O   UNL     1      -8.585  55.932  51.370  0.00  0.00    +0.000 OA
ATOM      3  O   UNL     1      -9.991  53.912  51.918  0.00  0.00    +0.000 OA
ATOM      4  N   UNL     1      -8.396  53.866  50.028  0.00  0.00    +0.000 N 
ATOM      5  C   UNL     1     -10.635  55.392  49.924  0.00  0.00    +0.000 A 
ATOM      6  C   UNL     1      -8.567  53.777  48.745  0.00  0.00    +0.000 C 
ATOM      7  C   UNL     1     -10.579  55.145  48.564  0.00  0.00    +0.000 A 
ATOM      8  C   UNL     1     -11.677  56.100  50.516  0.00  0.00    +0.000 A 
ATOM      9  N   UNL     1      -9.515  54.446  48.002  0.00  0.00    +0.000 N 
ATOM     10  C   UNL     1     -11.584  55.696  47.767  0.00  0.00    +0.000 A 
ATOM     11  C   UNL     1     -12.692  56.627  49.729  0.00  0.00    +0.000 A 
ATOM     12  C   UNL     1     -12.637  56.425  48.344  0.00  0.00    +0.000 A 
ATOM     13  H   UNL     1      -7.661  53.366  50.451  0.00  0.00    +0.000 HD
ATOM     14  H   UNL     1      -9.436  54.429  47.021  0.00  0.00    +0.000 HD
ENDROOT
BRANCH   6  15
ATOM     15  C   UNL     1      -7.640  52.813  48.047  0.00  0.00    +0.000 A 
ATOM     16  C   UNL     1      -8.193  51.855  47.043  0.00  0.00    +0.000 A 
ATOM     17  C   UNL     1      -6.327  52.808  48.333  0.00  0.00    +0.000 A 
ATOM     18  O   UNL     1      -9.383  51.954  46.727  0.00  0.00    +0.000 OA
ATOM     19  N   UNL     1      -7.346  50.905  46.514  0.00  0.00    +0.000 N 
ATOM     20  C   UNL     1      -5.450  51.803  47.734  0.00  0.00    +0.000 A 
ATOM     21  C   UNL     1      -5.971  50.847  46.860  0.00  0.00    +0.000 A 
ATOM     22  C   UNL     1      -4.089  51.736  48.055  0.00  0.00    +0.000 A 
ATOM     23  N   UNL     1      -5.209  49.863  46.324  0.00  0.00    +0.000 NA
ATOM     24  C   UNL     1      -3.302  50.728  47.516  0.00  0.00    +0.000 A 
ATOM     25  C   UNL     1      -3.904  49.823  46.665  0.00  0.00    +0.000 A 
BRANCH  17  26
ATOM     26  O   UNL     1      -5.701  53.677  49.209  0.00  0.00    +0.000 OA
ATOM     27  H   UNL     1      -6.074  53.841  50.053  0.00  0.00    +0.000 HD
ENDBRANCH  17  26
BRANCH  19  28
ATOM     28  C   UNL     1      -7.881  49.891  45.601  0.00  0.00    +0.000 C 
BRANCH  28  29
ATOM     29  C   UNL     1      -7.599  50.241  44.134  0.00  0.00    +0.000 C 
BRANCH  29  30
ATOM     30  C   UNL     1      -8.830  50.740  43.354  0.00  0.00    +0.000 C 
ATOM     31  C   UNL     1     -10.149  50.299  43.991  0.00  0.00    +0.000 C 
ATOM     32  C   UNL     1      -8.796  52.269  43.265  0.00  0.00    +0.000 C 
ENDBRANCH  29  30
ENDBRANCH  28  29
ENDBRANCH  19  28
ENDBRANCH   6  15
BRANCH  11  33
ATOM     33  N   UNL     1     -13.765  57.368  50.260  0.00  0.00    +0.000 N 
ATOM     34  C   UNL     1     -13.892  58.763  50.271  0.00  0.00    +0.000 C 
ATOM     35  O   UNL     1     -13.063  59.555  49.820  0.00  0.00    +0.000 OA
ATOM     36  H   UNL     1     -14.499  56.853  50.666  0.00  0.00    +0.000 HD
BRANCH  34  37
ATOM     37  C   UNL     1     -15.197  59.250  50.914  0.00  0.00    +0.000 C 
ATOM     38  F   UNL     1     -16.155  58.276  50.913  0.00  0.00    +0.000 F 
ATOM     39  F   UNL     1     -15.031  59.623  52.212  0.00  0.00    +0.000 F 
ATOM     40  F   UNL     1     -15.734  60.316  50.261  0.00  0.00    +0.000 F 
ENDBRANCH  34  37
ENDBRANCH  11  33
TORSDOF 7
ENDMDL
MODEL 5
REMARK VINA RESULT:      -6.6      1.243      3.441
REMARK  Name = 353194
REMARK  9 active torsions:
REMARK  status: ('A' for Active; 'I' for Inactive)
REMARK    1  A    between atoms: C_6  and  C_10
REMARK    2  A    between atoms: C_12  and  N_16
REMARK    3  A    between atoms: C_14  and  O_19
REMARK    4  A    between atoms: N_18  and  C_23
REMARK    5  A    between atoms: C_21  and  C_26
REMARK    6  A    between atoms: C_23  and  C_28
REMARK    7  A    between atoms: C_28  and  C_34
REMARK    8  A    between atoms: C_34  and  C_35
REMARK    9  A    between atoms: C_34  and  C_36
REMARK                            x       y       z     vdW  Elec       q    Type
REMARK                         _______ _______ _______ _____ _____    ______ ____
ROOT
ATOM      1  S   UNL     1     -11.202  54.487  47.667  0.00  0.00    +0.000 S 
ATOM      2  O   UNL     1     -12.404  53.739  47.345  0.00  0.00    +0.000 OA
ATOM      3  O   UNL     1     -10.966  55.796  47.096  0.00  0.00    +0.000 OA
ATOM      4  N   UNL     1      -9.941  53.554  47.300  0.00  0.00    +0.000 N 
ATOM      5  C   UNL     1     -11.210  54.702  49.404  0.00  0.00    +0.000 A 
ATOM      6  C   UNL     1      -9.204  53.013  48.221  0.00  0.00    +0.000 C 
ATOM      7  C   UNL     1     -10.297  53.997  50.167  0.00  0.00    +0.000 A 
ATOM      8  C   UNL     1     -12.130  55.587  49.960  0.00  0.00    +0.000 A 
ATOM      9  N   UNL     1      -9.400  53.109  49.581  0.00  0.00    +0.000 N 
ATOM     10  C   UNL     1     -10.365  54.147  51.554  0.00  0.00    +0.000 A 
ATOM     11  C   UNL     1     -12.183  55.756  51.336  0.00  0.00    +0.000 A 
ATOM     12  C   UNL     1     -11.294  55.025  52.135  0.00  0.00    +0.000 A 
ATOM     13  H   UNL     1      -9.725  53.390  46.354  0.00  0.00    +0.000 HD
ATOM     14  H   UNL     1      -8.879  52.517  50.171  0.00  0.00    +0.000 HD
ENDROOT
BRANCH   6  15
ATOM     15  C   UNL     1      -8.011  52.245  47.708  0.00  0.00    +0.000 A 
ATOM     16  C   UNL     1      -8.211  51.152  46.709  0.00  0.00    +0.000 A 
ATOM     17  C   UNL     1      -6.776  52.536  48.153  0.00  0.00    +0.000 A 
ATOM     18  O   UNL     1      -9.341  50.979  46.244  0.00  0.00    +0.000 OA
ATOM     19  N   UNL     1      -7.121  50.388  46.353  0.00  0.00    +0.000 N 
ATOM     20  C   UNL     1      -5.636  51.722  47.734  0.00  0.00    +0.000 A 
ATOM     21  C   UNL     1      -5.823  50.643  46.869  0.00  0.00    +0.000 A 
ATOM     22  C   UNL     1      -4.347  51.963  48.224  0.00  0.00    +0.000 A 
ATOM     23  N   UNL     1      -4.807  49.827  46.497  0.00  0.00    +0.000 NA
ATOM     24  C   UNL     1      -3.301  51.130  47.854  0.00  0.00    +0.000 A 
ATOM     25  C   UNL     1      -3.581  50.084  46.998  0.00  0.00    +0.000 A 
BRANCH  17  26
ATOM     26  O   UNL     1      -6.470  53.553  49.040  0.00  0.00    +0.000 OA
ATOM     27  H   UNL     1      -7.010  53.698  49.791  0.00  0.00    +0.000 HD
ENDBRANCH  17  26
BRANCH  19  28
ATOM     28  C   UNL     1      -7.303  49.248  45.451  0.00  0.00    +0.000 C 
BRANCH  28  29
ATOM     29  C   UNL     1      -6.805  49.558  44.034  0.00  0.00    +0.000 C 
BRANCH  29  30
ATOM     30  C   UNL     1      -7.927  49.826  43.012  0.00  0.00    +0.000 C 
ATOM     31  C   UNL     1      -9.247  49.157  43.398  0.00  0.00    +0.000 C 
ATOM     32  C   UNL     1      -8.145  51.337  42.874  0.00  0.00    +0.000 C 
ENDBRANCH  29  30
ENDBRANCH  28  29
ENDBRANCH  19  28
ENDBRANCH   6  15
BRANCH  11  33
ATOM     33  N   UNL     1     -13.099  56.621  51.965  0.00  0.00    +0.000 N 
ATOM     34  C   UNL     1     -14.480  56.684  51.735  0.00  0.00    +0.000 C 
ATOM     35  O   UNL     1     -15.097  55.988  50.928  0.00  0.00    +0.000 OA
ATOM     36  H   UNL     1     -12.732  57.245  52.632  0.00  0.00    +0.000 HD
BRANCH  34  37
ATOM     37  C   UNL     1     -15.193  57.729  52.602  0.00  0.00    +0.000 C 
ATOM     38  F   UNL     1     -16.225  57.180  53.309  0.00  0.00    +0.000 F 
ATOM     39  F   UNL     1     -14.364  58.302  53.515  0.00  0.00    +0.000 F 
ATOM     40  F   UNL     1     -15.730  58.740  51.864  0.00  0.00    +0.000 F 
ENDBRANCH  34  37
ENDBRANCH  11  33
TORSDOF 7
ENDMDL
MODEL 6
REMARK VINA RESULT:      -6.2      2.680      4.760
REMARK  Name = 353194
REMARK  9 active torsions:
REMARK  status: ('A' for Active; 'I' for Inactive)
REMARK    1  A    between atoms: C_6  and  C_10
REMARK    2  A    between atoms: C_12  and  N_16
REMARK    3  A    between atoms: C_14  and  O_19
REMARK    4  A    between atoms: N_18  and  C_23
REMARK    5  A    between atoms: C_21  and  C_26
REMARK    6  A    between atoms: C_23  and  C_28
REMARK    7  A    between atoms: C_28  and  C_34
REMARK    8  A    between atoms: C_34  and  C_35
REMARK    9  A    between atoms: C_34  and  C_36
REMARK                            x       y       z     vdW  Elec       q    Type
REMARK                         _______ _______ _______ _____ _____    ______ ____
ROOT
ATOM      1  S   UNL     1      -9.277  54.855  48.736  0.00  0.00    +0.000 S 
ATOM      2  O   UNL     1     -10.032  54.152  47.714  0.00  0.00    +0.000 OA
ATOM      3  O   UNL     1      -8.660  56.133  48.456  0.00  0.00    +0.000 OA
ATOM      4  N   UNL     1      -8.126  53.856  49.257  0.00  0.00    +0.000 N 
ATOM      5  C   UNL     1     -10.383  55.122  50.065  0.00  0.00    +0.000 A 
ATOM      6  C   UNL     1      -8.180  53.310  50.434  0.00  0.00    +0.000 C 
ATOM      7  C   UNL     1     -10.211  54.401  51.232  0.00  0.00    +0.000 A 
ATOM      8  C   UNL     1     -11.397  56.063  49.907  0.00  0.00    +0.000 A 
ATOM      9  N   UNL     1      -9.196  53.456  51.352  0.00  0.00    +0.000 N 
ATOM     10  C   UNL     1     -11.142  54.595  52.254  0.00  0.00    +0.000 A 
ATOM     11  C   UNL     1     -12.309  56.277  50.931  0.00  0.00    +0.000 A 
ATOM     12  C   UNL     1     -12.179  55.531  52.109  0.00  0.00    +0.000 A 
ATOM     13  H   UNL     1      -7.363  53.653  48.668  0.00  0.00    +0.000 HD
ATOM     14  H   UNL     1      -9.206  52.859  52.136  0.00  0.00    +0.000 HD
ENDROOT
BRANCH   6  15
ATOM     15  C   UNL     1      -6.979  52.474  50.800  0.00  0.00    +0.000 A 
ATOM     16  C   UNL     1      -6.488  51.431  49.850  0.00  0.00    +0.000 A 
ATOM     17  C   UNL     1      -6.358  52.661  51.978  0.00  0.00    +0.000 A 
ATOM     18  O   UNL     1      -7.014  51.354  48.736  0.00  0.00    +0.000 OA
ATOM     19  N   UNL     1      -5.468  50.601  50.264  0.00  0.00    +0.000 N 
ATOM     20  C   UNL     1      -5.260  51.781  52.376  0.00  0.00    +0.000 A 
ATOM     21  C   UNL     1      -4.850  50.745  51.534  0.00  0.00    +0.000 A 
ATOM     22  C   UNL     1      -4.631  51.913  53.619  0.00  0.00    +0.000 A 
ATOM     23  N   UNL     1      -3.876  49.870  51.883  0.00  0.00    +0.000 NA
ATOM     24  C   UNL     1      -3.637  51.018  53.988  0.00  0.00    +0.000 A 
ATOM     25  C   UNL     1      -3.300  50.022  53.093  0.00  0.00    +0.000 A 
BRANCH  17  26
ATOM     26  O   UNL     1      -6.696  53.625  52.911  0.00  0.00    +0.000 OA
ATOM     27  H   UNL     1      -7.131  53.378  53.704  0.00  0.00    +0.000 HD
ENDBRANCH  17  26
BRANCH  19  28
ATOM     28  C   UNL     1      -5.032  49.506  49.394  0.00  0.00    +0.000 C 
BRANCH  28  29
ATOM     29  C   UNL     1      -3.641  49.769  48.803  0.00  0.00    +0.000 C 
BRANCH  29  30
ATOM     30  C   UNL     1      -3.660  50.419  47.405  0.00  0.00    +0.000 C 
ATOM     31  C   UNL     1      -4.846  49.957  46.557  0.00  0.00    +0.000 C 
ATOM     32  C   UNL     1      -3.701  51.943  47.549  0.00  0.00    +0.000 C 
ENDBRANCH  29  30
ENDBRANCH  28  29
ENDBRANCH  19  28
ENDBRANCH   6  15
BRANCH  11  33
ATOM     33  N   UNL     1     -13.368  57.201  50.830  0.00  0.00    +0.000 N 
ATOM     34  C   UNL     1     -14.005  57.858  51.891  0.00  0.00    +0.000 C 
ATOM     35  O   UNL     1     -13.734  57.710  53.083  0.00  0.00    +0.000 OA
ATOM     36  H   UNL     1     -13.692  57.404  49.924  0.00  0.00    +0.000 HD
BRANCH  34  37
ATOM     37  C   UNL     1     -15.112  58.817  51.434  0.00  0.00    +0.000 C 
ATOM     38  F   UNL     1     -16.146  58.150  50.840  0.00  0.00    +0.000 F 
ATOM     39  F   UNL     1     -15.652  59.518  52.467  0.00  0.00    +0.000 F 
ATOM     40  F   UNL     1     -14.670  59.727  50.524  0.00  0.00    +0.000 F 
ENDBRANCH  34  37
ENDBRANCH  11  33
TORSDOF 7
ENDMDL
MODEL 7
REMARK VINA RESULT:      -6.1      3.584      5.282
REMARK  Name = 353194
REMARK  9 active torsions:
REMARK  status: ('A' for Active; 'I' for Inactive)
REMARK    1  A    between atoms: C_6  and  C_10
REMARK    2  A    between atoms: C_12  and  N_16
REMARK    3  A    between atoms: C_14  and  O_19
REMARK    4  A    between atoms: N_18  and  C_23
REMARK    5  A    between atoms: C_21  and  C_26
REMARK    6  A    between atoms: C_23  and  C_28
REMARK    7  A    between atoms: C_28  and  C_34
REMARK    8  A    between atoms: C_34  and  C_35
REMARK    9  A    between atoms: C_34  and  C_36
REMARK                            x       y       z     vdW  Elec       q    Type
REMARK                         _______ _______ _______ _____ _____    ______ ____
ROOT
ATOM      1  S   UNL     1     -13.426  59.076  49.350  0.00  0.00    +0.000 S 
ATOM      2  O   UNL     1     -14.553  59.134  48.437  0.00  0.00    +0.000 OA
ATOM      3  O   UNL     1     -12.601  60.240  49.589  0.00  0.00    +0.000 OA
ATOM      4  N   UNL     1     -12.463  57.884  48.851  0.00  0.00    +0.000 N 
ATOM      5  C   UNL     1     -14.079  58.608  50.904  0.00  0.00    +0.000 A 
ATOM      6  C   UNL     1     -12.364  56.769  49.508  0.00  0.00    +0.000 C 
ATOM      7  C   UNL     1     -13.812  57.340  51.387  0.00  0.00    +0.000 A 
ATOM      8  C   UNL     1     -14.839  59.536  51.612  0.00  0.00    +0.000 A 
ATOM      9  N   UNL     1     -13.061  56.431  50.647  0.00  0.00    +0.000 N 
ATOM     10  C   UNL     1     -14.393  56.976  52.603  0.00  0.00    +0.000 A 
ATOM     11  C   UNL     1     -15.397  59.186  52.834  0.00  0.00    +0.000 A 
ATOM     12  C   UNL     1     -15.173  57.894  53.326  0.00  0.00    +0.000 A 
ATOM     13  H   UNL     1     -11.938  58.004  48.027  0.00  0.00    +0.000 HD
ATOM     14  H   UNL     1     -13.027  55.496  50.954  0.00  0.00    +0.000 HD
ENDROOT
BRANCH   6  15
ATOM     15  C   UNL     1     -11.352  55.796  48.956  0.00  0.00    +0.000 A 
ATOM     16  C   UNL     1     -10.326  55.203  49.867  0.00  0.00    +0.000 A 
ATOM     17  C   UNL     1     -11.366  55.470  47.652  0.00  0.00    +0.000 A 
ATOM     18  O   UNL     1     -10.403  55.441  51.076  0.00  0.00    +0.000 OA
ATOM     19  N   UNL     1      -9.340  54.415  49.312  0.00  0.00    +0.000 N 
ATOM     20  C   UNL     1     -10.321  54.609  47.100  0.00  0.00    +0.000 A 
ATOM     21  C   UNL     1      -9.306  54.119  47.924  0.00  0.00    +0.000 A 
ATOM     22  C   UNL     1     -10.276  54.298  45.736  0.00  0.00    +0.000 A 
ATOM     23  N   UNL     1      -8.286  53.365  47.448  0.00  0.00    +0.000 NA
ATOM     24  C   UNL     1      -9.232  53.531  45.238  0.00  0.00    +0.000 A 
ATOM     25  C   UNL     1      -8.270  53.094  46.126  0.00  0.00    +0.000 A 
BRANCH  17  26
ATOM     26  O   UNL     1     -12.295  55.921  46.730  0.00  0.00    +0.000 OA
ATOM     27  H   UNL     1     -12.504  56.833  46.684  0.00  0.00    +0.000 HD
ENDBRANCH  17  26
BRANCH  19  28
ATOM     28  C   UNL     1      -8.266  53.900  50.163  0.00  0.00    +0.000 C 
BRANCH  28  29
ATOM     29  C   UNL     1      -7.155  54.938  50.369  0.00  0.00    +0.000 C 
BRANCH  29  30
ATOM     30  C   UNL     1      -6.585  54.979  51.800  0.00  0.00    +0.000 C 
ATOM     31  C   UNL     1      -7.373  55.910  52.722  0.00  0.00    +0.000 C 
ATOM     32  C   UNL     1      -6.578  53.565  52.391  0.00  0.00    +0.000 C 
ENDBRANCH  29  30
ENDBRANCH  28  29
ENDBRANCH  19  28
ENDBRANCH   6  15
BRANCH  11  33
ATOM     33  N   UNL     1     -16.189  60.069  53.593  0.00  0.00    +0.000 N 
ATOM     34  C   UNL     1     -16.419  60.008  54.973  0.00  0.00    +0.000 C 
ATOM     35  O   UNL     1     -15.963  59.151  55.731  0.00  0.00    +0.000 OA
ATOM     36  H   UNL     1     -16.626  60.803  53.103  0.00  0.00    +0.000 HD
BRANCH  34  37
ATOM     37  C   UNL     1     -17.319  61.137  55.491  0.00  0.00    +0.000 C 
ATOM     38  F   UNL     1     -18.300  61.453  54.593  0.00  0.00    +0.000 F 
ATOM     39  F   UNL     1     -17.951  60.810  56.650  0.00  0.00    +0.000 F 
ATOM     40  F   UNL     1     -16.630  62.286  55.726  0.00  0.00    +0.000 F 
ENDBRANCH  34  37
ENDBRANCH  11  33
TORSDOF 7
ENDMDL
MODEL 8
REMARK VINA RESULT:      -6.1      3.395      6.009
REMARK  Name = 353194
REMARK  9 active torsions:
REMARK  status: ('A' for Active; 'I' for Inactive)
REMARK    1  A    between atoms: C_6  and  C_10
REMARK    2  A    between atoms: C_12  and  N_16
REMARK    3  A    between atoms: C_14  and  O_19
REMARK    4  A    between atoms: N_18  and  C_23
REMARK    5  A    between atoms: C_21  and  C_26
REMARK    6  A    between atoms: C_23  and  C_28
REMARK    7  A    between atoms: C_28  and  C_34
REMARK    8  A    between atoms: C_34  and  C_35
REMARK    9  A    between atoms: C_34  and  C_36
REMARK                            x       y       z     vdW  Elec       q    Type
REMARK                         _______ _______ _______ _____ _____    ______ ____
ROOT
ATOM      1  S   UNL     1     -13.449  59.089  49.382  0.00  0.00    +0.000 S 
ATOM      2  O   UNL     1     -14.558  59.177  48.450  0.00  0.00    +0.000 OA
ATOM      3  O   UNL     1     -12.614  60.239  49.656  0.00  0.00    +0.000 OA
ATOM      4  N   UNL     1     -12.491  57.894  48.881  0.00  0.00    +0.000 N 
ATOM      5  C   UNL     1     -14.137  58.604  50.916  0.00  0.00    +0.000 A 
ATOM      6  C   UNL     1     -12.418  56.767  49.521  0.00  0.00    +0.000 C 
ATOM      7  C   UNL     1     -13.894  57.324  51.382  0.00  0.00    +0.000 A 
ATOM      8  C   UNL     1     -14.898  59.529  51.626  0.00  0.00    +0.000 A 
ATOM      9  N   UNL     1     -13.141  56.419  50.641  0.00  0.00    +0.000 N 
ATOM     10  C   UNL     1     -14.502  56.948  52.581  0.00  0.00    +0.000 A 
ATOM     11  C   UNL     1     -15.483  59.166  52.831  0.00  0.00    +0.000 A 
ATOM     12  C   UNL     1     -15.284  57.863  53.305  0.00  0.00    +0.000 A 
ATOM     13  H   UNL     1     -11.950  58.021  48.069  0.00  0.00    +0.000 HD
ATOM     14  H   UNL     1     -13.124  55.478  50.932  0.00  0.00    +0.000 HD
ENDROOT
BRANCH   6  15
ATOM     15  C   UNL     1     -11.408  55.791  48.971  0.00  0.00    +0.000 A 
ATOM     16  C   UNL     1     -11.427  55.451  47.516  0.00  0.00    +0.000 A 
ATOM     17  C   UNL     1     -10.502  55.223  49.786  0.00  0.00    +0.000 A 
ATOM     18  O   UNL     1     -12.202  56.065  46.777  0.00  0.00    +0.000 OA
ATOM     19  N   UNL     1     -10.574  54.465  47.067  0.00  0.00    +0.000 N 
ATOM     20  C   UNL     1      -9.593  54.200  49.271  0.00  0.00    +0.000 A 
ATOM     21  C   UNL     1      -9.659  53.810  47.932  0.00  0.00    +0.000 A 
ATOM     22  C   UNL     1      -8.676  53.550  50.106  0.00  0.00    +0.000 A 
ATOM     23  N   UNL     1      -8.877  52.828  47.423  0.00  0.00    +0.000 NA
ATOM     24  C   UNL     1      -7.875  52.538  49.596  0.00  0.00    +0.000 A 
ATOM     25  C   UNL     1      -8.013  52.216  48.260  0.00  0.00    +0.000 A 
BRANCH  17  26
ATOM     26  O   UNL     1     -10.364  55.497  51.135  0.00  0.00    +0.000 OA
ATOM     27  H   UNL     1     -10.405  54.801  51.761  0.00  0.00    +0.000 HD
ENDBRANCH  17  26
BRANCH  19  28
ATOM     28  C   UNL     1     -10.637  54.042  45.666  0.00  0.00    +0.000 C 
BRANCH  28  29
ATOM     29  C   UNL     1     -11.793  53.063  45.418  0.00  0.00    +0.000 C 
BRANCH  29  30
ATOM     30  C   UNL     1     -11.408  51.830  44.578  0.00  0.00    +0.000 C 
ATOM     31  C   UNL     1     -10.199  52.085  43.677  0.00  0.00    +0.000 C 
ATOM     32  C   UNL     1     -11.111  50.648  45.506  0.00  0.00    +0.000 C 
ENDBRANCH  29  30
ENDBRANCH  28  29
ENDBRANCH  19  28
ENDBRANCH   6  15
BRANCH  11  33
ATOM     33  N   UNL     1     -16.278  60.046  53.590  0.00  0.00    +0.000 N 
ATOM     34  C   UNL     1     -16.446  60.030  54.980  0.00  0.00    +0.000 C 
ATOM     35  O   UNL     1     -15.923  59.223  55.749  0.00  0.00    +0.000 OA
ATOM     36  H   UNL     1     -16.765  60.742  53.093  0.00  0.00    +0.000 HD
BRANCH  34  37
ATOM     37  C   UNL     1     -17.370  61.142  55.494  0.00  0.00    +0.000 C 
ATOM     38  F   UNL     1     -16.671  62.273  55.813  0.00  0.00    +0.000 F 
ATOM     39  F   UNL     1     -18.300  61.513  54.573  0.00  0.00    +0.000 F 
ATOM     40  F   UNL     1     -18.046  60.780  56.618  0.00  0.00    +0.000 F 
ENDBRANCH  34  37
ENDBRANCH  11  33
TORSDOF 7
ENDMDL
MODEL 9
REMARK VINA RESULT:      -5.5      2.186      2.873
REMARK  Name = 353194
REMARK  9 active torsions:
REMARK  status: ('A' for Active; 'I' for Inactive)
REMARK    1  A    between atoms: C_6  and  C_10
REMARK    2  A    between atoms: C_12  and  N_16
REMARK    3  A    between atoms: C_14  and  O_19
REMARK    4  A    between atoms: N_18  and  C_23
REMARK    5  A    between atoms: C_21  and  C_26
REMARK    6  A    between atoms: C_23  and  C_28
REMARK    7  A    between atoms: C_28  and  C_34
REMARK    8  A    between atoms: C_34  and  C_35
REMARK    9  A    between atoms: C_34  and  C_36
REMARK                            x       y       z     vdW  Elec       q    Type
REMARK                         _______ _______ _______ _____ _____    ______ ____
ROOT
ATOM      1  S   UNL     1      -9.708  54.206  51.573  0.00  0.00    +0.000 S 
ATOM      2  O   UNL     1      -8.928  55.221  52.257  0.00  0.00    +0.000 OA
ATOM      3  O   UNL     1     -10.501  53.251  52.316  0.00  0.00    +0.000 OA
ATOM      4  N   UNL     1      -8.700  53.380  50.625  0.00  0.00    +0.000 N 
ATOM      5  C   UNL     1     -10.822  55.066  50.532  0.00  0.00    +0.000 A 
ATOM      6  C   UNL     1      -8.724  53.504  49.334  0.00  0.00    +0.000 C 
ATOM      7  C   UNL     1     -10.621  55.029  49.164  0.00  0.00    +0.000 A 
ATOM      8  C   UNL     1     -11.884  55.750  51.117  0.00  0.00    +0.000 A 
ATOM      9  N   UNL     1      -9.540  54.348  48.613  0.00  0.00    +0.000 N 
ATOM     10  C   UNL     1     -11.493  55.771  48.364  0.00  0.00    +0.000 A 
ATOM     11  C   UNL     1     -12.768  56.467  50.322  0.00  0.00    +0.000 A 
ATOM     12  C   UNL     1     -12.563  56.478  48.936  0.00  0.00    +0.000 A 
ATOM     13  H   UNL     1      -8.049  52.767  51.037  0.00  0.00    +0.000 HD
ATOM     14  H   UNL     1      -9.347  54.478  47.656  0.00  0.00    +0.000 HD
ENDROOT
BRANCH   6  15
ATOM     15  C   UNL     1      -7.779  52.593  48.592  0.00  0.00    +0.000 A 
ATOM     16  C   UNL     1      -6.304  52.789  48.731  0.00  0.00    +0.000 A 
ATOM     17  C   UNL     1      -8.259  51.616  47.803  0.00  0.00    +0.000 A 
ATOM     18  O   UNL     1      -5.895  53.626  49.541  0.00  0.00    +0.000 OA
ATOM     19  N   UNL     1      -5.468  52.023  47.947  0.00  0.00    +0.000 N 
ATOM     20  C   UNL     1      -7.343  50.802  47.005  0.00  0.00    +0.000 A 
ATOM     21  C   UNL     1      -5.967  51.034  47.059  0.00  0.00    +0.000 A 
ATOM     22  C   UNL     1      -7.815  49.815  46.131  0.00  0.00    +0.000 A 
ATOM     23  N   UNL     1      -5.085  50.344  46.296  0.00  0.00    +0.000 NA
ATOM     24  C   UNL     1      -6.920  49.107  45.341  0.00  0.00    +0.000 A 
ATOM     25  C   UNL     1      -5.578  49.408  45.458  0.00  0.00    +0.000 A 
BRANCH  17  26
ATOM     26  O   UNL     1      -9.599  51.315  47.636  0.00  0.00    +0.000 OA
ATOM     27  H   UNL     1      -9.878  50.813  46.896  0.00  0.00    +0.000 HD
ENDBRANCH  17  26
BRANCH  19  28
ATOM     28  C   UNL     1      -4.023  52.259  47.989  0.00  0.00    +0.000 C 
BRANCH  28  29
ATOM     29  C   UNL     1      -3.369  51.575  49.196  0.00  0.00    +0.000 C 
BRANCH  29  30
ATOM     30  C   UNL     1      -4.279  50.563  49.919  0.00  0.00    +0.000 C 
ATOM     31  C   UNL     1      -3.709  49.144  49.908  0.00  0.00    +0.000 C 
ATOM     32  C   UNL     1      -4.496  51.013  51.368  0.00  0.00    +0.000 C 
ENDBRANCH  29  30
ENDBRANCH  28  29
ENDBRANCH  19  28
ENDBRANCH   6  15
BRANCH  11  33
ATOM     33  N   UNL     1     -13.853  57.194  50.850  0.00  0.00    +0.000 N 
ATOM     34  C   UNL     1     -14.107  58.560  50.672  0.00  0.00    +0.000 C 
ATOM     35  O   UNL     1     -13.400  59.335  50.027  0.00  0.00    +0.000 OA
ATOM     36  H   UNL     1     -14.496  56.691  51.399  0.00  0.00    +0.000 HD
BRANCH  34  37
ATOM     37  C   UNL     1     -15.388  59.036  51.369  0.00  0.00    +0.000 C 
ATOM     38  F   UNL     1     -16.288  58.019  51.521  0.00  0.00    +0.000 F 
ATOM     39  F   UNL     1     -15.150  59.527  52.615  0.00  0.00    +0.000 F 
ATOM     40  F   UNL     1     -16.028  60.013  50.672  0.00  0.00    +0.000 F 
ENDBRANCH  34  37
ENDBRANCH  11  33
TORSDOF 7
ENDMDL
