MODEL 1
REMARK VINA RESULT:      -7.8      0.000      0.000
REMARK  Name = 352770
REMARK  11 active torsions:
REMARK  status: ('A' for Active; 'I' for Inactive)
REMARK    1  A    between atoms: C_6  and  C_10
REMARK    2  A    between atoms: C_12  and  O_16
REMARK    3  A    between atoms: C_14  and  O_19
REMARK    4  A    between atoms: O_16  and  C_21
REMARK    5  A    between atoms: N_18  and  C_23
REMARK    6  A    between atoms: C_21  and  C_25
REMARK    7  A    between atoms: C_23  and  C_27
REMARK    8  A    between atoms: C_25  and  N_29
REMARK    9  A    between atoms: C_27  and  C_31
REMARK   10  A    between atoms: C_31  and  C_32
REMARK   11  A    between atoms: C_31  and  C_33
REMARK                            x       y       z     vdW  Elec       q    Type
REMARK                         _______ _______ _______ _____ _____    ______ ____
ROOT
ATOM      1  S   UNL     1     -11.676  55.305  49.527  0.00  0.00    +0.000 S 
ATOM      2  O   UNL     1     -12.472  54.256  48.925  0.00  0.00    +0.000 OA
ATOM      3  O   UNL     1     -10.935  56.232  48.692  0.00  0.00    +0.000 OA
ATOM      4  N   UNL     1     -10.634  54.612  50.549  0.00  0.00    +0.000 N 
ATOM      5  C   UNL     1     -12.785  56.284  50.466  0.00  0.00    +0.000 A 
ATOM      6  C   UNL     1     -10.771  54.733  51.838  0.00  0.00    +0.000 C 
ATOM      7  C   UNL     1     -12.700  56.229  51.846  0.00  0.00    +0.000 A 
ATOM      8  C   UNL     1     -13.703  57.096  49.804  0.00  0.00    +0.000 A 
ATOM      9  N   UNL     1     -11.789  55.395  52.484  0.00  0.00    +0.000 N 
ATOM     10  C   UNL     1     -13.611  56.983  52.591  0.00  0.00    +0.000 A 
ATOM     11  C   UNL     1     -14.597  57.852  50.553  0.00  0.00    +0.000 A 
ATOM     12  C   UNL     1     -14.542  57.803  51.946  0.00  0.00    +0.000 A 
ATOM     13  H   UNL     1      -9.881  54.088  50.191  0.00  0.00    +0.000 HD
ATOM     14  H   UNL     1     -11.878  55.270  53.456  0.00  0.00    +0.000 HD
ENDROOT
BRANCH   6  15
ATOM     15  C   UNL     1      -9.681  54.106  52.675  0.00  0.00    +0.000 A 
ATOM     16  C   UNL     1      -8.307  54.699  52.653  0.00  0.00    +0.000 A 
ATOM     17  C   UNL     1      -9.937  53.034  53.446  0.00  0.00    +0.000 A 
ATOM     18  O   UNL     1      -8.125  55.744  52.020  0.00  0.00    +0.000 OA
ATOM     19  N   UNL     1      -7.305  54.055  53.347  0.00  0.00    +0.000 N 
ATOM     20  C   UNL     1      -8.854  52.390  54.191  0.00  0.00    +0.000 A 
ATOM     21  C   UNL     1      -7.551  52.885  54.107  0.00  0.00    +0.000 A 
ATOM     22  C   UNL     1      -9.074  51.244  54.963  0.00  0.00    +0.000 A 
ATOM     23  N   UNL     1      -6.507  52.290  54.732  0.00  0.00    +0.000 NA
ATOM     24  C   UNL     1      -8.012  50.621  55.601  0.00  0.00    +0.000 A 
ATOM     25  C   UNL     1      -6.756  51.177  55.454  0.00  0.00    +0.000 A 
BRANCH  17  26
ATOM     26  O   UNL     1     -11.178  52.439  53.585  0.00  0.00    +0.000 OA
ATOM     27  H   UNL     1     -11.827  52.831  54.136  0.00  0.00    +0.000 HD
ENDBRANCH  17  26
BRANCH  19  28
ATOM     28  C   UNL     1      -5.931  54.559  53.263  0.00  0.00    +0.000 C 
BRANCH  28  29
ATOM     29  C   UNL     1      -5.262  54.155  51.943  0.00  0.00    +0.000 C 
BRANCH  29  30
ATOM     30  C   UNL     1      -3.773  53.780  52.077  0.00  0.00    +0.000 C 
ATOM     31  C   UNL     1      -3.300  53.747  53.530  0.00  0.00    +0.000 C 
ATOM     32  C   UNL     1      -3.533  52.410  51.432  0.00  0.00    +0.000 C 
ENDBRANCH  29  30
ENDBRANCH  28  29
ENDBRANCH  19  28
ENDBRANCH   6  15
BRANCH  11  33
ATOM     33  O   UNL     1     -15.539  58.691  50.025  0.00  0.00    +0.000 OA
BRANCH  33  34
ATOM     34  C   UNL     1     -15.298  60.083  50.261  0.00  0.00    +0.000 C 
BRANCH  34  35
ATOM     35  C   UNL     1     -14.456  60.629  49.111  0.00  0.00    +0.000 C 
BRANCH  35  36
ATOM     36  N   UNL     1     -13.048  60.741  49.479  0.00  0.00    +0.000 N 
ATOM     37  H   UNL     1     -12.481  60.822  48.635  0.00  0.00    +0.000 HD
ATOM     38  H   UNL     1     -12.767  59.910  50.000  0.00  0.00    +0.000 HD
ATOM     39  H   UNL     1     -12.914  61.569  50.059  0.00  0.00    +0.000 HD
ENDBRANCH  35  36
ENDBRANCH  34  35
ENDBRANCH  33  34
ENDBRANCH  11  33
TORSDOF 9
ENDMDL
MODEL 2
REMARK VINA RESULT:      -7.3      3.545      5.572
REMARK  Name = 352770
REMARK  11 active torsions:
REMARK  status: ('A' for Active; 'I' for Inactive)
REMARK    1  A    between atoms: C_6  and  C_10
REMARK    2  A    between atoms: C_12  and  O_16
REMARK    3  A    between atoms: C_14  and  O_19
REMARK    4  A    between atoms: O_16  and  C_21
REMARK    5  A    between atoms: N_18  and  C_23
REMARK    6  A    between atoms: C_21  and  C_25
REMARK    7  A    between atoms: C_23  and  C_27
REMARK    8  A    between atoms: C_25  and  N_29
REMARK    9  A    between atoms: C_27  and  C_31
REMARK   10  A    between atoms: C_31  and  C_32
REMARK   11  A    between atoms: C_31  and  C_33
REMARK                            x       y       z     vdW  Elec       q    Type
REMARK                         _______ _______ _______ _____ _____    ______ ____
ROOT
ATOM      1  S   UNL     1     -13.502  59.124  49.381  0.00  0.00    +0.000 S 
ATOM      2  O   UNL     1     -14.634  59.271  48.490  0.00  0.00    +0.000 OA
ATOM      3  O   UNL     1     -12.634  60.253  49.654  0.00  0.00    +0.000 OA
ATOM      4  N   UNL     1     -12.587  57.914  48.824  0.00  0.00    +0.000 N 
ATOM      5  C   UNL     1     -14.159  58.636  50.930  0.00  0.00    +0.000 A 
ATOM      6  C   UNL     1     -12.525  56.773  49.447  0.00  0.00    +0.000 C 
ATOM      7  C   UNL     1     -13.925  57.343  51.364  0.00  0.00    +0.000 A 
ATOM      8  C   UNL     1     -14.878  59.560  51.685  0.00  0.00    +0.000 A 
ATOM      9  N   UNL     1     -13.222  56.433  50.583  0.00  0.00    +0.000 N 
ATOM     10  C   UNL     1     -14.482  56.947  52.583  0.00  0.00    +0.000 A 
ATOM     11  C   UNL     1     -15.418  59.162  52.902  0.00  0.00    +0.000 A 
ATOM     12  C   UNL     1     -15.210  57.858  53.355  0.00  0.00    +0.000 A 
ATOM     13  H   UNL     1     -12.067  58.042  47.998  0.00  0.00    +0.000 HD
ATOM     14  H   UNL     1     -13.224  55.488  50.859  0.00  0.00    +0.000 HD
ENDROOT
BRANCH   6  15
ATOM     15  C   UNL     1     -11.567  55.759  48.865  0.00  0.00    +0.000 A 
ATOM     16  C   UNL     1     -10.523  55.147  49.746  0.00  0.00    +0.000 A 
ATOM     17  C   UNL     1     -11.655  55.393  47.574  0.00  0.00    +0.000 A 
ATOM     18  O   UNL     1     -10.532  55.421  50.950  0.00  0.00    +0.000 OA
ATOM     19  N   UNL     1      -9.599  54.300  49.174  0.00  0.00    +0.000 N 
ATOM     20  C   UNL     1     -10.672  54.470  47.004  0.00  0.00    +0.000 A 
ATOM     21  C   UNL     1      -9.641  53.963  47.798  0.00  0.00    +0.000 A 
ATOM     22  C   UNL     1     -10.702  54.107  45.654  0.00  0.00    +0.000 A 
ATOM     23  N   UNL     1      -8.676  53.150  47.303  0.00  0.00    +0.000 NA
ATOM     24  C   UNL     1      -9.716  53.283  45.133  0.00  0.00    +0.000 A 
ATOM     25  C   UNL     1      -8.730  52.836  45.992  0.00  0.00    +0.000 A 
BRANCH  17  26
ATOM     26  O   UNL     1     -12.611  55.851  46.686  0.00  0.00    +0.000 OA
ATOM     27  H   UNL     1     -12.883  55.311  45.970  0.00  0.00    +0.000 HD
ENDBRANCH  17  26
BRANCH  19  28
ATOM     28  C   UNL     1      -8.507  53.765  49.992  0.00  0.00    +0.000 C 
BRANCH  28  29
ATOM     29  C   UNL     1      -7.260  54.655  49.921  0.00  0.00    +0.000 C 
BRANCH  29  30
ATOM     30  C   UNL     1      -6.924  55.381  51.238  0.00  0.00    +0.000 C 
ATOM     31  C   UNL     1      -7.440  56.819  51.268  0.00  0.00    +0.000 C 
ATOM     32  C   UNL     1      -7.517  54.601  52.417  0.00  0.00    +0.000 C 
ENDBRANCH  29  30
ENDBRANCH  28  29
ENDBRANCH  19  28
ENDBRANCH   6  15
BRANCH  11  33
ATOM     33  O   UNL     1     -16.136  59.973  53.738  0.00  0.00    +0.000 OA
BRANCH  33  34
ATOM     34  C   UNL     1     -16.129  59.570  55.112  0.00  0.00    +0.000 C 
BRANCH  34  35
ATOM     35  C   UNL     1     -16.776  60.675  55.942  0.00  0.00    +0.000 C 
BRANCH  35  36
ATOM     36  N   UNL     1     -17.713  61.466  55.149  0.00  0.00    +0.000 N 
ATOM     37  H   UNL     1     -18.041  62.259  55.701  0.00  0.00    +0.000 HD
ATOM     38  H   UNL     1     -18.507  60.884  54.882  0.00  0.00    +0.000 HD
ATOM     39  H   UNL     1     -17.244  61.808  54.310  0.00  0.00    +0.000 HD
ENDBRANCH  35  36
ENDBRANCH  34  35
ENDBRANCH  33  34
ENDBRANCH  11  33
TORSDOF 9
ENDMDL
MODEL 3
REMARK VINA RESULT:      -7.1      4.165      6.226
REMARK  Name = 352770
REMARK  11 active torsions:
REMARK  status: ('A' for Active; 'I' for Inactive)
REMARK    1  A    between atoms: C_6  and  C_10
REMARK    2  A    between atoms: C_12  and  O_16
REMARK    3  A    between atoms: C_14  and  O_19
REMARK    4  A    between atoms: O_16  and  C_21
REMARK    5  A    between atoms: N_18  and  C_23
REMARK    6  A    between atoms: C_21  and  C_25
REMARK    7  A    between atoms: C_23  and  C_27
REMARK    8  A    between atoms: C_25  and  N_29
REMARK    9  A    between atoms: C_27  and  C_31
REMARK   10  A    between atoms: C_31  and  C_32
REMARK   11  A    between atoms: C_31  and  C_33
REMARK                            x       y       z     vdW  Elec       q    Type
REMARK                         _______ _______ _______ _____ _____    ______ ____
ROOT
ATOM      1  S   UNL     1     -13.489  59.079  49.372  0.00  0.00    +0.000 S 
ATOM      2  O   UNL     1     -14.620  59.200  48.474  0.00  0.00    +0.000 OA
ATOM      3  O   UNL     1     -12.634  60.222  49.631  0.00  0.00    +0.000 OA
ATOM      4  N   UNL     1     -12.559  57.871  48.837  0.00  0.00    +0.000 N 
ATOM      5  C   UNL     1     -14.147  58.607  50.926  0.00  0.00    +0.000 A 
ATOM      6  C   UNL     1     -12.486  56.740  49.477  0.00  0.00    +0.000 C 
ATOM      7  C   UNL     1     -13.901  57.323  51.379  0.00  0.00    +0.000 A 
ATOM      8  C   UNL     1     -14.879  59.534  51.664  0.00  0.00    +0.000 A 
ATOM      9  N   UNL     1     -13.184  56.410  50.615  0.00  0.00    +0.000 N 
ATOM     10  C   UNL     1     -14.458  56.940  52.602  0.00  0.00    +0.000 A 
ATOM     11  C   UNL     1     -15.420  59.148  52.885  0.00  0.00    +0.000 A 
ATOM     12  C   UNL     1     -15.199  57.854  53.358  0.00  0.00    +0.000 A 
ATOM     13  H   UNL     1     -12.037  57.993  48.011  0.00  0.00    +0.000 HD
ATOM     14  H   UNL     1     -13.176  55.469  50.905  0.00  0.00    +0.000 HD
ENDROOT
BRANCH   6  15
ATOM     15  C   UNL     1     -11.515  55.729  48.914  0.00  0.00    +0.000 A 
ATOM     16  C   UNL     1     -11.578  55.384  47.459  0.00  0.00    +0.000 A 
ATOM     17  C   UNL     1     -10.592  55.149  49.702  0.00  0.00    +0.000 A 
ATOM     18  O   UNL     1     -12.363  56.007  46.738  0.00  0.00    +0.000 OA
ATOM     19  N   UNL     1     -10.749  54.389  46.986  0.00  0.00    +0.000 N 
ATOM     20  C   UNL     1      -9.710  54.114  49.161  0.00  0.00    +0.000 A 
ATOM     21  C   UNL     1      -9.821  53.724  47.824  0.00  0.00    +0.000 A 
ATOM     22  C   UNL     1      -8.773  53.455  49.963  0.00  0.00    +0.000 A 
ATOM     23  N   UNL     1      -9.066  52.732  47.293  0.00  0.00    +0.000 NA
ATOM     24  C   UNL     1      -8.000  52.433  49.433  0.00  0.00    +0.000 A 
ATOM     25  C   UNL     1      -8.185  52.109  48.103  0.00  0.00    +0.000 A 
BRANCH  17  26
ATOM     26  O   UNL     1     -10.409  55.432  51.044  0.00  0.00    +0.000 OA
ATOM     27  H   UNL     1      -9.571  55.716  51.353  0.00  0.00    +0.000 HD
ENDBRANCH  17  26
BRANCH  19  28
ATOM     28  C   UNL     1     -10.858  53.964  45.587  0.00  0.00    +0.000 C 
BRANCH  28  29
ATOM     29  C   UNL     1     -11.944  52.896  45.405  0.00  0.00    +0.000 C 
BRANCH  29  30
ATOM     30  C   UNL     1     -11.528  51.718  44.503  0.00  0.00    +0.000 C 
ATOM     31  C   UNL     1     -10.292  52.027  43.659  0.00  0.00    +0.000 C 
ATOM     32  C   UNL     1     -11.257  50.482  45.369  0.00  0.00    +0.000 C 
ENDBRANCH  29  30
ENDBRANCH  28  29
ENDBRANCH  19  28
ENDBRANCH   6  15
BRANCH  11  33
ATOM     33  O   UNL     1     -16.150  59.963  53.705  0.00  0.00    +0.000 OA
BRANCH  33  34
ATOM     34  C   UNL     1     -16.103  59.611  55.092  0.00  0.00    +0.000 C 
BRANCH  34  35
ATOM     35  C   UNL     1     -16.820  60.696  55.891  0.00  0.00    +0.000 C 
BRANCH  35  36
ATOM     36  N   UNL     1     -17.697  61.498  55.043  0.00  0.00    +0.000 N 
ATOM     37  H   UNL     1     -17.560  62.487  55.251  0.00  0.00    +0.000 HD
ATOM     38  H   UNL     1     -18.668  61.244  55.223  0.00  0.00    +0.000 HD
ATOM     39  H   UNL     1     -17.475  61.324  54.063  0.00  0.00    +0.000 HD
ENDBRANCH  35  36
ENDBRANCH  34  35
ENDBRANCH  33  34
ENDBRANCH  11  33
TORSDOF 9
ENDMDL
MODEL 4
REMARK VINA RESULT:      -6.9      4.646      6.171
REMARK  Name = 352770
REMARK  11 active torsions:
REMARK  status: ('A' for Active; 'I' for Inactive)
REMARK    1  A    between atoms: C_6  and  C_10
REMARK    2  A    between atoms: C_12  and  O_16
REMARK    3  A    between atoms: C_14  and  O_19
REMARK    4  A    between atoms: O_16  and  C_21
REMARK    5  A    between atoms: N_18  and  C_23
REMARK    6  A    between atoms: C_21  and  C_25
REMARK    7  A    between atoms: C_23  and  C_27
REMARK    8  A    between atoms: C_25  and  N_29
REMARK    9  A    between atoms: C_27  and  C_31
REMARK   10  A    between atoms: C_31  and  C_32
REMARK   11  A    between atoms: C_31  and  C_33
REMARK                            x       y       z     vdW  Elec       q    Type
REMARK                         _______ _______ _______ _____ _____    ______ ____
ROOT
ATOM      1  S   UNL     1     -11.567  54.857  50.547  0.00  0.00    +0.000 S 
ATOM      2  O   UNL     1     -10.615  55.605  51.341  0.00  0.00    +0.000 OA
ATOM      3  O   UNL     1     -12.459  53.903  51.179  0.00  0.00    +0.000 OA
ATOM      4  N   UNL     1     -10.747  54.084  49.389  0.00  0.00    +0.000 N 
ATOM      5  C   UNL     1     -12.600  56.044  49.776  0.00  0.00    +0.000 A 
ATOM      6  C   UNL     1     -10.829  54.450  48.143  0.00  0.00    +0.000 C 
ATOM      7  C   UNL     1     -12.484  56.225  48.409  0.00  0.00    +0.000 A 
ATOM      8  C   UNL     1     -13.514  56.756  50.551  0.00  0.00    +0.000 A 
ATOM      9  N   UNL     1     -11.551  55.517  47.661  0.00  0.00    +0.000 N 
ATOM     10  C   UNL     1     -13.284  57.198  47.805  0.00  0.00    +0.000 A 
ATOM     11  C   UNL     1     -14.314  57.713  49.940  0.00  0.00    +0.000 A 
ATOM     12  C   UNL     1     -14.206  57.926  48.564  0.00  0.00    +0.000 A 
ATOM     13  H   UNL     1     -10.175  53.319  49.631  0.00  0.00    +0.000 HD
ATOM     14  H   UNL     1     -11.396  55.797  46.730  0.00  0.00    +0.000 HD
ENDROOT
BRANCH   6  15
ATOM     15  C   UNL     1     -10.079  53.589  47.155  0.00  0.00    +0.000 A 
ATOM     16  C   UNL     1      -8.738  53.040  47.531  0.00  0.00    +0.000 A 
ATOM     17  C   UNL     1     -10.608  53.302  45.952  0.00  0.00    +0.000 A 
ATOM     18  O   UNL     1      -8.323  53.230  48.679  0.00  0.00    +0.000 OA
ATOM     19  N   UNL     1      -8.028  52.339  46.581  0.00  0.00    +0.000 N 
ATOM     20  C   UNL     1      -9.836  52.532  44.975  0.00  0.00    +0.000 A 
ATOM     21  C   UNL     1      -8.548  52.091  45.287  0.00  0.00    +0.000 A 
ATOM     22  C   UNL     1     -10.335  52.259  43.697  0.00  0.00    +0.000 A 
ATOM     23  N   UNL     1      -7.774  51.424  44.397  0.00  0.00    +0.000 NA
ATOM     24  C   UNL     1      -9.549  51.584  42.774  0.00  0.00    +0.000 A 
ATOM     25  C   UNL     1      -8.284  51.193  43.168  0.00  0.00    +0.000 A 
BRANCH  17  26
ATOM     26  O   UNL     1     -11.858  53.709  45.521  0.00  0.00    +0.000 OA
ATOM     27  H   UNL     1     -11.957  54.104  44.678  0.00  0.00    +0.000 HD
ENDBRANCH  17  26
BRANCH  19  28
ATOM     28  C   UNL     1      -6.673  51.874  46.891  0.00  0.00    +0.000 C 
BRANCH  28  29
ATOM     29  C   UNL     1      -5.684  53.043  46.988  0.00  0.00    +0.000 C 
BRANCH  29  30
ATOM     30  C   UNL     1      -4.766  52.995  48.225  0.00  0.00    +0.000 C 
ATOM     31  C   UNL     1      -4.900  54.236  49.108  0.00  0.00    +0.000 C 
ATOM     32  C   UNL     1      -5.089  51.745  49.052  0.00  0.00    +0.000 C 
ENDBRANCH  29  30
ENDBRANCH  28  29
ENDBRANCH  19  28
ENDBRANCH   6  15
BRANCH  11  33
ATOM     33  O   UNL     1     -15.251  58.472  50.586  0.00  0.00    +0.000 OA
BRANCH  33  34
ATOM     34  C   UNL     1     -14.714  59.436  51.498  0.00  0.00    +0.000 C 
BRANCH  34  35
ATOM     35  C   UNL     1     -15.325  59.190  52.875  0.00  0.00    +0.000 C 
BRANCH  35  36
ATOM     36  N   UNL     1     -14.638  58.114  53.585  0.00  0.00    +0.000 N 
ATOM     37  H   UNL     1     -15.011  57.214  53.281  0.00  0.00    +0.000 HD
ATOM     38  H   UNL     1     -14.784  58.223  54.588  0.00  0.00    +0.000 HD
ATOM     39  H   UNL     1     -13.640  58.154  53.379  0.00  0.00    +0.000 HD
ENDBRANCH  35  36
ENDBRANCH  34  35
ENDBRANCH  33  34
ENDBRANCH  11  33
TORSDOF 9
ENDMDL
MODEL 5
REMARK VINA RESULT:      -6.8      2.497      3.646
REMARK  Name = 352770
REMARK  11 active torsions:
REMARK  status: ('A' for Active; 'I' for Inactive)
REMARK    1  A    between atoms: C_6  and  C_10
REMARK    2  A    between atoms: C_12  and  O_16
REMARK    3  A    between atoms: C_14  and  O_19
REMARK    4  A    between atoms: O_16  and  C_21
REMARK    5  A    between atoms: N_18  and  C_23
REMARK    6  A    between atoms: C_21  and  C_25
REMARK    7  A    between atoms: C_23  and  C_27
REMARK    8  A    between atoms: C_25  and  N_29
REMARK    9  A    between atoms: C_27  and  C_31
REMARK   10  A    between atoms: C_31  and  C_32
REMARK   11  A    between atoms: C_31  and  C_33
REMARK                            x       y       z     vdW  Elec       q    Type
REMARK                         _______ _______ _______ _____ _____    ______ ____
ROOT
ATOM      1  S   UNL     1     -11.371  54.729  47.856  0.00  0.00    +0.000 S 
ATOM      2  O   UNL     1     -12.287  53.686  47.442  0.00  0.00    +0.000 OA
ATOM      3  O   UNL     1     -11.120  55.868  46.992  0.00  0.00    +0.000 OA
ATOM      4  N   UNL     1      -9.951  54.036  48.192  0.00  0.00    +0.000 N 
ATOM      5  C   UNL     1     -12.018  55.386  49.345  0.00  0.00    +0.000 A 
ATOM      6  C   UNL     1      -9.522  53.935  49.417  0.00  0.00    +0.000 C 
ATOM      7  C   UNL     1     -11.340  55.130  50.524  0.00  0.00    +0.000 A 
ATOM      8  C   UNL     1     -13.178  56.157  49.301  0.00  0.00    +0.000 A 
ATOM      9  N   UNL     1     -10.196  54.341  50.545  0.00  0.00    +0.000 N 
ATOM     10  C   UNL     1     -11.880  55.625  51.713  0.00  0.00    +0.000 A 
ATOM     11  C   UNL     1     -13.702  56.655  50.487  0.00  0.00    +0.000 A 
ATOM     12  C   UNL     1     -13.045  56.398  51.692  0.00  0.00    +0.000 A 
ATOM     13  H   UNL     1      -9.398  53.683  47.457  0.00  0.00    +0.000 HD
ATOM     14  H   UNL     1      -9.847  54.055  51.420  0.00  0.00    +0.000 HD
ENDROOT
BRANCH   6  15
ATOM     15  C   UNL     1      -8.142  53.342  49.583  0.00  0.00    +0.000 A 
ATOM     16  C   UNL     1      -7.145  54.039  50.455  0.00  0.00    +0.000 A 
ATOM     17  C   UNL     1      -7.809  52.194  48.967  0.00  0.00    +0.000 A 
ATOM     18  O   UNL     1      -7.510  55.033  51.091  0.00  0.00    +0.000 OA
ATOM     19  N   UNL     1      -5.864  53.535  50.515  0.00  0.00    +0.000 N 
ATOM     20  C   UNL     1      -6.445  51.672  49.074  0.00  0.00    +0.000 A 
ATOM     21  C   UNL     1      -5.484  52.364  49.815  0.00  0.00    +0.000 A 
ATOM     22  C   UNL     1      -6.050  50.508  48.407  0.00  0.00    +0.000 A 
ATOM     23  N   UNL     1      -4.196  51.951  49.896  0.00  0.00    +0.000 NA
ATOM     24  C   UNL     1      -4.733  50.080  48.476  0.00  0.00    +0.000 A 
ATOM     25  C   UNL     1      -3.849  50.833  49.226  0.00  0.00    +0.000 A 
BRANCH  17  26
ATOM     26  O   UNL     1      -8.665  51.439  48.185  0.00  0.00    +0.000 OA
ATOM     27  H   UNL     1      -8.582  51.453  47.252  0.00  0.00    +0.000 HD
ENDBRANCH  17  26
BRANCH  19  28
ATOM     28  C   UNL     1      -4.842  54.253  51.283  0.00  0.00    +0.000 C 
BRANCH  28  29
ATOM     29  C   UNL     1      -4.819  53.804  52.750  0.00  0.00    +0.000 C 
BRANCH  29  30
ATOM     30  C   UNL     1      -5.132  54.924  53.760  0.00  0.00    +0.000 C 
ATOM     31  C   UNL     1      -6.119  54.485  54.842  0.00  0.00    +0.000 C 
ATOM     32  C   UNL     1      -3.831  55.395  54.420  0.00  0.00    +0.000 C 
ENDBRANCH  29  30
ENDBRANCH  28  29
ENDBRANCH  19  28
ENDBRANCH   6  15
BRANCH  11  33
ATOM     33  O   UNL     1     -14.827  57.428  50.577  0.00  0.00    +0.000 OA
BRANCH  33  34
ATOM     34  C   UNL     1     -14.615  58.726  51.143  0.00  0.00    +0.000 C 
BRANCH  34  35
ATOM     35  C   UNL     1     -14.581  59.747  50.009  0.00  0.00    +0.000 C 
BRANCH  35  36
ATOM     36  N   UNL     1     -13.218  60.168  49.704  0.00  0.00    +0.000 N 
ATOM     37  H   UNL     1     -13.106  60.251  48.693  0.00  0.00    +0.000 HD
ATOM     38  H   UNL     1     -12.560  59.476  50.064  0.00  0.00    +0.000 HD
ATOM     39  H   UNL     1     -13.034  61.071  50.141  0.00  0.00    +0.000 HD
ENDBRANCH  35  36
ENDBRANCH  34  35
ENDBRANCH  33  34
ENDBRANCH  11  33
TORSDOF 9
ENDMDL
MODEL 6
REMARK VINA RESULT:      -6.8      2.950      9.342
REMARK  Name = 352770
REMARK  11 active torsions:
REMARK  status: ('A' for Active; 'I' for Inactive)
REMARK    1  A    between atoms: C_6  and  C_10
REMARK    2  A    between atoms: C_12  and  O_16
REMARK    3  A    between atoms: C_14  and  O_19
REMARK    4  A    between atoms: O_16  and  C_21
REMARK    5  A    between atoms: N_18  and  C_23
REMARK    6  A    between atoms: C_21  and  C_25
REMARK    7  A    between atoms: C_23  and  C_27
REMARK    8  A    between atoms: C_25  and  N_29
REMARK    9  A    between atoms: C_27  and  C_31
REMARK   10  A    between atoms: C_31  and  C_32
REMARK   11  A    between atoms: C_31  and  C_33
REMARK                            x       y       z     vdW  Elec       q    Type
REMARK                         _______ _______ _______ _____ _____    ______ ____
ROOT
ATOM      1  S   UNL     1      -6.679  54.863  51.411  0.00  0.00    +0.000 S 
ATOM      2  O   UNL     1      -6.377  55.362  52.736  0.00  0.00    +0.000 OA
ATOM      3  O   UNL     1      -5.773  55.122  50.307  0.00  0.00    +0.000 OA
ATOM      4  N   UNL     1      -8.141  55.412  50.996  0.00  0.00    +0.000 N 
ATOM      5  C   UNL     1      -6.777  53.120  51.554  0.00  0.00    +0.000 A 
ATOM      6  C   UNL     1      -9.168  54.616  50.931  0.00  0.00    +0.000 C 
ATOM      7  C   UNL     1      -8.018  52.520  51.428  0.00  0.00    +0.000 A 
ATOM      8  C   UNL     1      -5.611  52.388  51.772  0.00  0.00    +0.000 A 
ATOM      9  N   UNL     1      -9.170  53.273  51.230  0.00  0.00    +0.000 N 
ATOM     10  C   UNL     1      -8.097  51.134  51.580  0.00  0.00    +0.000 A 
ATOM     11  C   UNL     1      -5.697  51.008  51.910  0.00  0.00    +0.000 A 
ATOM     12  C   UNL     1      -6.939  50.381  51.802  0.00  0.00    +0.000 A 
ATOM     13  H   UNL     1      -8.257  56.368  50.788  0.00  0.00    +0.000 HD
ATOM     14  H   UNL     1     -10.039  52.819  51.310  0.00  0.00    +0.000 HD
ENDROOT
BRANCH   6  15
ATOM     15  C   UNL     1     -10.455  55.243  50.449  0.00  0.00    +0.000 A 
ATOM     16  C   UNL     1     -11.556  55.501  51.430  0.00  0.00    +0.000 A 
ATOM     17  C   UNL     1     -10.614  55.581  49.158  0.00  0.00    +0.000 A 
ATOM     18  O   UNL     1     -11.345  55.279  52.627  0.00  0.00    +0.000 OA
ATOM     19  N   UNL     1     -12.756  55.983  50.954  0.00  0.00    +0.000 N 
ATOM     20  C   UNL     1     -11.894  56.116  48.690  0.00  0.00    +0.000 A 
ATOM     21  C   UNL     1     -12.956  56.278  49.583  0.00  0.00    +0.000 A 
ATOM     22  C   UNL     1     -12.111  56.431  47.345  0.00  0.00    +0.000 A 
ATOM     23  N   UNL     1     -14.176  56.715  49.188  0.00  0.00    +0.000 NA
ATOM     24  C   UNL     1     -13.358  56.872  46.927  0.00  0.00    +0.000 A 
ATOM     25  C   UNL     1     -14.351  56.994  47.879  0.00  0.00    +0.000 A 
BRANCH  17  26
ATOM     26  O   UNL     1      -9.647  55.439  48.179  0.00  0.00    +0.000 OA
ATOM     27  H   UNL     1      -9.745  55.876  47.355  0.00  0.00    +0.000 HD
ENDBRANCH  17  26
BRANCH  19  28
ATOM     28  C   UNL     1     -13.882  56.153  51.877  0.00  0.00    +0.000 C 
BRANCH  28  29
ATOM     29  C   UNL     1     -13.816  57.499  52.609  0.00  0.00    +0.000 C 
BRANCH  29  30
ATOM     30  C   UNL     1     -14.906  58.503  52.190  0.00  0.00    +0.000 C 
ATOM     31  C   UNL     1     -15.470  59.291  53.372  0.00  0.00    +0.000 C 
ATOM     32  C   UNL     1     -14.332  59.478  51.156  0.00  0.00    +0.000 C 
ENDBRANCH  29  30
ENDBRANCH  28  29
ENDBRANCH  19  28
ENDBRANCH   6  15
BRANCH  11  33
ATOM     33  O   UNL     1      -4.630  50.179  52.120  0.00  0.00    +0.000 OA
BRANCH  33  34
ATOM     34  C   UNL     1      -4.512  49.107  51.178  0.00  0.00    +0.000 C 
BRANCH  34  35
ATOM     35  C   UNL     1      -3.521  49.524  50.095  0.00  0.00    +0.000 C 
BRANCH  35  36
ATOM     36  N   UNL     1      -4.200  49.883  48.853  0.00  0.00    +0.000 N 
ATOM     37  H   UNL     1      -4.745  49.087  48.521  0.00  0.00    +0.000 HD
ATOM     38  H   UNL     1      -3.507  50.139  48.149  0.00  0.00    +0.000 HD
ATOM     39  H   UNL     1      -4.822  50.673  49.022  0.00  0.00    +0.000 HD
ENDBRANCH  35  36
ENDBRANCH  34  35
ENDBRANCH  33  34
ENDBRANCH  11  33
TORSDOF 9
ENDMDL
MODEL 7
REMARK VINA RESULT:      -6.5      4.435      5.624
REMARK  Name = 352770
REMARK  11 active torsions:
REMARK  status: ('A' for Active; 'I' for Inactive)
REMARK    1  A    between atoms: C_6  and  C_10
REMARK    2  A    between atoms: C_12  and  O_16
REMARK    3  A    between atoms: C_14  and  O_19
REMARK    4  A    between atoms: O_16  and  C_21
REMARK    5  A    between atoms: N_18  and  C_23
REMARK    6  A    between atoms: C_21  and  C_25
REMARK    7  A    between atoms: C_23  and  C_27
REMARK    8  A    between atoms: C_25  and  N_29
REMARK    9  A    between atoms: C_27  and  C_31
REMARK   10  A    between atoms: C_31  and  C_32
REMARK   11  A    between atoms: C_31  and  C_33
REMARK                            x       y       z     vdW  Elec       q    Type
REMARK                         _______ _______ _______ _____ _____    ______ ____
ROOT
ATOM      1  S   UNL     1     -11.303  54.734  50.685  0.00  0.00    +0.000 S 
ATOM      2  O   UNL     1     -10.383  55.616  51.373  0.00  0.00    +0.000 OA
ATOM      3  O   UNL     1     -12.245  53.926  51.438  0.00  0.00    +0.000 OA
ATOM      4  N   UNL     1     -10.434  53.744  49.749  0.00  0.00    +0.000 N 
ATOM      5  C   UNL     1     -12.272  55.754  49.641  0.00  0.00    +0.000 A 
ATOM      6  C   UNL     1     -10.441  53.862  48.453  0.00  0.00    +0.000 C 
ATOM      7  C   UNL     1     -12.077  55.665  48.274  0.00  0.00    +0.000 A 
ATOM      8  C   UNL     1     -13.214  56.608  50.209  0.00  0.00    +0.000 A 
ATOM      9  N   UNL     1     -11.116  54.819  47.732  0.00  0.00    +0.000 N 
ATOM     10  C   UNL     1     -12.826  56.506  47.447  0.00  0.00    +0.000 A 
ATOM     11  C   UNL     1     -13.963  57.434  49.378  0.00  0.00    +0.000 A 
ATOM     12  C   UNL     1     -13.775  57.373  47.996  0.00  0.00    +0.000 A 
ATOM     13  H   UNL     1      -9.889  53.038  50.167  0.00  0.00    +0.000 HD
ATOM     14  H   UNL     1     -10.905  54.911  46.775  0.00  0.00    +0.000 HD
ENDROOT
BRANCH   6  15
ATOM     15  C   UNL     1      -9.651  52.820  47.695  0.00  0.00    +0.000 A 
ATOM     16  C   UNL     1      -8.263  52.483  48.144  0.00  0.00    +0.000 A 
ATOM     17  C   UNL     1     -10.187  52.188  46.636  0.00  0.00    +0.000 A 
ATOM     18  O   UNL     1      -7.836  53.001  49.180  0.00  0.00    +0.000 OA
ATOM     19  N   UNL     1      -7.526  51.602  47.383  0.00  0.00    +0.000 N 
ATOM     20  C   UNL     1      -9.383  51.238  45.865  0.00  0.00    +0.000 A 
ATOM     21  C   UNL     1      -8.058  50.983  46.224  0.00  0.00    +0.000 A 
ATOM     22  C   UNL     1      -9.891  50.600  44.728  0.00  0.00    +0.000 A 
ATOM     23  N   UNL     1      -7.258  50.156  45.509  0.00  0.00    +0.000 NA
ATOM     24  C   UNL     1      -9.080  49.758  43.983  0.00  0.00    +0.000 A 
ATOM     25  C   UNL     1      -7.779  49.572  44.410  0.00  0.00    +0.000 A 
BRANCH  17  26
ATOM     26  O   UNL     1     -11.474  52.380  46.169  0.00  0.00    +0.000 OA
ATOM     27  H   UNL     1     -12.092  51.676  46.194  0.00  0.00    +0.000 HD
ENDBRANCH  17  26
BRANCH  19  28
ATOM     28  C   UNL     1      -6.132  51.330  47.743  0.00  0.00    +0.000 C 
BRANCH  28  29
ATOM     29  C   UNL     1      -5.215  52.505  47.383  0.00  0.00    +0.000 C 
BRANCH  29  30
ATOM     30  C   UNL     1      -4.314  52.983  48.538  0.00  0.00    +0.000 C 
ATOM     31  C   UNL     1      -4.663  54.392  49.015  0.00  0.00    +0.000 C 
ATOM     32  C   UNL     1      -4.427  52.005  49.712  0.00  0.00    +0.000 C 
ENDBRANCH  29  30
ENDBRANCH  28  29
ENDBRANCH  19  28
ENDBRANCH   6  15
BRANCH  11  33
ATOM     33  O   UNL     1     -14.921  58.309  49.810  0.00  0.00    +0.000 OA
BRANCH  33  34
ATOM     34  C   UNL     1     -14.434  59.360  50.652  0.00  0.00    +0.000 C 
BRANCH  34  35
ATOM     35  C   UNL     1     -13.649  60.345  49.789  0.00  0.00    +0.000 C 
BRANCH  35  36
ATOM     36  N   UNL     1     -14.479  60.915  48.732  0.00  0.00    +0.000 N 
ATOM     37  H   UNL     1     -15.387  61.177  49.116  0.00  0.00    +0.000 HD
ATOM     38  H   UNL     1     -14.608  60.224  47.992  0.00  0.00    +0.000 HD
ATOM     39  H   UNL     1     -14.021  61.742  48.349  0.00  0.00    +0.000 HD
ENDBRANCH  35  36
ENDBRANCH  34  35
ENDBRANCH  33  34
ENDBRANCH  11  33
TORSDOF 9
ENDMDL
MODEL 8
REMARK VINA RESULT:      -6.4      3.319      8.805
REMARK  Name = 352770
REMARK  11 active torsions:
REMARK  status: ('A' for Active; 'I' for Inactive)
REMARK    1  A    between atoms: C_6  and  C_10
REMARK    2  A    between atoms: C_12  and  O_16
REMARK    3  A    between atoms: C_14  and  O_19
REMARK    4  A    between atoms: O_16  and  C_21
REMARK    5  A    between atoms: N_18  and  C_23
REMARK    6  A    between atoms: C_21  and  C_25
REMARK    7  A    between atoms: C_23  and  C_27
REMARK    8  A    between atoms: C_25  and  N_29
REMARK    9  A    between atoms: C_27  and  C_31
REMARK   10  A    between atoms: C_31  and  C_32
REMARK   11  A    between atoms: C_31  and  C_33
REMARK                            x       y       z     vdW  Elec       q    Type
REMARK                         _______ _______ _______ _____ _____    ______ ____
ROOT
ATOM      1  S   UNL     1      -6.765  55.228  52.053  0.00  0.00    +0.000 S 
ATOM      2  O   UNL     1      -6.586  56.131  53.171  0.00  0.00    +0.000 OA
ATOM      3  O   UNL     1      -5.772  55.163  50.997  0.00  0.00    +0.000 OA
ATOM      4  N   UNL     1      -8.194  55.558  51.374  0.00  0.00    +0.000 N 
ATOM      5  C   UNL     1      -6.850  53.616  52.734  0.00  0.00    +0.000 A 
ATOM      6  C   UNL     1      -9.200  54.740  51.486  0.00  0.00    +0.000 C 
ATOM      7  C   UNL     1      -8.067  52.957  52.710  0.00  0.00    +0.000 A 
ATOM      8  C   UNL     1      -5.697  53.040  53.262  0.00  0.00    +0.000 A 
ATOM      9  N   UNL     1      -9.208  53.561  52.195  0.00  0.00    +0.000 N 
ATOM     10  C   UNL     1      -8.137  51.687  53.287  0.00  0.00    +0.000 A 
ATOM     11  C   UNL     1      -5.774  51.771  53.824  0.00  0.00    +0.000 A 
ATOM     12  C   UNL     1      -6.992  51.091  53.825  0.00  0.00    +0.000 A 
ATOM     13  H   UNL     1      -8.306  56.394  50.865  0.00  0.00    +0.000 HD
ATOM     14  H   UNL     1     -10.074  53.120  52.348  0.00  0.00    +0.000 HD
ENDROOT
BRANCH   6  15
ATOM     15  C   UNL     1     -10.451  55.130  50.733  0.00  0.00    +0.000 A 
ATOM     16  C   UNL     1     -10.451  55.079  49.237  0.00  0.00    +0.000 A 
ATOM     17  C   UNL     1     -11.560  55.506  51.392  0.00  0.00    +0.000 A 
ATOM     18  O   UNL     1      -9.455  54.630  48.661  0.00  0.00    +0.000 OA
ATOM     19  N   UNL     1     -11.567  55.531  48.568  0.00  0.00    +0.000 N 
ATOM     20  C   UNL     1     -12.739  55.956  50.649  0.00  0.00    +0.000 A 
ATOM     21  C   UNL     1     -12.717  55.996  49.253  0.00  0.00    +0.000 A 
ATOM     22  C   UNL     1     -13.893  56.403  51.302  0.00  0.00    +0.000 A 
ATOM     23  N   UNL     1     -13.761  56.457  48.524  0.00  0.00    +0.000 NA
ATOM     24  C   UNL     1     -14.965  56.885  50.567  0.00  0.00    +0.000 A 
ATOM     25  C   UNL     1     -14.850  56.894  49.190  0.00  0.00    +0.000 A 
BRANCH  17  26
ATOM     26  O   UNL     1     -11.690  55.537  52.769  0.00  0.00    +0.000 OA
ATOM     27  H   UNL     1     -12.523  55.720  53.158  0.00  0.00    +0.000 HD
ENDBRANCH  17  26
BRANCH  19  28
ATOM     28  C   UNL     1     -11.557  55.585  47.103  0.00  0.00    +0.000 C 
BRANCH  28  29
ATOM     29  C   UNL     1     -11.925  54.229  46.486  0.00  0.00    +0.000 C 
BRANCH  29  30
ATOM     30  C   UNL     1     -11.160  53.895  45.190  0.00  0.00    +0.000 C 
ATOM     31  C   UNL     1      -9.644  53.899  45.381  0.00  0.00    +0.000 C 
ATOM     32  C   UNL     1     -11.604  52.521  44.676  0.00  0.00    +0.000 C 
ENDBRANCH  29  30
ENDBRANCH  28  29
ENDBRANCH  19  28
ENDBRANCH   6  15
BRANCH  11  33
ATOM     33  O   UNL     1      -4.716  51.095  54.368  0.00  0.00    +0.000 OA
BRANCH  33  34
ATOM     34  C   UNL     1      -3.526  51.109  53.571  0.00  0.00    +0.000 C 
BRANCH  34  35
ATOM     35  C   UNL     1      -3.644  50.018  52.509  0.00  0.00    +0.000 C 
BRANCH  35  36
ATOM     36  N   UNL     1      -3.324  50.525  51.179  0.00  0.00    +0.000 N 
ATOM     37  H   UNL     1      -2.461  50.092  50.848  0.00  0.00    +0.000 HD
ATOM     38  H   UNL     1      -3.202  51.537  51.221  0.00  0.00    +0.000 HD
ATOM     39  H   UNL     1      -4.084  50.300  50.537  0.00  0.00    +0.000 HD
ENDBRANCH  35  36
ENDBRANCH  34  35
ENDBRANCH  33  34
ENDBRANCH  11  33
TORSDOF 9
ENDMDL
MODEL 9
REMARK VINA RESULT:      -6.3      4.286      5.920
REMARK  Name = 352770
REMARK  11 active torsions:
REMARK  status: ('A' for Active; 'I' for Inactive)
REMARK    1  A    between atoms: C_6  and  C_10
REMARK    2  A    between atoms: C_12  and  O_16
REMARK    3  A    between atoms: C_14  and  O_19
REMARK    4  A    between atoms: O_16  and  C_21
REMARK    5  A    between atoms: N_18  and  C_23
REMARK    6  A    between atoms: C_21  and  C_25
REMARK    7  A    between atoms: C_23  and  C_27
REMARK    8  A    between atoms: C_25  and  N_29
REMARK    9  A    between atoms: C_27  and  C_31
REMARK   10  A    between atoms: C_31  and  C_32
REMARK   11  A    between atoms: C_31  and  C_33
REMARK                            x       y       z     vdW  Elec       q    Type
REMARK                         _______ _______ _______ _____ _____    ______ ____
ROOT
ATOM      1  S   UNL     1     -10.912  54.267  51.934  0.00  0.00    +0.000 S 
ATOM      2  O   UNL     1     -10.280  55.050  52.976  0.00  0.00    +0.000 OA
ATOM      3  O   UNL     1     -11.869  53.230  52.275  0.00  0.00    +0.000 OA
ATOM      4  N   UNL     1      -9.745  53.595  51.042  0.00  0.00    +0.000 N 
ATOM      5  C   UNL     1     -11.778  55.405  50.923  0.00  0.00    +0.000 A 
ATOM      6  C   UNL     1      -9.503  54.000  49.829  0.00  0.00    +0.000 C 
ATOM      7  C   UNL     1     -11.299  55.644  49.646  0.00  0.00    +0.000 A 
ATOM      8  C   UNL     1     -12.923  56.023  51.420  0.00  0.00    +0.000 A 
ATOM      9  N   UNL     1     -10.142  55.031  49.180  0.00  0.00    +0.000 N 
ATOM     10  C   UNL     1     -11.971  56.580  48.856  0.00  0.00    +0.000 A 
ATOM     11  C   UNL     1     -13.592  56.944  50.623  0.00  0.00    +0.000 A 
ATOM     12  C   UNL     1     -13.122  57.213  49.337  0.00  0.00    +0.000 A 
ATOM     13  H   UNL     1      -9.205  52.864  51.423  0.00  0.00    +0.000 HD
ATOM     14  H   UNL     1      -9.755  55.355  48.335  0.00  0.00    +0.000 HD
ENDROOT
BRANCH   6  15
ATOM     15  C   UNL     1      -8.442  53.230  49.079  0.00  0.00    +0.000 A 
ATOM     16  C   UNL     1      -8.830  52.433  47.872  0.00  0.00    +0.000 A 
ATOM     17  C   UNL     1      -7.158  53.266  49.475  0.00  0.00    +0.000 A 
ATOM     18  O   UNL     1      -9.995  52.502  47.469  0.00  0.00    +0.000 OA
ATOM     19  N   UNL     1      -7.866  51.661  47.261  0.00  0.00    +0.000 N 
ATOM     20  C   UNL     1      -6.153  52.454  48.786  0.00  0.00    +0.000 A 
ATOM     21  C   UNL     1      -6.524  51.638  47.714  0.00  0.00    +0.000 A 
ATOM     22  C   UNL     1      -4.818  52.427  49.202  0.00  0.00    +0.000 A 
ATOM     23  N   UNL     1      -5.643  50.827  47.081  0.00  0.00    +0.000 NA
ATOM     24  C   UNL     1      -3.908  51.595  48.568  0.00  0.00    +0.000 A 
ATOM     25  C   UNL     1      -4.367  50.817  47.522  0.00  0.00    +0.000 A 
BRANCH  17  26
ATOM     26  O   UNL     1      -6.679  54.010  50.538  0.00  0.00    +0.000 OA
ATOM     27  H   UNL     1      -7.260  54.279  51.222  0.00  0.00    +0.000 HD
ENDBRANCH  17  26
BRANCH  19  28
ATOM     28  C   UNL     1      -8.240  50.795  46.139  0.00  0.00    +0.000 C 
BRANCH  28  29
ATOM     29  C   UNL     1      -8.261  51.566  44.813  0.00  0.00    +0.000 C 
BRANCH  29  30
ATOM     30  C   UNL     1      -9.569  51.416  44.012  0.00  0.00    +0.000 C 
ATOM     31  C   UNL     1     -10.515  50.378  44.616  0.00  0.00    +0.000 C 
ATOM     32  C   UNL     1     -10.280  52.771  43.936  0.00  0.00    +0.000 C 
ENDBRANCH  29  30
ENDBRANCH  28  29
ENDBRANCH  19  28
ENDBRANCH   6  15
BRANCH  11  33
ATOM     33  O   UNL     1     -14.729  57.611  50.991  0.00  0.00    +0.000 OA
BRANCH  33  34
ATOM     34  C   UNL     1     -14.525  58.980  51.357  0.00  0.00    +0.000 C 
BRANCH  34  35
ATOM     35  C   UNL     1     -15.190  59.222  52.709  0.00  0.00    +0.000 C 
BRANCH  35  36
ATOM     36  N   UNL     1     -14.851  58.178  53.671  0.00  0.00    +0.000 N 
ATOM     37  H   UNL     1     -14.677  58.600  54.583  0.00  0.00    +0.000 HD
ATOM     38  H   UNL     1     -14.014  57.687  53.357  0.00  0.00    +0.000 HD
ATOM     39  H   UNL     1     -15.626  57.519  53.744  0.00  0.00    +0.000 HD
ENDBRANCH  35  36
ENDBRANCH  34  35
ENDBRANCH  33  34
ENDBRANCH  11  33
TORSDOF 9
ENDMDL
