MODEL 1
REMARK VINA RESULT:      -8.6      0.000      0.000
REMARK  Name = 352971
REMARK  4 active torsions:
REMARK  status: ('A' for Active; 'I' for Inactive)
REMARK    1  A    between atoms: C_8  and  C_12
REMARK    2  A    between atoms: C_16  and  O_19
REMARK    3  A    between atoms: N_18  and  C_22
REMARK    4  A    between atoms: C_22  and  C_25
REMARK                            x       y       z     vdW  Elec       q    Type
REMARK                         _______ _______ _______ _____ _____    ______ ____
ROOT
ATOM      1  C   UNL     1     -10.567  55.638  50.656  0.00  0.00    +0.000 A 
ATOM      2  C   UNL     1     -10.046  56.265  49.408  0.00  0.00    +0.000 A 
ATOM      3  C   UNL     1     -11.903  55.493  50.729  0.00  0.00    +0.000 A 
ATOM      4  O   UNL     1      -9.088  57.026  49.427  0.00  0.00    +0.000 OA
ATOM      5  N   UNL     1     -10.693  55.772  48.256  0.00  0.00    +0.000 N 
ATOM      6  C   UNL     1     -12.694  56.040  49.625  0.00  0.00    +0.000 A 
ATOM      7  C   UNL     1     -12.102  56.063  48.342  0.00  0.00    +0.000 A 
ATOM      8  C   UNL     1     -13.946  56.619  49.808  0.00  0.00    +0.000 A 
ATOM      9  N   UNL     1     -12.697  56.637  47.277  0.00  0.00    +0.000 NA
ATOM     10  C   UNL     1     -14.540  57.267  48.733  0.00  0.00    +0.000 A 
ATOM     11  C   UNL     1     -13.890  57.242  47.504  0.00  0.00    +0.000 A 
ENDROOT
BRANCH   1  19
ATOM     12 BR   UNL     1     -10.422  50.445  51.688  0.00  0.00    +0.000 Br
ATOM     13  C   UNL     1      -9.130  51.392  52.711  0.00  0.00    +0.000 A 
ATOM     14  C   UNL     1      -9.001  52.785  52.598  0.00  0.00    +0.000 A 
ATOM     15  C   UNL     1      -8.312  50.654  53.578  0.00  0.00    +0.000 A 
ATOM     16  N   UNL     1      -9.775  53.537  51.710  0.00  0.00    +0.000 N 
ATOM     17  C   UNL     1      -8.010  53.386  53.370  0.00  0.00    +0.000 A 
ATOM     18  C   UNL     1      -7.342  51.297  54.347  0.00  0.00    +0.000 A 
ATOM     19  C   UNL     1      -9.625  54.886  51.521  0.00  0.00    +0.000 C 
ATOM     20  S   UNL     1      -7.788  55.118  53.252  0.00  0.00    +0.000 S 
ATOM     21  C   UNL     1      -7.186  52.671  54.243  0.00  0.00    +0.000 A 
ATOM     22  N   UNL     1      -8.754  55.661  52.091  0.00  0.00    +0.000 N 
ATOM     23  O   UNL     1      -6.423  55.321  52.811  0.00  0.00    +0.000 OA
ATOM     24  O   UNL     1      -8.245  55.679  54.512  0.00  0.00    +0.000 OA
ATOM     25  H   UNL     1     -10.469  53.070  51.191  0.00  0.00    +0.000 HD
ATOM     26  H   UNL     1      -8.684  56.601  51.805  0.00  0.00    +0.000 HD
ENDBRANCH   1  19
BRANCH   3  27
ATOM     27  O   UNL     1     -12.589  54.752  51.662  0.00  0.00    +0.000 OA
ATOM     28  H   UNL     1     -12.287  53.897  51.897  0.00  0.00    +0.000 HD
ENDBRANCH   3  27
BRANCH   5  29
ATOM     29  C   UNL     1     -10.383  54.333  48.084  0.00  0.00    +0.000 C 
BRANCH  29  30
ATOM     30  C   UNL     1     -10.994  53.587  46.932  0.00  0.00    +0.000 A 
ATOM     31  C   UNL     1     -10.637  53.848  45.608  0.00  0.00    +0.000 A 
ATOM     32  C   UNL     1     -11.835  52.489  47.204  0.00  0.00    +0.000 A 
ATOM     33  C   UNL     1     -11.154  53.066  44.573  0.00  0.00    +0.000 A 
ATOM     34  C   UNL     1     -12.351  51.709  46.169  0.00  0.00    +0.000 A 
ATOM     35  C   UNL     1     -12.017  52.006  44.851  0.00  0.00    +0.000 A 
ENDBRANCH  29  30
ENDBRANCH   5  29
TORSDOF 4
ENDMDL
MODEL 2
REMARK VINA RESULT:      -8.6      2.544      3.102
REMARK  Name = 352971
REMARK  4 active torsions:
REMARK  status: ('A' for Active; 'I' for Inactive)
REMARK    1  A    between atoms: C_8  and  C_12
REMARK    2  A    between atoms: C_16  and  O_19
REMARK    3  A    between atoms: N_18  and  C_22
REMARK    4  A    between atoms: C_22  and  C_25
REMARK                            x       y       z     vdW  Elec       q    Type
REMARK                         _______ _______ _______ _____ _____    ______ ____
ROOT
ATOM      1  C   UNL     1      -9.232  55.516  51.468  0.00  0.00    +0.000 A 
ATOM      2  C   UNL     1      -9.209  56.281  50.189  0.00  0.00    +0.000 A 
ATOM      3  C   UNL     1     -10.446  55.124  51.897  0.00  0.00    +0.000 A 
ATOM      4  O   UNL     1      -8.426  57.205  50.011  0.00  0.00    +0.000 OA
ATOM      5  N   UNL     1     -10.072  55.726  49.223  0.00  0.00    +0.000 N 
ATOM      6  C   UNL     1     -11.604  55.561  51.114  0.00  0.00    +0.000 A 
ATOM      7  C   UNL     1     -11.423  55.747  49.725  0.00  0.00    +0.000 A 
ATOM      8  C   UNL     1     -12.826  55.890  51.692  0.00  0.00    +0.000 A 
ATOM      9  N   UNL     1     -12.389  56.245  48.927  0.00  0.00    +0.000 NA
ATOM     10  C   UNL     1     -13.805  56.462  50.891  0.00  0.00    +0.000 A 
ATOM     11  C   UNL     1     -13.546  56.608  49.533  0.00  0.00    +0.000 A 
ENDROOT
BRANCH   1  19
ATOM     12 BR   UNL     1      -4.967  54.009  48.713  0.00  0.00    +0.000 Br
ATOM     13  C   UNL     1      -4.799  53.563  50.552  0.00  0.00    +0.000 A 
ATOM     14  C   UNL     1      -5.821  53.865  51.465  0.00  0.00    +0.000 A 
ATOM     15  C   UNL     1      -3.621  52.923  50.966  0.00  0.00    +0.000 A 
ATOM     16  N   UNL     1      -6.984  54.540  51.086  0.00  0.00    +0.000 N 
ATOM     17  C   UNL     1      -5.595  53.520  52.795  0.00  0.00    +0.000 A 
ATOM     18  C   UNL     1      -3.441  52.580  52.306  0.00  0.00    +0.000 A 
ATOM     19  C   UNL     1      -7.969  54.917  51.962  0.00  0.00    +0.000 C 
ATOM     20  S   UNL     1      -6.826  53.896  53.982  0.00  0.00    +0.000 S 
ATOM     21  C   UNL     1      -4.431  52.880  53.229  0.00  0.00    +0.000 A 
ATOM     22  N   UNL     1      -7.976  54.743  53.248  0.00  0.00    +0.000 N 
ATOM     23  O   UNL     1      -6.198  54.768  54.954  0.00  0.00    +0.000 OA
ATOM     24  O   UNL     1      -7.401  52.627  54.395  0.00  0.00    +0.000 OA
ATOM     25  H   UNL     1      -7.105  54.756  50.133  0.00  0.00    +0.000 HD
ATOM     26  H   UNL     1      -8.700  55.140  53.785  0.00  0.00    +0.000 HD
ENDBRANCH   1  19
BRANCH   3  27
ATOM     27  O   UNL     1     -10.698  54.230  52.911  0.00  0.00    +0.000 OA
ATOM     28  H   UNL     1     -10.567  54.483  53.804  0.00  0.00    +0.000 HD
ENDBRANCH   3  27
BRANCH   5  29
ATOM     29  C   UNL     1      -9.592  54.378  48.837  0.00  0.00    +0.000 C 
BRANCH  29  30
ATOM     30  C   UNL     1      -9.222  54.117  47.404  0.00  0.00    +0.000 A 
ATOM     31  C   UNL     1      -9.990  53.291  46.580  0.00  0.00    +0.000 A 
ATOM     32  C   UNL     1      -8.160  54.846  46.833  0.00  0.00    +0.000 A 
ATOM     33  C   UNL     1      -9.668  53.153  45.228  0.00  0.00    +0.000 A 
ATOM     34  C   UNL     1      -7.839  54.706  45.483  0.00  0.00    +0.000 A 
ATOM     35  C   UNL     1      -8.590  53.849  44.683  0.00  0.00    +0.000 A 
ENDBRANCH  29  30
ENDBRANCH   5  29
TORSDOF 4
ENDMDL
MODEL 3
REMARK VINA RESULT:      -8.4      2.172      2.467
REMARK  Name = 352971
REMARK  4 active torsions:
REMARK  status: ('A' for Active; 'I' for Inactive)
REMARK    1  A    between atoms: C_8  and  C_12
REMARK    2  A    between atoms: C_16  and  O_19
REMARK    3  A    between atoms: N_18  and  C_22
REMARK    4  A    between atoms: C_22  and  C_25
REMARK                            x       y       z     vdW  Elec       q    Type
REMARK                         _______ _______ _______ _____ _____    ______ ____
ROOT
ATOM      1  C   UNL     1     -10.031  55.617  50.999  0.00  0.00    +0.000 A 
ATOM      2  C   UNL     1      -9.984  56.353  49.703  0.00  0.00    +0.000 A 
ATOM      3  C   UNL     1     -11.254  55.254  51.426  0.00  0.00    +0.000 A 
ATOM      4  O   UNL     1      -9.183  57.259  49.512  0.00  0.00    +0.000 OA
ATOM      5  N   UNL     1     -10.850  55.792  48.742  0.00  0.00    +0.000 N 
ATOM      6  C   UNL     1     -12.398  55.695  50.625  0.00  0.00    +0.000 A 
ATOM      7  C   UNL     1     -12.204  55.848  49.233  0.00  0.00    +0.000 A 
ATOM      8  C   UNL     1     -13.618  56.057  51.186  0.00  0.00    +0.000 A 
ATOM      9  N   UNL     1     -13.154  56.346  48.417  0.00  0.00    +0.000 NA
ATOM     10  C   UNL     1     -14.581  56.629  50.365  0.00  0.00    +0.000 A 
ATOM     11  C   UNL     1     -14.310  56.742  49.006  0.00  0.00    +0.000 A 
ENDROOT
BRANCH   1  19
ATOM     12 BR   UNL     1      -5.781  53.955  48.309  0.00  0.00    +0.000 Br
ATOM     13  C   UNL     1      -5.631  53.554  50.160  0.00  0.00    +0.000 A 
ATOM     14  C   UNL     1      -6.652  53.900  51.059  0.00  0.00    +0.000 A 
ATOM     15  C   UNL     1      -4.468  52.903  50.597  0.00  0.00    +0.000 A 
ATOM     16  N   UNL     1      -7.800  54.587  50.655  0.00  0.00    +0.000 N 
ATOM     17  C   UNL     1      -6.440  53.586  52.399  0.00  0.00    +0.000 A 
ATOM     18  C   UNL     1      -4.302  52.591  51.947  0.00  0.00    +0.000 A 
ATOM     19  C   UNL     1      -8.781  55.005  51.516  0.00  0.00    +0.000 C 
ATOM     20  S   UNL     1      -7.670  54.016  53.568  0.00  0.00    +0.000 S 
ATOM     21  C   UNL     1      -5.292  52.935  52.855  0.00  0.00    +0.000 A 
ATOM     22  N   UNL     1      -8.799  54.866  52.805  0.00  0.00    +0.000 N 
ATOM     23  O   UNL     1      -7.030  54.901  54.520  0.00  0.00    +0.000 OA
ATOM     24  O   UNL     1      -8.272  52.770  54.010  0.00  0.00    +0.000 OA
ATOM     25  H   UNL     1      -7.911  54.781  49.696  0.00  0.00    +0.000 HD
ATOM     26  H   UNL     1      -9.518  55.290  53.328  0.00  0.00    +0.000 HD
ENDBRANCH   1  19
BRANCH   3  27
ATOM     27  O   UNL     1     -11.530  54.387  52.457  0.00  0.00    +0.000 OA
ATOM     28  H   UNL     1     -11.392  54.654  53.344  0.00  0.00    +0.000 HD
ENDBRANCH   3  27
BRANCH   5  29
ATOM     29  C   UNL     1     -10.390  54.428  48.390  0.00  0.00    +0.000 C 
BRANCH  29  30
ATOM     30  C   UNL     1     -10.158  54.086  46.945  0.00  0.00    +0.000 A 
ATOM     31  C   UNL     1      -8.943  54.345  46.308  0.00  0.00    +0.000 A 
ATOM     32  C   UNL     1     -11.140  53.346  46.256  0.00  0.00    +0.000 A 
ATOM     33  C   UNL     1      -8.734  53.923  44.994  0.00  0.00    +0.000 A 
ATOM     34  C   UNL     1     -10.930  52.926  44.943  0.00  0.00    +0.000 A 
ATOM     35  C   UNL     1      -9.729  53.225  44.309  0.00  0.00    +0.000 A 
ENDBRANCH  29  30
ENDBRANCH   5  29
TORSDOF 4
ENDMDL
MODEL 4
REMARK VINA RESULT:      -8.4      2.748      4.907
REMARK  Name = 352971
REMARK  4 active torsions:
REMARK  status: ('A' for Active; 'I' for Inactive)
REMARK    1  A    between atoms: C_8  and  C_12
REMARK    2  A    between atoms: C_16  and  O_19
REMARK    3  A    between atoms: N_18  and  C_22
REMARK    4  A    between atoms: C_22  and  C_25
REMARK                            x       y       z     vdW  Elec       q    Type
REMARK                         _______ _______ _______ _____ _____    ______ ____
ROOT
ATOM      1  C   UNL     1      -8.529  53.105  48.184  0.00  0.00    +0.000 A 
ATOM      2  C   UNL     1     -10.006  52.908  48.189  0.00  0.00    +0.000 A 
ATOM      3  C   UNL     1      -7.969  53.328  46.980  0.00  0.00    +0.000 A 
ATOM      4  O   UNL     1     -10.542  52.110  48.946  0.00  0.00    +0.000 OA
ATOM      5  N   UNL     1     -10.666  53.824  47.344  0.00  0.00    +0.000 N 
ATOM      6  C   UNL     1      -8.851  53.268  45.813  0.00  0.00    +0.000 A 
ATOM      7  C   UNL     1     -10.202  53.642  45.992  0.00  0.00    +0.000 A 
ATOM      8  C   UNL     1      -8.439  52.770  44.581  0.00  0.00    +0.000 A 
ATOM      9  N   UNL     1     -11.123  53.526  45.015  0.00  0.00    +0.000 NA
ATOM     10  C   UNL     1      -9.393  52.588  43.588  0.00  0.00    +0.000 A 
ATOM     11  C   UNL     1     -10.700  52.984  43.846  0.00  0.00    +0.000 A 
ENDROOT
BRANCH   1  19
ATOM     12 BR   UNL     1     -10.600  55.048  52.654  0.00  0.00    +0.000 Br
ATOM     13  C   UNL     1      -8.709  54.898  52.774  0.00  0.00    +0.000 A 
ATOM     14  C   UNL     1      -7.955  54.410  51.695  0.00  0.00    +0.000 A 
ATOM     15  C   UNL     1      -8.095  55.288  53.973  0.00  0.00    +0.000 A 
ATOM     16  N   UNL     1      -8.547  53.975  50.507  0.00  0.00    +0.000 N 
ATOM     17  C   UNL     1      -6.579  54.314  51.887  0.00  0.00    +0.000 A 
ATOM     18  C   UNL     1      -6.711  55.190  54.118  0.00  0.00    +0.000 A 
ATOM     19  C   UNL     1      -7.848  53.426  49.463  0.00  0.00    +0.000 C 
ATOM     20  S   UNL     1      -5.591  53.690  50.584  0.00  0.00    +0.000 S 
ATOM     21  C   UNL     1      -5.946  54.700  53.071  0.00  0.00    +0.000 A 
ATOM     22  N   UNL     1      -6.572  53.198  49.412  0.00  0.00    +0.000 N 
ATOM     23  O   UNL     1      -4.921  52.517  51.110  0.00  0.00    +0.000 OA
ATOM     24  O   UNL     1      -4.819  54.812  50.078  0.00  0.00    +0.000 OA
ATOM     25  H   UNL     1      -9.522  54.070  50.413  0.00  0.00    +0.000 HD
ATOM     26  H   UNL     1      -6.198  52.714  48.641  0.00  0.00    +0.000 HD
ENDBRANCH   1  19
BRANCH   3  27
ATOM     27  O   UNL     1      -6.682  53.754  46.751  0.00  0.00    +0.000 OA
ATOM     28  H   UNL     1      -6.391  53.919  45.876  0.00  0.00    +0.000 HD
ENDBRANCH   3  27
BRANCH   5  29
ATOM     29  C   UNL     1     -10.491  55.201  47.863  0.00  0.00    +0.000 C 
BRANCH  29  30
ATOM     30  C   UNL     1     -11.710  56.020  48.185  0.00  0.00    +0.000 A 
ATOM     31  C   UNL     1     -11.863  56.670  49.411  0.00  0.00    +0.000 A 
ATOM     32  C   UNL     1     -12.651  56.266  47.165  0.00  0.00    +0.000 A 
ATOM     33  C   UNL     1     -12.962  57.501  49.634  0.00  0.00    +0.000 A 
ATOM     34  C   UNL     1     -13.749  57.096  47.389  0.00  0.00    +0.000 A 
ATOM     35  C   UNL     1     -13.909  57.705  48.629  0.00  0.00    +0.000 A 
ENDBRANCH  29  30
ENDBRANCH   5  29
TORSDOF 4
ENDMDL
MODEL 5
REMARK VINA RESULT:      -8.3      2.036      2.513
REMARK  Name = 352971
REMARK  4 active torsions:
REMARK  status: ('A' for Active; 'I' for Inactive)
REMARK    1  A    between atoms: C_8  and  C_12
REMARK    2  A    between atoms: C_16  and  O_19
REMARK    3  A    between atoms: N_18  and  C_22
REMARK    4  A    between atoms: C_22  and  C_25
REMARK                            x       y       z     vdW  Elec       q    Type
REMARK                         _______ _______ _______ _____ _____    ______ ____
ROOT
ATOM      1  C   UNL     1     -11.007  55.546  50.486  0.00  0.00    +0.000 A 
ATOM      2  C   UNL     1     -10.682  55.762  49.048  0.00  0.00    +0.000 A 
ATOM      3  C   UNL     1     -12.185  56.044  50.905  0.00  0.00    +0.000 A 
ATOM      4  O   UNL     1      -9.537  55.989  48.679  0.00  0.00    +0.000 OA
ATOM      5  N   UNL     1     -11.795  55.538  48.213  0.00  0.00    +0.000 N 
ATOM      6  C   UNL     1     -12.968  56.810  49.932  0.00  0.00    +0.000 A 
ATOM      7  C   UNL     1     -12.848  56.456  48.569  0.00  0.00    +0.000 A 
ATOM      8  C   UNL     1     -13.736  57.915  50.284  0.00  0.00    +0.000 A 
ATOM      9  N   UNL     1     -13.440  57.157  47.582  0.00  0.00    +0.000 NA
ATOM     10  C   UNL     1     -14.298  58.681  49.271  0.00  0.00    +0.000 A 
ATOM     11  C   UNL     1     -14.132  58.262  47.956  0.00  0.00    +0.000 A 
ENDROOT
BRANCH   1  19
ATOM     12 BR   UNL     1      -5.789  54.639  50.581  0.00  0.00    +0.000 Br
ATOM     13  C   UNL     1      -6.739  53.332  51.580  0.00  0.00    +0.000 A 
ATOM     14  C   UNL     1      -8.138  53.377  51.682  0.00  0.00    +0.000 A 
ATOM     15  C   UNL     1      -5.997  52.323  52.211  0.00  0.00    +0.000 A 
ATOM     16  N   UNL     1      -8.896  54.395  51.099  0.00  0.00    +0.000 N 
ATOM     17  C   UNL     1      -8.742  52.389  52.456  0.00  0.00    +0.000 A 
ATOM     18  C   UNL     1      -6.642  51.342  52.965  0.00  0.00    +0.000 A 
ATOM     19  C   UNL     1     -10.255  54.512  51.239  0.00  0.00    +0.000 C 
ATOM     20  S   UNL     1     -10.483  52.411  52.638  0.00  0.00    +0.000 S 
ATOM     21  C   UNL     1      -8.023  51.374  53.091  0.00  0.00    +0.000 A 
ATOM     22  N   UNL     1     -11.036  53.744  51.934  0.00  0.00    +0.000 N 
ATOM     23  O   UNL     1     -10.739  52.533  54.059  0.00  0.00    +0.000 OA
ATOM     24  O   UNL     1     -10.989  51.270  51.895  0.00  0.00    +0.000 OA
ATOM     25  H   UNL     1      -8.427  55.068  50.553  0.00  0.00    +0.000 HD
ATOM     26  H   UNL     1     -11.986  53.983  52.033  0.00  0.00    +0.000 HD
ENDBRANCH   1  19
BRANCH   3  27
ATOM     27  O   UNL     1     -12.796  55.781  52.108  0.00  0.00    +0.000 OA
ATOM     28  H   UNL     1     -13.328  55.016  52.207  0.00  0.00    +0.000 HD
ENDBRANCH   3  27
BRANCH   5  29
ATOM     29  C   UNL     1     -12.190  54.112  48.275  0.00  0.00    +0.000 C 
BRANCH  29  30
ATOM     30  C   UNL     1     -11.957  53.236  47.076  0.00  0.00    +0.000 A 
ATOM     31  C   UNL     1     -12.315  51.887  47.063  0.00  0.00    +0.000 A 
ATOM     32  C   UNL     1     -11.507  53.830  45.880  0.00  0.00    +0.000 A 
ATOM     33  C   UNL     1     -12.173  51.133  45.897  0.00  0.00    +0.000 A 
ATOM     34  C   UNL     1     -11.364  53.075  44.716  0.00  0.00    +0.000 A 
ATOM     35  C   UNL     1     -11.688  51.722  44.729  0.00  0.00    +0.000 A 
ENDBRANCH  29  30
ENDBRANCH   5  29
TORSDOF 4
ENDMDL
MODEL 6
REMARK VINA RESULT:      -8.2      1.874      2.331
REMARK  Name = 352971
REMARK  4 active torsions:
REMARK  status: ('A' for Active; 'I' for Inactive)
REMARK    1  A    between atoms: C_8  and  C_12
REMARK    2  A    between atoms: C_16  and  O_19
REMARK    3  A    between atoms: N_18  and  C_22
REMARK    4  A    between atoms: C_22  and  C_25
REMARK                            x       y       z     vdW  Elec       q    Type
REMARK                         _______ _______ _______ _____ _____    ______ ____
ROOT
ATOM      1  C   UNL     1     -11.403  55.229  50.624  0.00  0.00    +0.000 A 
ATOM      2  C   UNL     1     -10.791  56.005  49.508  0.00  0.00    +0.000 A 
ATOM      3  C   UNL     1     -12.700  55.487  50.879  0.00  0.00    +0.000 A 
ATOM      4  O   UNL     1      -9.631  56.392  49.560  0.00  0.00    +0.000 OA
ATOM      5  N   UNL     1     -11.649  56.097  48.393  0.00  0.00    +0.000 N 
ATOM      6  C   UNL     1     -13.333  56.552  50.098  0.00  0.00    +0.000 A 
ATOM      7  C   UNL     1     -12.864  56.769  48.782  0.00  0.00    +0.000 A 
ATOM      8  C   UNL     1     -14.295  57.406  50.627  0.00  0.00    +0.000 A 
ATOM      9  N   UNL     1     -13.302  57.785  48.013  0.00  0.00    +0.000 NA
ATOM     10  C   UNL     1     -14.707  58.493  49.866  0.00  0.00    +0.000 A 
ATOM     11  C   UNL     1     -14.195  58.632  48.581  0.00  0.00    +0.000 A 
ENDROOT
BRANCH   1  19
ATOM     12 BR   UNL     1     -10.222  50.819  47.939  0.00  0.00    +0.000 Br
ATOM     13  C   UNL     1      -9.772  50.653  49.777  0.00  0.00    +0.000 A 
ATOM     14  C   UNL     1     -10.008  51.705  50.676  0.00  0.00    +0.000 A 
ATOM     15  C   UNL     1      -9.197  49.448  50.205  0.00  0.00    +0.000 A 
ATOM     16  N   UNL     1     -10.540  52.931  50.266  0.00  0.00    +0.000 N 
ATOM     17  C   UNL     1      -9.623  51.499  51.998  0.00  0.00    +0.000 A 
ATOM     18  C   UNL     1      -8.839  49.275  51.542  0.00  0.00    +0.000 A 
ATOM     19  C   UNL     1     -10.716  54.004  51.101  0.00  0.00    +0.000 C 
ATOM     20  S   UNL     1      -9.871  52.786  53.157  0.00  0.00    +0.000 S 
ATOM     21  C   UNL     1      -9.051  50.305  52.446  0.00  0.00    +0.000 A 
ATOM     22  N   UNL     1     -10.403  54.073  52.359  0.00  0.00    +0.000 N 
ATOM     23  O   UNL     1      -8.562  53.114  53.685  0.00  0.00    +0.000 OA
ATOM     24  O   UNL     1     -10.932  52.342  54.046  0.00  0.00    +0.000 OA
ATOM     25  H   UNL     1     -10.806  53.029  49.324  0.00  0.00    +0.000 HD
ATOM     26  H   UNL     1     -10.494  54.932  52.832  0.00  0.00    +0.000 HD
ENDBRANCH   1  19
BRANCH   3  27
ATOM     27  O   UNL     1     -13.528  54.753  51.694  0.00  0.00    +0.000 OA
ATOM     28  H   UNL     1     -14.026  54.042  51.340  0.00  0.00    +0.000 HD
ENDBRANCH   3  27
BRANCH   5  29
ATOM     29  C   UNL     1     -11.863  54.750  47.812  0.00  0.00    +0.000 C 
BRANCH  29  30
ATOM     30  C   UNL     1     -11.054  54.335  46.615  0.00  0.00    +0.000 A 
ATOM     31  C   UNL     1      -9.670  54.513  46.558  0.00  0.00    +0.000 A 
ATOM     32  C   UNL     1     -11.687  53.606  45.588  0.00  0.00    +0.000 A 
ATOM     33  C   UNL     1      -8.943  54.024  45.471  0.00  0.00    +0.000 A 
ATOM     34  C   UNL     1     -10.960  53.120  44.502  0.00  0.00    +0.000 A 
ATOM     35  C   UNL     1      -9.587  53.339  44.440  0.00  0.00    +0.000 A 
ENDBRANCH  29  30
ENDBRANCH   5  29
TORSDOF 4
ENDMDL
MODEL 7
REMARK VINA RESULT:      -8.1      3.219      6.210
REMARK  Name = 352971
REMARK  4 active torsions:
REMARK  status: ('A' for Active; 'I' for Inactive)
REMARK    1  A    between atoms: C_8  and  C_12
REMARK    2  A    between atoms: C_16  and  O_19
REMARK    3  A    between atoms: N_18  and  C_22
REMARK    4  A    between atoms: C_22  and  C_25
REMARK                            x       y       z     vdW  Elec       q    Type
REMARK                         _______ _______ _______ _____ _____    ______ ____
ROOT
ATOM      1  C   UNL     1     -12.428  54.368  49.350  0.00  0.00    +0.000 A 
ATOM      2  C   UNL     1     -12.218  54.057  50.792  0.00  0.00    +0.000 A 
ATOM      3  C   UNL     1     -13.079  55.516  49.084  0.00  0.00    +0.000 A 
ATOM      4  O   UNL     1     -12.277  52.909  51.213  0.00  0.00    +0.000 OA
ATOM      5  N   UNL     1     -11.824  55.193  51.529  0.00  0.00    +0.000 N 
ATOM      6  C   UNL     1     -13.580  56.279  50.230  0.00  0.00    +0.000 A 
ATOM      7  C   UNL     1     -12.855  56.197  51.440  0.00  0.00    +0.000 A 
ATOM      8  C   UNL     1     -14.776  56.989  50.199  0.00  0.00    +0.000 A 
ATOM      9  N   UNL     1     -13.280  56.772  52.582  0.00  0.00    +0.000 NA
ATOM     10  C   UNL     1     -15.254  57.532  51.384  0.00  0.00    +0.000 A 
ATOM     11  C   UNL     1     -14.477  57.407  52.530  0.00  0.00    +0.000 A 
ENDROOT
BRANCH   1  19
ATOM     12 BR   UNL     1      -7.415  52.697  49.710  0.00  0.00    +0.000 Br
ATOM     13  C   UNL     1      -8.122  52.399  47.972  0.00  0.00    +0.000 A 
ATOM     14  C   UNL     1      -9.437  52.774  47.654  0.00  0.00    +0.000 A 
ATOM     15  C   UNL     1      -7.290  51.791  47.021  0.00  0.00    +0.000 A 
ATOM     16  N   UNL     1     -10.300  53.341  48.595  0.00  0.00    +0.000 N 
ATOM     17  C   UNL     1      -9.873  52.493  46.362  0.00  0.00    +0.000 A 
ATOM     18  C   UNL     1      -7.760  51.541  45.732  0.00  0.00    +0.000 A 
ATOM     19  C   UNL     1     -11.610  53.652  48.340  0.00  0.00    +0.000 C 
ATOM     20  S   UNL     1     -11.512  52.917  45.916  0.00  0.00    +0.000 S 
ATOM     21  C   UNL     1      -9.060  51.891  45.398  0.00  0.00    +0.000 A 
ATOM     22  N   UNL     1     -12.257  53.454  47.233  0.00  0.00    +0.000 N 
ATOM     23  O   UNL     1     -12.158  51.680  45.526  0.00  0.00    +0.000 OA
ATOM     24  O   UNL     1     -11.411  54.022  44.978  0.00  0.00    +0.000 OA
ATOM     25  H   UNL     1      -9.945  53.530  49.494  0.00  0.00    +0.000 HD
ATOM     26  H   UNL     1     -13.224  53.637  47.199  0.00  0.00    +0.000 HD
ENDBRANCH   1  19
BRANCH   3  27
ATOM     27  O   UNL     1     -13.192  56.119  47.854  0.00  0.00    +0.000 OA
ATOM     28  H   UNL     1     -13.401  57.030  47.795  0.00  0.00    +0.000 HD
ENDBRANCH   3  27
BRANCH   5  29
ATOM     29  C   UNL     1     -10.492  55.652  51.068  0.00  0.00    +0.000 C 
BRANCH  29  30
ATOM     30  C   UNL     1      -9.284  55.346  51.909  0.00  0.00    +0.000 A 
ATOM     31  C   UNL     1      -8.036  55.915  51.647  0.00  0.00    +0.000 A 
ATOM     32  C   UNL     1      -9.450  54.586  53.084  0.00  0.00    +0.000 A 
ATOM     33  C   UNL     1      -6.963  55.683  52.509  0.00  0.00    +0.000 A 
ATOM     34  C   UNL     1      -8.376  54.355  53.944  0.00  0.00    +0.000 A 
ATOM     35  C   UNL     1      -7.129  54.896  53.649  0.00  0.00    +0.000 A 
ENDBRANCH  29  30
ENDBRANCH   5  29
TORSDOF 4
ENDMDL
MODEL 8
REMARK VINA RESULT:      -8.0      2.773      3.364
REMARK  Name = 352971
REMARK  4 active torsions:
REMARK  status: ('A' for Active; 'I' for Inactive)
REMARK    1  A    between atoms: C_8  and  C_12
REMARK    2  A    between atoms: C_16  and  O_19
REMARK    3  A    between atoms: N_18  and  C_22
REMARK    4  A    between atoms: C_22  and  C_25
REMARK                            x       y       z     vdW  Elec       q    Type
REMARK                         _______ _______ _______ _____ _____    ______ ____
ROOT
ATOM      1  C   UNL     1     -10.407  55.426  50.521  0.00  0.00    +0.000 A 
ATOM      2  C   UNL     1     -11.199  55.553  49.264  0.00  0.00    +0.000 A 
ATOM      3  C   UNL     1     -11.103  55.530  51.668  0.00  0.00    +0.000 A 
ATOM      4  O   UNL     1     -10.744  56.116  48.277  0.00  0.00    +0.000 OA
ATOM      5  N   UNL     1     -12.417  54.847  49.331  0.00  0.00    +0.000 N 
ATOM      6  C   UNL     1     -12.530  55.840  51.556  0.00  0.00    +0.000 A 
ATOM      7  C   UNL     1     -13.214  55.377  50.409  0.00  0.00    +0.000 A 
ATOM      8  C   UNL     1     -13.203  56.643  52.471  0.00  0.00    +0.000 A 
ATOM      9  N   UNL     1     -14.500  55.691  50.153  0.00  0.00    +0.000 NA
ATOM     10  C   UNL     1     -14.507  57.025  52.186  0.00  0.00    +0.000 A 
ATOM     11  C   UNL     1     -15.106  56.523  51.036  0.00  0.00    +0.000 A 
ENDROOT
BRANCH   1  19
ATOM     12 BR   UNL     1      -6.723  55.090  54.311  0.00  0.00    +0.000 Br
ATOM     13  C   UNL     1      -6.070  54.439  52.650  0.00  0.00    +0.000 A 
ATOM     14  C   UNL     1      -6.881  54.443  51.504  0.00  0.00    +0.000 A 
ATOM     15  C   UNL     1      -4.755  53.956  52.607  0.00  0.00    +0.000 A 
ATOM     16  N   UNL     1      -8.209  54.879  51.531  0.00  0.00    +0.000 N 
ATOM     17  C   UNL     1      -6.322  53.924  50.339  0.00  0.00    +0.000 A 
ATOM     18  C   UNL     1      -4.227  53.459  51.415  0.00  0.00    +0.000 A 
ATOM     19  C   UNL     1      -9.051  54.828  50.451  0.00  0.00    +0.000 C 
ATOM     20  S   UNL     1      -7.297  53.881  48.886  0.00  0.00    +0.000 S 
ATOM     21  C   UNL     1      -5.013  53.440  50.273  0.00  0.00    +0.000 A 
ATOM     22  N   UNL     1      -8.780  54.358  49.272  0.00  0.00    +0.000 N 
ATOM     23  O   UNL     1      -7.377  52.488  48.494  0.00  0.00    +0.000 OA
ATOM     24  O   UNL     1      -6.732  54.868  47.981  0.00  0.00    +0.000 OA
ATOM     25  H   UNL     1      -8.559  55.246  52.375  0.00  0.00    +0.000 HD
ATOM     26  H   UNL     1      -9.499  54.292  48.602  0.00  0.00    +0.000 HD
ENDBRANCH   1  19
BRANCH   3  27
ATOM     27  O   UNL     1     -10.642  55.229  52.928  0.00  0.00    +0.000 OA
ATOM     28  H   UNL     1     -10.775  55.831  53.633  0.00  0.00    +0.000 HD
ENDBRANCH   3  27
BRANCH   5  29
ATOM     29  C   UNL     1     -12.150  53.393  49.435  0.00  0.00    +0.000 C 
BRANCH  29  30
ATOM     30  C   UNL     1     -11.775  52.630  48.195  0.00  0.00    +0.000 A 
ATOM     31  C   UNL     1     -12.159  53.051  46.921  0.00  0.00    +0.000 A 
ATOM     32  C   UNL     1     -10.883  51.545  48.311  0.00  0.00    +0.000 A 
ATOM     33  C   UNL     1     -11.708  52.369  45.789  0.00  0.00    +0.000 A 
ATOM     34  C   UNL     1     -10.434  50.864  47.179  0.00  0.00    +0.000 A 
ATOM     35  C   UNL     1     -10.857  51.272  45.918  0.00  0.00    +0.000 A 
ENDBRANCH  29  30
ENDBRANCH   5  29
TORSDOF 4
ENDMDL
MODEL 9
REMARK VINA RESULT:      -8.0      3.096      6.193
REMARK  Name = 352971
REMARK  4 active torsions:
REMARK  status: ('A' for Active; 'I' for Inactive)
REMARK    1  A    between atoms: C_8  and  C_12
REMARK    2  A    between atoms: C_16  and  O_19
REMARK    3  A    between atoms: N_18  and  C_22
REMARK    4  A    between atoms: C_22  and  C_25
REMARK                            x       y       z     vdW  Elec       q    Type
REMARK                         _______ _______ _______ _____ _____    ______ ____
ROOT
ATOM      1  C   UNL     1     -11.955  54.321  48.529  0.00  0.00    +0.000 A 
ATOM      2  C   UNL     1     -11.941  53.832  49.937  0.00  0.00    +0.000 A 
ATOM      3  C   UNL     1     -12.632  55.464  48.309  0.00  0.00    +0.000 A 
ATOM      4  O   UNL     1     -11.989  52.637  50.199  0.00  0.00    +0.000 OA
ATOM      5  N   UNL     1     -11.733  54.877  50.860  0.00  0.00    +0.000 N 
ATOM      6  C   UNL     1     -13.343  56.047  49.449  0.00  0.00    +0.000 A 
ATOM      7  C   UNL     1     -12.801  55.838  50.737  0.00  0.00    +0.000 A 
ATOM      8  C   UNL     1     -14.564  56.702  49.323  0.00  0.00    +0.000 A 
ATOM      9  N   UNL     1     -13.425  56.239  51.863  0.00  0.00    +0.000 NA
ATOM     10  C   UNL     1     -15.245  57.063  50.478  0.00  0.00    +0.000 A 
ATOM     11  C   UNL     1     -14.639  56.822  51.705  0.00  0.00    +0.000 A 
ENDROOT
BRANCH   1  19
ATOM     12 BR   UNL     1     -12.016  49.728  45.892  0.00  0.00    +0.000 Br
ATOM     13  C   UNL     1     -10.393  50.673  45.602  0.00  0.00    +0.000 A 
ATOM     14  C   UNL     1     -10.162  51.915  46.213  0.00  0.00    +0.000 A 
ATOM     15  C   UNL     1      -9.437  50.090  44.758  0.00  0.00    +0.000 A 
ATOM     16  N   UNL     1     -11.116  52.537  47.024  0.00  0.00    +0.000 N 
ATOM     17  C   UNL     1      -8.954  52.542  45.921  0.00  0.00    +0.000 A 
ATOM     18  C   UNL     1      -8.232  50.744  44.503  0.00  0.00    +0.000 A 
ATOM     19  C   UNL     1     -10.954  53.781  47.577  0.00  0.00    +0.000 C 
ATOM     20  S   UNL     1      -8.623  54.105  46.637  0.00  0.00    +0.000 S 
ATOM     21  C   UNL     1      -7.986  51.979  45.086  0.00  0.00    +0.000 A 
ATOM     22  N   UNL     1      -9.940  54.575  47.425  0.00  0.00    +0.000 N 
ATOM     23  O   UNL     1      -8.427  55.022  45.532  0.00  0.00    +0.000 OA
ATOM     24  O   UNL     1      -7.568  53.895  47.614  0.00  0.00    +0.000 OA
ATOM     25  H   UNL     1     -11.952  52.052  47.210  0.00  0.00    +0.000 HD
ATOM     26  H   UNL     1      -9.978  55.485  47.800  0.00  0.00    +0.000 HD
ENDBRANCH   1  19
BRANCH   3  27
ATOM     27  O   UNL     1     -12.600  56.218  47.160  0.00  0.00    +0.000 OA
ATOM     28  H   UNL     1     -13.332  56.215  46.576  0.00  0.00    +0.000 HD
ENDBRANCH   3  27
BRANCH   5  29
ATOM     29  C   UNL     1     -10.379  55.451  50.671  0.00  0.00    +0.000 C 
BRANCH  29  30
ATOM     30  C   UNL     1      -9.389  55.372  51.799  0.00  0.00    +0.000 A 
ATOM     31  C   UNL     1      -8.086  55.860  51.676  0.00  0.00    +0.000 A 
ATOM     32  C   UNL     1      -9.833  54.934  53.062  0.00  0.00    +0.000 A 
ATOM     33  C   UNL     1      -7.228  55.857  52.777  0.00  0.00    +0.000 A 
ATOM     34  C   UNL     1      -8.974  54.931  54.161  0.00  0.00    +0.000 A 
ATOM     35  C   UNL     1      -7.667  55.384  54.014  0.00  0.00    +0.000 A 
ENDBRANCH  29  30
ENDBRANCH   5  29
TORSDOF 4
ENDMDL
