MODEL 1
REMARK VINA RESULT:      -9.0      0.000      0.000
REMARK  Name = 302318
REMARK  4 active torsions:
REMARK  status: ('A' for Active; 'I' for Inactive)
REMARK    1  A    between atoms: C_6  and  C_10
REMARK    2  A    between atoms: C_14  and  O_18
REMARK    3  A    between atoms: N_17  and  C_21
REMARK    4  A    between atoms: C_21  and  C_24
REMARK                            x       y       z     vdW  Elec       q    Type
REMARK                         _______ _______ _______ _____ _____    ______ ____
ROOT
ATOM      1  C   UNL     1      -9.210  55.072  50.458  0.00  0.00    +0.000 A 
ATOM      2  C   UNL     1     -10.609  54.966  50.986  0.00  0.00    +0.000 A 
ATOM      3  C   UNL     1      -8.996  55.273  49.145  0.00  0.00    +0.000 A 
ATOM      4  O   UNL     1     -10.765  54.699  52.180  0.00  0.00    +0.000 OA
ATOM      5  N   UNL     1     -11.656  55.207  50.119  0.00  0.00    +0.000 N 
ATOM      6  C   UNL     1     -10.133  55.326  48.231  0.00  0.00    +0.000 A 
ATOM      7  C   UNL     1     -11.441  55.323  48.724  0.00  0.00    +0.000 A 
ATOM      8  C   UNL     1      -9.943  55.319  46.845  0.00  0.00    +0.000 A 
ATOM      9  N   UNL     1     -12.520  55.340  47.909  0.00  0.00    +0.000 NA
ATOM     10  C   UNL     1     -11.046  55.277  46.001  0.00  0.00    +0.000 A 
ATOM     11  C   UNL     1     -12.299  55.297  46.576  0.00  0.00    +0.000 A 
ENDROOT
BRANCH   1  17
ATOM     12  S   UNL     1      -6.928  55.779  53.563  0.00  0.00    +0.000 S 
ATOM     13  O   UNL     1      -7.375  55.072  54.745  0.00  0.00    +0.000 OA
ATOM     14  O   UNL     1      -6.473  57.158  53.660  0.00  0.00    +0.000 OA
ATOM     15  N   UNL     1      -8.133  55.731  52.480  0.00  0.00    +0.000 N 
ATOM     16  C   UNL     1      -5.581  54.869  52.919  0.00  0.00    +0.000 A 
ATOM     17  C   UNL     1      -8.043  54.986  51.413  0.00  0.00    +0.000 C 
ATOM     18  C   UNL     1      -5.768  54.169  51.737  0.00  0.00    +0.000 A 
ATOM     19  C   UNL     1      -4.358  54.880  53.591  0.00  0.00    +0.000 A 
ATOM     20  N   UNL     1      -7.000  54.161  51.086  0.00  0.00    +0.000 N 
ATOM     21  C   UNL     1      -4.707  53.400  51.250  0.00  0.00    +0.000 A 
ATOM     22  C   UNL     1      -3.301  54.134  53.079  0.00  0.00    +0.000 A 
ATOM     23  C   UNL     1      -3.479  53.388  51.913  0.00  0.00    +0.000 A 
ATOM     24  H   UNL     1      -8.942  56.271  52.630  0.00  0.00    +0.000 HD
ATOM     25  H   UNL     1      -7.127  53.524  50.346  0.00  0.00    +0.000 HD
ENDBRANCH   1  17
BRANCH   3  26
ATOM     26  O   UNL     1      -7.756  55.417  48.554  0.00  0.00    +0.000 OA
ATOM     27  H   UNL     1      -7.541  54.921  47.789  0.00  0.00    +0.000 HD
ENDBRANCH   3  26
BRANCH   5  28
ATOM     28  C   UNL     1     -13.034  55.250  50.631  0.00  0.00    +0.000 C 
BRANCH  28  29
ATOM     29  C   UNL     1     -13.416  56.637  51.116  0.00  0.00    +0.000 A 
ATOM     30  C   UNL     1     -13.622  56.883  52.483  0.00  0.00    +0.000 A 
ATOM     31  C   UNL     1     -13.668  57.671  50.202  0.00  0.00    +0.000 A 
ATOM     32  C   UNL     1     -14.163  58.098  52.910  0.00  0.00    +0.000 A 
ATOM     33  C   UNL     1     -14.216  58.882  50.631  0.00  0.00    +0.000 A 
ATOM     34  C   UNL     1     -14.489  59.084  51.982  0.00  0.00    +0.000 A 
ENDBRANCH  28  29
ENDBRANCH   5  28
TORSDOF 4
ENDMDL
MODEL 2
REMARK VINA RESULT:      -8.8      1.960      2.190
REMARK  Name = 302318
REMARK  4 active torsions:
REMARK  status: ('A' for Active; 'I' for Inactive)
REMARK    1  A    between atoms: C_6  and  C_10
REMARK    2  A    between atoms: C_14  and  O_18
REMARK    3  A    between atoms: N_17  and  C_21
REMARK    4  A    between atoms: C_21  and  C_24
REMARK                            x       y       z     vdW  Elec       q    Type
REMARK                         _______ _______ _______ _____ _____    ______ ____
ROOT
ATOM      1  C   UNL     1      -9.965  54.700  50.794  0.00  0.00    +0.000 A 
ATOM      2  C   UNL     1     -11.435  54.782  51.077  0.00  0.00    +0.000 A 
ATOM      3  C   UNL     1      -9.497  54.974  49.563  0.00  0.00    +0.000 A 
ATOM      4  O   UNL     1     -11.836  54.444  52.194  0.00  0.00    +0.000 OA
ATOM      5  N   UNL     1     -12.267  55.265  50.087  0.00  0.00    +0.000 N 
ATOM      6  C   UNL     1     -10.436  55.291  48.491  0.00  0.00    +0.000 A 
ATOM      7  C   UNL     1     -11.796  55.463  48.765  0.00  0.00    +0.000 A 
ATOM      8  C   UNL     1     -10.009  55.371  47.161  0.00  0.00    +0.000 A 
ATOM      9  N   UNL     1     -12.700  55.726  47.795  0.00  0.00    +0.000 NA
ATOM     10  C   UNL     1     -10.941  55.583  46.152  0.00  0.00    +0.000 A 
ATOM     11  C   UNL     1     -12.258  55.760  46.519  0.00  0.00    +0.000 A 
ENDROOT
BRANCH   1  17
ATOM     12  S   UNL     1      -6.804  54.781  53.107  0.00  0.00    +0.000 S 
ATOM     13  O   UNL     1      -6.885  55.821  54.111  0.00  0.00    +0.000 OA
ATOM     14  O   UNL     1      -5.553  54.532  52.406  0.00  0.00    +0.000 OA
ATOM     15  N   UNL     1      -7.941  55.087  51.994  0.00  0.00    +0.000 N 
ATOM     16  C   UNL     1      -7.216  53.283  53.908  0.00  0.00    +0.000 A 
ATOM     17  C   UNL     1      -9.009  54.342  51.908  0.00  0.00    +0.000 C 
ATOM     18  C   UNL     1      -8.433  52.692  53.608  0.00  0.00    +0.000 A 
ATOM     19  C   UNL     1      -6.315  52.714  54.810  0.00  0.00    +0.000 A 
ATOM     20  N   UNL     1      -9.325  53.281  52.714  0.00  0.00    +0.000 N 
ATOM     21  C   UNL     1      -8.786  51.522  54.288  0.00  0.00    +0.000 A 
ATOM     22  C   UNL     1      -6.666  51.533  55.458  0.00  0.00    +0.000 A 
ATOM     23  C   UNL     1      -7.904  50.942  55.202  0.00  0.00    +0.000 A 
ATOM     24  H   UNL     1      -7.824  55.844  51.375  0.00  0.00    +0.000 HD
ATOM     25  H   UNL     1     -10.235  52.911  52.658  0.00  0.00    +0.000 HD
ENDBRANCH   1  17
BRANCH   3  26
ATOM     26  O   UNL     1      -8.166  54.962  49.197  0.00  0.00    +0.000 OA
ATOM     27  H   UNL     1      -7.883  54.439  48.473  0.00  0.00    +0.000 HD
ENDBRANCH   3  26
BRANCH   5  28
ATOM     28  C   UNL     1     -13.691  55.491  50.374  0.00  0.00    +0.000 C 
BRANCH  28  29
ATOM     29  C   UNL     1     -13.930  56.836  51.036  0.00  0.00    +0.000 A 
ATOM     30  C   UNL     1     -14.204  56.916  52.410  0.00  0.00    +0.000 A 
ATOM     31  C   UNL     1     -13.981  58.012  50.271  0.00  0.00    +0.000 A 
ATOM     32  C   UNL     1     -14.619  58.122  52.981  0.00  0.00    +0.000 A 
ATOM     33  C   UNL     1     -14.402  59.215  50.843  0.00  0.00    +0.000 A 
ATOM     34  C   UNL     1     -14.748  59.263  52.191  0.00  0.00    +0.000 A 
ENDBRANCH  28  29
ENDBRANCH   5  28
TORSDOF 4
ENDMDL
MODEL 3
REMARK VINA RESULT:      -8.8      2.353      4.897
REMARK  Name = 302318
REMARK  4 active torsions:
REMARK  status: ('A' for Active; 'I' for Inactive)
REMARK    1  A    between atoms: C_6  and  C_10
REMARK    2  A    between atoms: C_14  and  O_18
REMARK    3  A    between atoms: N_17  and  C_21
REMARK    4  A    between atoms: C_21  and  C_24
REMARK                            x       y       z     vdW  Elec       q    Type
REMARK                         _______ _______ _______ _____ _____    ______ ____
ROOT
ATOM      1  C   UNL     1     -10.390  55.268  50.726  0.00  0.00    +0.000 A 
ATOM      2  C   UNL     1     -10.005  55.262  49.277  0.00  0.00    +0.000 A 
ATOM      3  C   UNL     1     -11.616  55.679  51.099  0.00  0.00    +0.000 A 
ATOM      4  O   UNL     1      -8.847  54.959  48.981  0.00  0.00    +0.000 OA
ATOM      5  N   UNL     1     -10.975  55.561  48.341  0.00  0.00    +0.000 N 
ATOM      6  C   UNL     1     -12.546  56.175  50.089  0.00  0.00    +0.000 A 
ATOM      7  C   UNL     1     -12.232  56.085  48.729  0.00  0.00    +0.000 A 
ATOM      8  C   UNL     1     -13.739  56.805  50.457  0.00  0.00    +0.000 A 
ATOM      9  N   UNL     1     -13.053  56.561  47.766  0.00  0.00    +0.000 NA
ATOM     10  C   UNL     1     -14.560  57.350  49.477  0.00  0.00    +0.000 A 
ATOM     11  C   UNL     1     -14.180  57.196  48.160  0.00  0.00    +0.000 A 
ENDROOT
BRANCH   1  17
ATOM     12  S   UNL     1      -7.111  54.983  52.850  0.00  0.00    +0.000 S 
ATOM     13  O   UNL     1      -7.055  55.971  53.908  0.00  0.00    +0.000 OA
ATOM     14  O   UNL     1      -5.924  54.679  52.066  0.00  0.00    +0.000 OA
ATOM     15  N   UNL     1      -8.279  55.435  51.822  0.00  0.00    +0.000 N 
ATOM     16  C   UNL     1      -7.595  53.480  53.599  0.00  0.00    +0.000 A 
ATOM     17  C   UNL     1      -9.406  54.779  51.762  0.00  0.00    +0.000 C 
ATOM     18  C   UNL     1      -8.870  53.000  53.341  0.00  0.00    +0.000 A 
ATOM     19  C   UNL     1      -6.694  52.796  54.417  0.00  0.00    +0.000 A 
ATOM     20  N   UNL     1      -9.759  53.703  52.532  0.00  0.00    +0.000 N 
ATOM     21  C   UNL     1      -9.276  51.825  53.982  0.00  0.00    +0.000 A 
ATOM     22  C   UNL     1      -7.101  51.612  55.024  0.00  0.00    +0.000 A 
ATOM     23  C   UNL     1      -8.394  51.131  54.813  0.00  0.00    +0.000 A 
ATOM     24  H   UNL     1      -8.137  56.213  51.237  0.00  0.00    +0.000 HD
ATOM     25  H   UNL     1     -10.698  53.406  52.511  0.00  0.00    +0.000 HD
ENDBRANCH   1  17
BRANCH   3  26
ATOM     26  O   UNL     1     -12.089  55.698  52.396  0.00  0.00    +0.000 OA
ATOM     27  H   UNL     1     -11.583  55.313  53.085  0.00  0.00    +0.000 HD
ENDBRANCH   3  26
BRANCH   5  28
ATOM     28  C   UNL     1     -10.672  55.430  46.908  0.00  0.00    +0.000 C 
BRANCH  28  29
ATOM     29  C   UNL     1     -11.009  54.046  46.382  0.00  0.00    +0.000 A 
ATOM     30  C   UNL     1     -10.605  53.653  45.097  0.00  0.00    +0.000 A 
ATOM     31  C   UNL     1     -11.816  53.173  47.129  0.00  0.00    +0.000 A 
ATOM     32  C   UNL     1     -11.079  52.464  44.537  0.00  0.00    +0.000 A 
ATOM     33  C   UNL     1     -12.295  51.989  46.565  0.00  0.00    +0.000 A 
ATOM     34  C   UNL     1     -11.949  51.649  45.258  0.00  0.00    +0.000 A 
ENDBRANCH  28  29
ENDBRANCH   5  28
TORSDOF 4
ENDMDL
MODEL 4
REMARK VINA RESULT:      -8.8      2.904      7.785
REMARK  Name = 302318
REMARK  4 active torsions:
REMARK  status: ('A' for Active; 'I' for Inactive)
REMARK    1  A    between atoms: C_6  and  C_10
REMARK    2  A    between atoms: C_14  and  O_18
REMARK    3  A    between atoms: N_17  and  C_21
REMARK    4  A    between atoms: C_21  and  C_24
REMARK                            x       y       z     vdW  Elec       q    Type
REMARK                         _______ _______ _______ _____ _____    ______ ____
ROOT
ATOM      1  C   UNL     1     -11.232  54.542  50.929  0.00  0.00    +0.000 A 
ATOM      2  C   UNL     1      -9.802  54.887  50.643  0.00  0.00    +0.000 A 
ATOM      3  C   UNL     1     -11.564  53.296  51.313  0.00  0.00    +0.000 A 
ATOM      4  O   UNL     1      -9.547  56.015  50.214  0.00  0.00    +0.000 OA
ATOM      5  N   UNL     1      -8.834  53.939  50.908  0.00  0.00    +0.000 N 
ATOM      6  C   UNL     1     -10.530  52.268  51.390  0.00  0.00    +0.000 A 
ATOM      7  C   UNL     1      -9.183  52.602  51.219  0.00  0.00    +0.000 A 
ATOM      8  C   UNL     1     -10.865  50.923  51.576  0.00  0.00    +0.000 A 
ATOM      9  N   UNL     1      -8.200  51.674  51.253  0.00  0.00    +0.000 NA
ATOM     10  C   UNL     1      -9.867  49.957  51.553  0.00  0.00    +0.000 A 
ATOM     11  C   UNL     1      -8.564  50.380  51.398  0.00  0.00    +0.000 A 
ENDROOT
BRANCH   1  17
ATOM     12  S   UNL     1     -13.541  57.294  49.366  0.00  0.00    +0.000 S 
ATOM     13  O   UNL     1     -14.664  56.726  48.649  0.00  0.00    +0.000 OA
ATOM     14  O   UNL     1     -12.817  58.429  48.814  0.00  0.00    +0.000 OA
ATOM     15  N   UNL     1     -12.472  56.103  49.621  0.00  0.00    +0.000 N 
ATOM     16  C   UNL     1     -14.154  57.818  50.916  0.00  0.00    +0.000 A 
ATOM     17  C   UNL     1     -12.295  55.610  50.816  0.00  0.00    +0.000 C 
ATOM     18  C   UNL     1     -13.782  57.102  52.044  0.00  0.00    +0.000 A 
ATOM     19  C   UNL     1     -14.981  58.940  50.987  0.00  0.00    +0.000 A 
ATOM     20  N   UNL     1     -12.966  55.977  51.952  0.00  0.00    +0.000 N 
ATOM     21  C   UNL     1     -14.314  57.489  53.277  0.00  0.00    +0.000 A 
ATOM     22  C   UNL     1     -15.479  59.332  52.226  0.00  0.00    +0.000 A 
ATOM     23  C   UNL     1     -15.152  58.602  53.369  0.00  0.00    +0.000 A 
ATOM     24  H   UNL     1     -11.951  55.748  48.865  0.00  0.00    +0.000 HD
ATOM     25  H   UNL     1     -12.864  55.413  52.753  0.00  0.00    +0.000 HD
ENDBRANCH   1  17
BRANCH   3  26
ATOM     26  O   UNL     1     -12.840  52.875  51.631  0.00  0.00    +0.000 OA
ATOM     27  H   UNL     1     -13.509  53.504  51.816  0.00  0.00    +0.000 HD
ENDBRANCH   3  26
BRANCH   5  28
ATOM     28  C   UNL     1      -7.412  54.288  50.774  0.00  0.00    +0.000 C 
BRANCH  28  29
ATOM     29  C   UNL     1      -6.759  54.536  52.122  0.00  0.00    +0.000 A 
ATOM     30  C   UNL     1      -5.495  54.001  52.411  0.00  0.00    +0.000 A 
ATOM     31  C   UNL     1      -7.449  55.217  53.137  0.00  0.00    +0.000 A 
ATOM     32  C   UNL     1      -4.981  54.058  53.709  0.00  0.00    +0.000 A 
ATOM     33  C   UNL     1      -6.937  55.267  54.435  0.00  0.00    +0.000 A 
ATOM     34  C   UNL     1      -5.716  54.662  54.727  0.00  0.00    +0.000 A 
ENDBRANCH  28  29
ENDBRANCH   5  28
TORSDOF 4
ENDMDL
MODEL 5
REMARK VINA RESULT:      -8.7      2.693      8.411
REMARK  Name = 302318
REMARK  4 active torsions:
REMARK  status: ('A' for Active; 'I' for Inactive)
REMARK    1  A    between atoms: C_6  and  C_10
REMARK    2  A    between atoms: C_14  and  O_18
REMARK    3  A    between atoms: N_17  and  C_21
REMARK    4  A    between atoms: C_21  and  C_24
REMARK                            x       y       z     vdW  Elec       q    Type
REMARK                         _______ _______ _______ _____ _____    ______ ____
ROOT
ATOM      1  C   UNL     1     -10.069  54.478  52.433  0.00  0.00    +0.000 A 
ATOM      2  C   UNL     1      -8.687  55.052  52.342  0.00  0.00    +0.000 A 
ATOM      3  C   UNL     1     -10.301  53.389  53.187  0.00  0.00    +0.000 A 
ATOM      4  O   UNL     1      -8.496  56.000  51.576  0.00  0.00    +0.000 OA
ATOM      5  N   UNL     1      -7.702  54.516  53.147  0.00  0.00    +0.000 N 
ATOM      6  C   UNL     1      -9.188  52.735  53.868  0.00  0.00    +0.000 A 
ATOM      7  C   UNL     1      -7.915  53.315  53.867  0.00  0.00    +0.000 A 
ATOM      8  C   UNL     1      -9.352  51.489  54.481  0.00  0.00    +0.000 A 
ATOM      9  N   UNL     1      -6.853  52.725  54.460  0.00  0.00    +0.000 NA
ATOM     10  C   UNL     1      -8.252  50.848  55.041  0.00  0.00    +0.000 A 
ATOM     11  C   UNL     1      -7.041  51.505  55.011  0.00  0.00    +0.000 A 
ENDROOT
BRANCH   1  17
ATOM     12  S   UNL     1     -12.266  55.825  49.483  0.00  0.00    +0.000 S 
ATOM     13  O   UNL     1     -13.083  54.788  48.888  0.00  0.00    +0.000 OA
ATOM     14  O   UNL     1     -11.590  56.800  48.640  0.00  0.00    +0.000 OA
ATOM     15  N   UNL     1     -11.142  55.099  50.396  0.00  0.00    +0.000 N 
ATOM     16  C   UNL     1     -13.316  56.743  50.537  0.00  0.00    +0.000 A 
ATOM     17  C   UNL     1     -11.206  55.150  51.699  0.00  0.00    +0.000 C 
ATOM     18  C   UNL     1     -13.145  56.613  51.907  0.00  0.00    +0.000 A 
ATOM     19  C   UNL     1     -14.281  57.587  49.985  0.00  0.00    +0.000 A 
ATOM     20  N   UNL     1     -12.185  55.756  52.439  0.00  0.00    +0.000 N 
ATOM     21  C   UNL     1     -14.019  57.306  52.750  0.00  0.00    +0.000 A 
ATOM     22  C   UNL     1     -15.124  58.294  50.836  0.00  0.00    +0.000 A 
ATOM     23  C   UNL     1     -14.998  58.147  52.218  0.00  0.00    +0.000 A 
ATOM     24  H   UNL     1     -10.404  54.614  49.963  0.00  0.00    +0.000 HD
ATOM     25  H   UNL     1     -12.212  55.577  53.408  0.00  0.00    +0.000 HD
ENDBRANCH   1  17
BRANCH   3  26
ATOM     26  O   UNL     1     -11.535  52.795  53.369  0.00  0.00    +0.000 OA
ATOM     27  H   UNL     1     -11.651  52.150  54.038  0.00  0.00    +0.000 HD
ENDBRANCH   3  26
BRANCH   5  28
ATOM     28  C   UNL     1      -6.371  55.141  53.189  0.00  0.00    +0.000 C 
BRANCH  28  29
ATOM     29  C   UNL     1      -5.374  54.410  52.309  0.00  0.00    +0.000 A 
ATOM     30  C   UNL     1      -5.715  54.041  50.998  0.00  0.00    +0.000 A 
ATOM     31  C   UNL     1      -4.132  54.001  52.820  0.00  0.00    +0.000 A 
ATOM     32  C   UNL     1      -4.881  53.200  50.258  0.00  0.00    +0.000 A 
ATOM     33  C   UNL     1      -3.303  53.154  52.081  0.00  0.00    +0.000 A 
ATOM     34  C   UNL     1      -3.691  52.731  50.811  0.00  0.00    +0.000 A 
ENDBRANCH  28  29
ENDBRANCH   5  28
TORSDOF 4
ENDMDL
MODEL 6
REMARK VINA RESULT:      -8.7      4.256      7.850
REMARK  Name = 302318
REMARK  4 active torsions:
REMARK  status: ('A' for Active; 'I' for Inactive)
REMARK    1  A    between atoms: C_6  and  C_10
REMARK    2  A    between atoms: C_14  and  O_18
REMARK    3  A    between atoms: N_17  and  C_21
REMARK    4  A    between atoms: C_21  and  C_24
REMARK                            x       y       z     vdW  Elec       q    Type
REMARK                         _______ _______ _______ _____ _____    ______ ____
ROOT
ATOM      1  C   UNL     1     -12.353  54.275  50.147  0.00  0.00    +0.000 A 
ATOM      2  C   UNL     1     -12.142  53.861  48.722  0.00  0.00    +0.000 A 
ATOM      3  C   UNL     1     -11.802  53.564  51.147  0.00  0.00    +0.000 A 
ATOM      4  O   UNL     1     -12.730  54.487  47.837  0.00  0.00    +0.000 OA
ATOM      5  N   UNL     1     -11.272  52.820  48.465  0.00  0.00    +0.000 N 
ATOM      6  C   UNL     1     -11.049  52.352  50.837  0.00  0.00    +0.000 A 
ATOM      7  C   UNL     1     -10.767  52.010  49.511  0.00  0.00    +0.000 A 
ATOM      8  C   UNL     1     -10.647  51.476  51.851  0.00  0.00    +0.000 A 
ATOM      9  N   UNL     1     -10.100  50.880  49.183  0.00  0.00    +0.000 NA
ATOM     10  C   UNL     1     -10.013  50.285  51.519  0.00  0.00    +0.000 A 
ATOM     11  C   UNL     1      -9.759  50.041  50.186  0.00  0.00    +0.000 A 
ENDROOT
BRANCH   1  17
ATOM     12  S   UNL     1     -15.280  56.550  51.415  0.00  0.00    +0.000 S 
ATOM     13  O   UNL     1     -15.219  56.776  52.844  0.00  0.00    +0.000 OA
ATOM     14  O   UNL     1     -16.556  56.287  50.767  0.00  0.00    +0.000 OA
ATOM     15  N   UNL     1     -14.289  55.314  51.074  0.00  0.00    +0.000 N 
ATOM     16  C   UNL     1     -14.638  57.988  50.656  0.00  0.00    +0.000 A 
ATOM     17  C   UNL     1     -13.159  55.516  50.452  0.00  0.00    +0.000 C 
ATOM     18  C   UNL     1     -13.397  57.908  50.044  0.00  0.00    +0.000 A 
ATOM     19  C   UNL     1     -15.386  59.166  50.670  0.00  0.00    +0.000 A 
ATOM     20  N   UNL     1     -12.660  56.726  50.051  0.00  0.00    +0.000 N 
ATOM     21  C   UNL     1     -12.861  59.071  49.483  0.00  0.00    +0.000 A 
ATOM     22  C   UNL     1     -14.854  60.309  50.082  0.00  0.00    +0.000 A 
ATOM     23  C   UNL     1     -13.588  60.263  49.495  0.00  0.00    +0.000 A 
ATOM     24  H   UNL     1     -14.542  54.401  51.339  0.00  0.00    +0.000 HD
ATOM     25  H   UNL     1     -11.724  56.764  49.748  0.00  0.00    +0.000 HD
ENDBRANCH   1  17
BRANCH   3  26
ATOM     26  O   UNL     1     -11.903  53.869  52.490  0.00  0.00    +0.000 OA
ATOM     27  H   UNL     1     -12.387  54.623  52.764  0.00  0.00    +0.000 HD
ENDBRANCH   3  26
BRANCH   5  28
ATOM     28  C   UNL     1     -10.933  52.477  47.075  0.00  0.00    +0.000 C 
BRANCH  28  29
ATOM     29  C   UNL     1      -9.830  53.364  46.525  0.00  0.00    +0.000 A 
ATOM     30  C   UNL     1      -9.505  53.334  45.160  0.00  0.00    +0.000 A 
ATOM     31  C   UNL     1      -9.049  54.151  47.385  0.00  0.00    +0.000 A 
ATOM     32  C   UNL     1      -8.368  53.994  44.688  0.00  0.00    +0.000 A 
ATOM     33  C   UNL     1      -7.909  54.805  46.912  0.00  0.00    +0.000 A 
ATOM     34  C   UNL     1      -7.554  54.703  45.569  0.00  0.00    +0.000 A 
ENDBRANCH  28  29
ENDBRANCH   5  28
TORSDOF 4
ENDMDL
MODEL 7
REMARK VINA RESULT:      -8.6      2.407      5.108
REMARK  Name = 302318
REMARK  4 active torsions:
REMARK  status: ('A' for Active; 'I' for Inactive)
REMARK    1  A    between atoms: C_6  and  C_10
REMARK    2  A    between atoms: C_14  and  O_18
REMARK    3  A    between atoms: N_17  and  C_21
REMARK    4  A    between atoms: C_21  and  C_24
REMARK                            x       y       z     vdW  Elec       q    Type
REMARK                         _______ _______ _______ _____ _____    ______ ____
ROOT
ATOM      1  C   UNL     1     -10.468  54.774  50.391  0.00  0.00    +0.000 A 
ATOM      2  C   UNL     1     -10.007  55.049  48.991  0.00  0.00    +0.000 A 
ATOM      3  C   UNL     1     -11.730  55.062  50.756  0.00  0.00    +0.000 A 
ATOM      4  O   UNL     1      -8.821  54.849  48.715  0.00  0.00    +0.000 OA
ATOM      5  N   UNL     1     -10.939  55.478  48.067  0.00  0.00    +0.000 N 
ATOM      6  C   UNL     1     -12.628  55.700  49.798  0.00  0.00    +0.000 A 
ATOM      7  C   UNL     1     -12.239  55.873  48.466  0.00  0.00    +0.000 A 
ATOM      8  C   UNL     1     -13.868  56.206  50.201  0.00  0.00    +0.000 A 
ATOM      9  N   UNL     1     -13.030  56.487  47.557  0.00  0.00    +0.000 NA
ATOM     10  C   UNL     1     -14.662  56.889  49.288  0.00  0.00    +0.000 A 
ATOM     11  C   UNL     1     -14.206  56.994  47.991  0.00  0.00    +0.000 A 
ENDROOT
BRANCH   1  17
ATOM     12  S   UNL     1      -8.923  52.153  52.858  0.00  0.00    +0.000 S 
ATOM     13  O   UNL     1      -8.197  51.108  52.166  0.00  0.00    +0.000 OA
ATOM     14  O   UNL     1      -9.783  51.825  53.986  0.00  0.00    +0.000 OA
ATOM     15  N   UNL     1      -9.825  52.931  51.760  0.00  0.00    +0.000 N 
ATOM     16  C   UNL     1      -7.726  53.269  53.471  0.00  0.00    +0.000 A 
ATOM     17  C   UNL     1      -9.517  54.140  51.379  0.00  0.00    +0.000 C 
ATOM     18  C   UNL     1      -7.629  54.517  52.874  0.00  0.00    +0.000 A 
ATOM     19  C   UNL     1      -6.916  52.892  54.543  0.00  0.00    +0.000 A 
ATOM     20  N   UNL     1      -8.437  54.872  51.797  0.00  0.00    +0.000 N 
ATOM     21  C   UNL     1      -6.636  55.391  53.329  0.00  0.00    +0.000 A 
ATOM     22  C   UNL     1      -5.953  53.782  55.005  0.00  0.00    +0.000 A 
ATOM     23  C   UNL     1      -5.808  55.029  54.393  0.00  0.00    +0.000 A 
ATOM     24  H   UNL     1     -10.615  52.486  51.376  0.00  0.00    +0.000 HD
ATOM     25  H   UNL     1      -8.220  55.699  51.309  0.00  0.00    +0.000 HD
ENDBRANCH   1  17
BRANCH   3  26
ATOM     26  O   UNL     1     -12.271  54.824  52.004  0.00  0.00    +0.000 OA
ATOM     27  H   UNL     1     -13.137  54.474  52.081  0.00  0.00    +0.000 HD
ENDBRANCH   3  26
BRANCH   5  28
ATOM     28  C   UNL     1     -10.555  55.623  46.655  0.00  0.00    +0.000 C 
BRANCH  28  29
ATOM     29  C   UNL     1     -10.572  54.293  45.923  0.00  0.00    +0.000 A 
ATOM     30  C   UNL     1      -9.411  53.804  45.306  0.00  0.00    +0.000 A 
ATOM     31  C   UNL     1     -11.770  53.579  45.763  0.00  0.00    +0.000 A 
ATOM     32  C   UNL     1      -9.469  52.687  44.469  0.00  0.00    +0.000 A 
ATOM     33  C   UNL     1     -11.828  52.467  44.920  0.00  0.00    +0.000 A 
ATOM     34  C   UNL     1     -10.683  52.039  44.251  0.00  0.00    +0.000 A 
ENDBRANCH  28  29
ENDBRANCH   5  28
TORSDOF 4
ENDMDL
MODEL 8
REMARK VINA RESULT:      -8.4      1.498      4.415
REMARK  Name = 302318
REMARK  4 active torsions:
REMARK  status: ('A' for Active; 'I' for Inactive)
REMARK    1  A    between atoms: C_6  and  C_10
REMARK    2  A    between atoms: C_14  and  O_18
REMARK    3  A    between atoms: N_17  and  C_21
REMARK    4  A    between atoms: C_21  and  C_24
REMARK                            x       y       z     vdW  Elec       q    Type
REMARK                         _______ _______ _______ _____ _____    ______ ____
ROOT
ATOM      1  C   UNL     1     -10.148  55.335  50.770  0.00  0.00    +0.000 A 
ATOM      2  C   UNL     1     -10.271  55.524  49.288  0.00  0.00    +0.000 A 
ATOM      3  C   UNL     1     -11.233  55.437  51.558  0.00  0.00    +0.000 A 
ATOM      4  O   UNL     1      -9.242  55.507  48.608  0.00  0.00    +0.000 OA
ATOM      5  N   UNL     1     -11.534  55.674  48.750  0.00  0.00    +0.000 N 
ATOM      6  C   UNL     1     -12.520  55.792  50.967  0.00  0.00    +0.000 A 
ATOM      7  C   UNL     1     -12.665  55.877  49.578  0.00  0.00    +0.000 A 
ATOM      8  C   UNL     1     -13.617  56.114  51.772  0.00  0.00    +0.000 A 
ATOM      9  N   UNL     1     -13.832  56.233  48.995  0.00  0.00    +0.000 NA
ATOM     10  C   UNL     1     -14.802  56.538  51.182  0.00  0.00    +0.000 A 
ATOM     11  C   UNL     1     -14.859  56.572  49.805  0.00  0.00    +0.000 A 
ENDROOT
BRANCH   1  17
ATOM     12  S   UNL     1      -7.132  55.293  53.270  0.00  0.00    +0.000 S 
ATOM     13  O   UNL     1      -7.359  54.401  54.389  0.00  0.00    +0.000 OA
ATOM     14  O   UNL     1      -6.523  56.598  53.484  0.00  0.00    +0.000 OA
ATOM     15  N   UNL     1      -8.557  55.528  52.536  0.00  0.00    +0.000 N 
ATOM     16  C   UNL     1      -6.081  54.444  52.162  0.00  0.00    +0.000 A 
ATOM     17  C   UNL     1      -8.803  54.997  51.370  0.00  0.00    +0.000 C 
ATOM     18  C   UNL     1      -6.617  53.996  50.964  0.00  0.00    +0.000 A 
ATOM     19  C   UNL     1      -4.740  54.251  52.495  0.00  0.00    +0.000 A 
ATOM     20  N   UNL     1      -7.961  54.187  50.654  0.00  0.00    +0.000 N 
ATOM     21  C   UNL     1      -5.790  53.271  50.101  0.00  0.00    +0.000 A 
ATOM     22  C   UNL     1      -3.920  53.553  51.613  0.00  0.00    +0.000 A 
ATOM     23  C   UNL     1      -4.448  53.057  50.420  0.00  0.00    +0.000 A 
ATOM     24  H   UNL     1      -9.246  56.077  52.975  0.00  0.00    +0.000 HD
ATOM     25  H   UNL     1      -8.327  53.713  49.873  0.00  0.00    +0.000 HD
ENDBRANCH   1  17
BRANCH   3  26
ATOM     26  O   UNL     1     -11.243  55.252  52.926  0.00  0.00    +0.000 OA
ATOM     27  H   UNL     1     -10.682  54.611  53.317  0.00  0.00    +0.000 HD
ENDBRANCH   3  26
BRANCH   5  28
ATOM     28  C   UNL     1     -11.706  55.722  47.290  0.00  0.00    +0.000 C 
BRANCH  28  29
ATOM     29  C   UNL     1     -11.680  54.336  46.671  0.00  0.00    +0.000 A 
ATOM     30  C   UNL     1     -11.314  54.162  45.327  0.00  0.00    +0.000 A 
ATOM     31  C   UNL     1     -12.116  53.218  47.398  0.00  0.00    +0.000 A 
ATOM     32  C   UNL     1     -11.479  52.923  44.702  0.00  0.00    +0.000 A 
ATOM     33  C   UNL     1     -12.287  51.982  46.770  0.00  0.00    +0.000 A 
ATOM     34  C   UNL     1     -11.996  51.843  45.414  0.00  0.00    +0.000 A 
ENDBRANCH  28  29
ENDBRANCH   5  28
TORSDOF 4
ENDMDL
MODEL 9
REMARK VINA RESULT:      -8.2      3.261      7.167
REMARK  Name = 302318
REMARK  4 active torsions:
REMARK  status: ('A' for Active; 'I' for Inactive)
REMARK    1  A    between atoms: C_6  and  C_10
REMARK    2  A    between atoms: C_14  and  O_18
REMARK    3  A    between atoms: N_17  and  C_21
REMARK    4  A    between atoms: C_21  and  C_24
REMARK                            x       y       z     vdW  Elec       q    Type
REMARK                         _______ _______ _______ _____ _____    ______ ____
ROOT
ATOM      1  C   UNL     1     -11.334  55.944  48.886  0.00  0.00    +0.000 A 
ATOM      2  C   UNL     1     -10.165  55.508  49.717  0.00  0.00    +0.000 A 
ATOM      3  C   UNL     1     -11.485  55.479  47.633  0.00  0.00    +0.000 A 
ATOM      4  O   UNL     1     -10.014  56.019  50.829  0.00  0.00    +0.000 OA
ATOM      5  N   UNL     1      -9.333  54.529  49.212  0.00  0.00    +0.000 N 
ATOM      6  C   UNL     1     -10.471  54.594  47.068  0.00  0.00    +0.000 A 
ATOM      7  C   UNL     1      -9.430  54.107  47.864  0.00  0.00    +0.000 A 
ATOM      8  C   UNL     1     -10.482  54.263  45.709  0.00  0.00    +0.000 A 
ATOM      9  N   UNL     1      -8.455  53.311  47.369  0.00  0.00    +0.000 NA
ATOM     10  C   UNL     1      -9.452  53.494  45.180  0.00  0.00    +0.000 A 
ATOM     11  C   UNL     1      -8.478  53.042  46.045  0.00  0.00    +0.000 A 
ENDROOT
BRANCH   1  17
ATOM     12  S   UNL     1     -13.509  59.157  49.428  0.00  0.00    +0.000 S 
ATOM     13  O   UNL     1     -14.627  59.224  48.509  0.00  0.00    +0.000 OA
ATOM     14  O   UNL     1     -12.734  60.351  49.730  0.00  0.00    +0.000 OA
ATOM     15  N   UNL     1     -12.485  58.032  48.869  0.00  0.00    +0.000 N 
ATOM     16  C   UNL     1     -14.153  58.599  50.954  0.00  0.00    +0.000 A 
ATOM     17  C   UNL     1     -12.360  56.884  49.476  0.00  0.00    +0.000 C 
ATOM     18  C   UNL     1     -13.837  57.314  51.367  0.00  0.00    +0.000 A 
ATOM     19  C   UNL     1     -14.947  59.453  51.721  0.00  0.00    +0.000 A 
ATOM     20  N   UNL     1     -13.053  56.471  50.583  0.00  0.00    +0.000 N 
ATOM     21  C   UNL     1     -14.394  56.848  52.563  0.00  0.00    +0.000 A 
ATOM     22  C   UNL     1     -15.470  58.987  52.923  0.00  0.00    +0.000 A 
ATOM     23  C   UNL     1     -15.200  57.683  53.340  0.00  0.00    +0.000 A 
ATOM     24  H   UNL     1     -11.953  58.218  48.063  0.00  0.00    +0.000 HD
ATOM     25  H   UNL     1     -12.993  55.523  50.841  0.00  0.00    +0.000 HD
ENDBRANCH   1  17
BRANCH   3  26
ATOM     26  O   UNL     1     -12.536  55.786  46.791  0.00  0.00    +0.000 OA
ATOM     27  H   UNL     1     -13.367  56.032  47.149  0.00  0.00    +0.000 HD
ENDBRANCH   3  26
BRANCH   5  28
ATOM     28  C   UNL     1      -8.260  53.977  50.053  0.00  0.00    +0.000 C 
BRANCH  28  29
ATOM     29  C   UNL     1      -8.798  53.022  51.104  0.00  0.00    +0.000 A 
ATOM     30  C   UNL     1      -8.521  53.229  52.464  0.00  0.00    +0.000 A 
ATOM     31  C   UNL     1      -9.493  51.862  50.729  0.00  0.00    +0.000 A 
ATOM     32  C   UNL     1      -8.843  52.252  53.410  0.00  0.00    +0.000 A 
ATOM     33  C   UNL     1      -9.808  50.883  51.674  0.00  0.00    +0.000 A 
ATOM     34  C   UNL     1      -9.457  51.067  53.010  0.00  0.00    +0.000 A 
ENDBRANCH  28  29
ENDBRANCH   5  28
TORSDOF 4
ENDMDL
