MODEL 1
REMARK VINA RESULT:      -8.2      0.000      0.000
REMARK  Name = 353134
REMARK  8 active torsions:
REMARK  status: ('A' for Active; 'I' for Inactive)
REMARK    1  A    between atoms: C_6  and  C_10
REMARK    2  A    between atoms: C_12  and  N_16
REMARK    3  A    between atoms: C_14  and  O_19
REMARK    4  A    between atoms: N_18  and  C_22
REMARK    5  A    between atoms: C_22  and  C_25
REMARK    6  A    between atoms: C_25  and  C_28
REMARK    7  A    between atoms: C_28  and  C_29
REMARK    8  A    between atoms: C_28  and  C_30
REMARK                            x       y       z     vdW  Elec       q    Type
REMARK                         _______ _______ _______ _____ _____    ______ ____
ROOT
ATOM      1  C   UNL     1     -12.362  55.783  50.619  0.00  0.00    +0.000 A 
ATOM      2  C   UNL     1     -11.678  56.723  49.681  0.00  0.00    +0.000 A 
ATOM      3  C   UNL     1     -13.602  56.130  51.015  0.00  0.00    +0.000 A 
ATOM      4  O   UNL     1     -10.456  56.777  49.597  0.00  0.00    +0.000 OA
ATOM      5  N   UNL     1     -12.565  57.293  48.742  0.00  0.00    +0.000 N 
ATOM      6  C   UNL     1     -14.100  57.445  50.618  0.00  0.00    +0.000 A 
ATOM      7  C   UNL     1     -13.629  57.992  49.412  0.00  0.00    +0.000 A 
ATOM      8  C   UNL     1     -14.925  58.206  51.441  0.00  0.00    +0.000 A 
ATOM      9  N   UNL     1     -13.942  59.242  49.012  0.00  0.00    +0.000 NA
ATOM     10  C   UNL     1     -15.204  59.514  51.076  0.00  0.00    +0.000 A 
ATOM     11  C   UNL     1     -14.699  59.979  49.867  0.00  0.00    +0.000 A 
ENDROOT
BRANCH   1  17
ATOM     12  S   UNL     1     -10.985  52.242  49.926  0.00  0.00    +0.000 S 
ATOM     13  O   UNL     1     -12.002  51.257  49.612  0.00  0.00    +0.000 OA
ATOM     14  O   UNL     1      -9.755  52.309  49.158  0.00  0.00    +0.000 OA
ATOM     15  N   UNL     1     -11.640  53.705  49.855  0.00  0.00    +0.000 N 
ATOM     16  C   UNL     1     -10.503  51.958  51.578  0.00  0.00    +0.000 A 
ATOM     17  C   UNL     1     -11.822  54.424  50.912  0.00  0.00    +0.000 C 
ATOM     18  C   UNL     1     -10.821  52.899  52.543  0.00  0.00    +0.000 A 
ATOM     19  C   UNL     1      -9.793  50.788  51.863  0.00  0.00    +0.000 A 
ATOM     20  N   UNL     1     -11.498  54.072  52.206  0.00  0.00    +0.000 N 
ATOM     21  C   UNL     1     -10.340  52.678  53.834  0.00  0.00    +0.000 A 
ATOM     22  C   UNL     1      -9.391  50.530  53.163  0.00  0.00    +0.000 A 
ATOM     23  C   UNL     1      -9.616  51.510  54.134  0.00  0.00    +0.000 A 
ATOM     24  H   UNL     1     -11.912  54.065  48.979  0.00  0.00    +0.000 HD
ATOM     25  H   UNL     1     -11.760  54.683  52.932  0.00  0.00    +0.000 HD
BRANCH  22  26
ATOM     26  N   UNL     1      -8.566  49.435  53.423  0.00  0.00    +0.000 N 
ATOM     27  H   UNL     1      -7.753  49.549  53.967  0.00  0.00    +0.000 HD
ATOM     28  H   UNL     1      -8.796  48.549  53.063  0.00  0.00    +0.000 HD
ENDBRANCH  22  26
ENDBRANCH   1  17
BRANCH   3  29
ATOM     29  O   UNL     1     -14.496  55.340  51.701  0.00  0.00    +0.000 OA
ATOM     30  H   UNL     1     -14.209  54.839  52.439  0.00  0.00    +0.000 HD
ENDBRANCH   3  29
BRANCH   5  31
ATOM     31  C   UNL     1     -13.026  56.240  47.817  0.00  0.00    +0.000 C 
BRANCH  31  32
ATOM     32  C   UNL     1     -12.214  56.009  46.556  0.00  0.00    +0.000 C 
BRANCH  32  33
ATOM     33  C   UNL     1     -11.387  54.715  46.554  0.00  0.00    +0.000 C 
ATOM     34  C   UNL     1     -11.577  53.875  45.287  0.00  0.00    +0.000 C 
ATOM     35  C   UNL     1      -9.909  55.072  46.717  0.00  0.00    +0.000 C 
ENDBRANCH  32  33
ENDBRANCH  31  32
ENDBRANCH   5  31
TORSDOF 6
ENDMDL
MODEL 2
REMARK VINA RESULT:      -8.0      2.522      5.519
REMARK  Name = 353134
REMARK  8 active torsions:
REMARK  status: ('A' for Active; 'I' for Inactive)
REMARK    1  A    between atoms: C_6  and  C_10
REMARK    2  A    between atoms: C_12  and  N_16
REMARK    3  A    between atoms: C_14  and  O_19
REMARK    4  A    between atoms: N_18  and  C_22
REMARK    5  A    between atoms: C_22  and  C_25
REMARK    6  A    between atoms: C_25  and  C_28
REMARK    7  A    between atoms: C_28  and  C_29
REMARK    8  A    between atoms: C_28  and  C_30
REMARK                            x       y       z     vdW  Elec       q    Type
REMARK                         _______ _______ _______ _____ _____    ______ ____
ROOT
ATOM      1  C   UNL     1     -12.671  54.331  49.757  0.00  0.00    +0.000 A 
ATOM      2  C   UNL     1     -12.344  54.085  51.193  0.00  0.00    +0.000 A 
ATOM      3  C   UNL     1     -13.247  55.514  49.469  0.00  0.00    +0.000 A 
ATOM      4  O   UNL     1     -12.245  52.951  51.648  0.00  0.00    +0.000 OA
ATOM      5  N   UNL     1     -11.892  55.247  51.854  0.00  0.00    +0.000 N 
ATOM      6  C   UNL     1     -13.631  56.374  50.587  0.00  0.00    +0.000 A 
ATOM      7  C   UNL     1     -12.879  56.291  51.771  0.00  0.00    +0.000 A 
ATOM      8  C   UNL     1     -14.769  57.174  50.551  0.00  0.00    +0.000 A 
ATOM      9  N   UNL     1     -13.218  56.960  52.893  0.00  0.00    +0.000 NA
ATOM     10  C   UNL     1     -15.167  57.816  51.713  0.00  0.00    +0.000 A 
ATOM     11  C   UNL     1     -14.367  57.683  52.842  0.00  0.00    +0.000 A 
ENDROOT
BRANCH   1  17
ATOM     12  S   UNL     1     -11.923  51.051  47.860  0.00  0.00    +0.000 S 
ATOM     13  O   UNL     1     -10.751  50.342  48.333  0.00  0.00    +0.000 OA
ATOM     14  O   UNL     1     -13.152  50.338  47.560  0.00  0.00    +0.000 OA
ATOM     15  N   UNL     1     -12.310  52.185  48.927  0.00  0.00    +0.000 N 
ATOM     16  C   UNL     1     -11.462  51.852  46.381  0.00  0.00    +0.000 A 
ATOM     17  C   UNL     1     -12.173  53.443  48.667  0.00  0.00    +0.000 C 
ATOM     18  C   UNL     1     -11.389  53.235  46.358  0.00  0.00    +0.000 A 
ATOM     19  C   UNL     1     -11.198  51.059  45.259  0.00  0.00    +0.000 A 
ATOM     20  N   UNL     1     -11.700  53.988  47.492  0.00  0.00    +0.000 N 
ATOM     21  C   UNL     1     -11.105  53.840  45.134  0.00  0.00    +0.000 A 
ATOM     22  C   UNL     1     -10.832  51.661  44.066  0.00  0.00    +0.000 A 
ATOM     23  C   UNL     1     -10.846  53.057  43.995  0.00  0.00    +0.000 A 
ATOM     24  H   UNL     1     -12.662  51.914  49.806  0.00  0.00    +0.000 HD
ATOM     25  H   UNL     1     -11.573  54.963  47.450  0.00  0.00    +0.000 HD
BRANCH  22  26
ATOM     26  N   UNL     1     -10.703  50.882  42.915  0.00  0.00    +0.000 N 
ATOM     27  H   UNL     1     -11.094  49.978  42.886  0.00  0.00    +0.000 HD
ATOM     28  H   UNL     1     -10.221  51.235  42.134  0.00  0.00    +0.000 HD
ENDBRANCH  22  26
ENDBRANCH   1  17
BRANCH   3  29
ATOM     29  O   UNL     1     -13.450  56.046  48.216  0.00  0.00    +0.000 OA
ATOM     30  H   UNL     1     -12.752  56.491  47.777  0.00  0.00    +0.000 HD
ENDBRANCH   3  29
BRANCH   5  31
ATOM     31  C   UNL     1     -10.572  55.624  51.313  0.00  0.00    +0.000 C 
BRANCH  31  32
ATOM     32  C   UNL     1      -9.363  54.857  51.817  0.00  0.00    +0.000 C 
BRANCH  32  33
ATOM     33  C   UNL     1      -9.359  54.584  53.328  0.00  0.00    +0.000 C 
ATOM     34  C   UNL     1      -9.363  53.092  53.676  0.00  0.00    +0.000 C 
ATOM     35  C   UNL     1      -8.133  55.254  53.949  0.00  0.00    +0.000 C 
ENDBRANCH  32  33
ENDBRANCH  31  32
ENDBRANCH   5  31
TORSDOF 6
ENDMDL
MODEL 3
REMARK VINA RESULT:      -7.9      3.301      3.717
REMARK  Name = 353134
REMARK  8 active torsions:
REMARK  status: ('A' for Active; 'I' for Inactive)
REMARK    1  A    between atoms: C_6  and  C_10
REMARK    2  A    between atoms: C_12  and  N_16
REMARK    3  A    between atoms: C_14  and  O_19
REMARK    4  A    between atoms: N_18  and  C_22
REMARK    5  A    between atoms: C_22  and  C_25
REMARK    6  A    between atoms: C_25  and  C_28
REMARK    7  A    between atoms: C_28  and  C_29
REMARK    8  A    between atoms: C_28  and  C_30
REMARK                            x       y       z     vdW  Elec       q    Type
REMARK                         _______ _______ _______ _____ _____    ______ ____
ROOT
ATOM      1  C   UNL     1     -10.422  55.628  50.837  0.00  0.00    +0.000 A 
ATOM      2  C   UNL     1     -10.769  56.050  49.447  0.00  0.00    +0.000 A 
ATOM      3  C   UNL     1     -11.451  55.485  51.694  0.00  0.00    +0.000 A 
ATOM      4  O   UNL     1      -9.963  56.628  48.726  0.00  0.00    +0.000 OA
ATOM      5  N   UNL     1     -11.969  55.465  48.987  0.00  0.00    +0.000 N 
ATOM      6  C   UNL     1     -12.778  55.893  51.237  0.00  0.00    +0.000 A 
ATOM      7  C   UNL     1     -13.061  55.798  49.864  0.00  0.00    +0.000 A 
ATOM      8  C   UNL     1     -13.712  56.469  52.092  0.00  0.00    +0.000 A 
ATOM      9  N   UNL     1     -14.213  56.251  49.329  0.00  0.00    +0.000 NA
ATOM     10  C   UNL     1     -14.874  56.997  51.549  0.00  0.00    +0.000 A 
ATOM     11  C   UNL     1     -15.077  56.862  50.181  0.00  0.00    +0.000 A 
ENDROOT
BRANCH   1  17
ATOM     12  S   UNL     1      -6.800  54.383  50.333  0.00  0.00    +0.000 S 
ATOM     13  O   UNL     1      -6.693  52.975  50.006  0.00  0.00    +0.000 OA
ATOM     14  O   UNL     1      -6.010  55.373  49.623  0.00  0.00    +0.000 OA
ATOM     15  N   UNL     1      -8.332  54.837  50.181  0.00  0.00    +0.000 N 
ATOM     16  C   UNL     1      -6.367  54.542  52.015  0.00  0.00    +0.000 A 
ATOM     17  C   UNL     1      -9.056  55.151  51.202  0.00  0.00    +0.000 C 
ATOM     18  C   UNL     1      -7.343  54.899  52.931  0.00  0.00    +0.000 A 
ATOM     19  C   UNL     1      -5.034  54.318  52.375  0.00  0.00    +0.000 A 
ATOM     20  N   UNL     1      -8.653  55.150  52.521  0.00  0.00    +0.000 N 
ATOM     21  C   UNL     1      -6.938  55.102  54.251  0.00  0.00    +0.000 A 
ATOM     22  C   UNL     1      -4.653  54.437  53.700  0.00  0.00    +0.000 A 
ATOM     23  C   UNL     1      -5.599  54.889  54.625  0.00  0.00    +0.000 A 
ATOM     24  H   UNL     1      -8.731  54.877  49.281  0.00  0.00    +0.000 HD
ATOM     25  H   UNL     1      -9.328  55.338  53.213  0.00  0.00    +0.000 HD
BRANCH  22  26
ATOM     26  N   UNL     1      -3.301  54.349  54.037  0.00  0.00    +0.000 N 
ATOM     27  H   UNL     1      -2.750  53.617  53.675  0.00  0.00    +0.000 HD
ATOM     28  H   UNL     1      -2.899  55.018  54.637  0.00  0.00    +0.000 HD
ENDBRANCH  22  26
ENDBRANCH   1  17
BRANCH   3  29
ATOM     29  O   UNL     1     -11.404  54.918  52.947  0.00  0.00    +0.000 OA
ATOM     30  H   UNL     1     -10.585  54.638  53.304  0.00  0.00    +0.000 HD
ENDBRANCH   3  29
BRANCH   5  31
ATOM     31  C   UNL     1     -11.761  54.016  48.810  0.00  0.00    +0.000 C 
BRANCH  31  32
ATOM     32  C   UNL     1     -11.944  53.447  47.415  0.00  0.00    +0.000 C 
BRANCH  32  33
ATOM     33  C   UNL     1     -11.081  54.111  46.332  0.00  0.00    +0.000 C 
ATOM     34  C   UNL     1      -9.577  53.925  46.554  0.00  0.00    +0.000 C 
ATOM     35  C   UNL     1     -11.475  53.541  44.968  0.00  0.00    +0.000 C 
ENDBRANCH  32  33
ENDBRANCH  31  32
ENDBRANCH   5  31
TORSDOF 6
ENDMDL
MODEL 4
REMARK VINA RESULT:      -7.8      2.519      3.238
REMARK  Name = 353134
REMARK  8 active torsions:
REMARK  status: ('A' for Active; 'I' for Inactive)
REMARK    1  A    between atoms: C_6  and  C_10
REMARK    2  A    between atoms: C_12  and  N_16
REMARK    3  A    between atoms: C_14  and  O_19
REMARK    4  A    between atoms: N_18  and  C_22
REMARK    5  A    between atoms: C_22  and  C_25
REMARK    6  A    between atoms: C_25  and  C_28
REMARK    7  A    between atoms: C_28  and  C_29
REMARK    8  A    between atoms: C_28  and  C_30
REMARK                            x       y       z     vdW  Elec       q    Type
REMARK                         _______ _______ _______ _____ _____    ______ ____
ROOT
ATOM      1  C   UNL     1     -10.353  55.494  50.496  0.00  0.00    +0.000 A 
ATOM      2  C   UNL     1     -10.076  55.722  49.046  0.00  0.00    +0.000 A 
ATOM      3  C   UNL     1     -11.607  55.752  50.914  0.00  0.00    +0.000 A 
ATOM      4  O   UNL     1      -8.946  55.956  48.633  0.00  0.00    +0.000 OA
ATOM      5  N   UNL     1     -11.163  55.357  48.223  0.00  0.00    +0.000 N 
ATOM      6  C   UNL     1     -12.529  56.365  49.960  0.00  0.00    +0.000 A 
ATOM      7  C   UNL     1     -12.345  56.088  48.595  0.00  0.00    +0.000 A 
ATOM      8  C   UNL     1     -13.494  57.288  50.349  0.00  0.00    +0.000 A 
ATOM      9  N   UNL     1     -13.072  56.689  47.629  0.00  0.00    +0.000 NA
ATOM     10  C   UNL     1     -14.205  57.961  49.367  0.00  0.00    +0.000 A 
ATOM     11  C   UNL     1     -13.963  57.628  48.039  0.00  0.00    +0.000 A 
ENDROOT
BRANCH   1  17
ATOM     12  S   UNL     1      -7.252  54.992  52.744  0.00  0.00    +0.000 S 
ATOM     13  O   UNL     1      -6.016  54.782  52.017  0.00  0.00    +0.000 OA
ATOM     14  O   UNL     1      -7.297  55.884  53.890  0.00  0.00    +0.000 OA
ATOM     15  N   UNL     1      -8.372  55.517  51.722  0.00  0.00    +0.000 N 
ATOM     16  C   UNL     1      -7.761  53.431  53.332  0.00  0.00    +0.000 A 
ATOM     17  C   UNL     1      -9.385  54.789  51.386  0.00  0.00    +0.000 C 
ATOM     18  C   UNL     1      -8.904  52.853  52.804  0.00  0.00    +0.000 A 
ATOM     19  C   UNL     1      -6.998  52.826  54.336  0.00  0.00    +0.000 A 
ATOM     20  N   UNL     1      -9.656  53.511  51.830  0.00  0.00    +0.000 N 
ATOM     21  C   UNL     1      -9.327  51.647  53.363  0.00  0.00    +0.000 A 
ATOM     22  C   UNL     1      -7.374  51.588  54.829  0.00  0.00    +0.000 A 
ATOM     23  C   UNL     1      -8.575  51.031  54.379  0.00  0.00    +0.000 A 
ATOM     24  H   UNL     1      -8.285  56.420  51.339  0.00  0.00    +0.000 HD
ATOM     25  H   UNL     1     -10.424  53.037  51.436  0.00  0.00    +0.000 HD
BRANCH  22  26
ATOM     26  N   UNL     1      -6.695  51.049  55.922  0.00  0.00    +0.000 N 
ATOM     27  H   UNL     1      -7.196  50.759  56.719  0.00  0.00    +0.000 HD
ATOM     28  H   UNL     1      -5.715  50.958  55.897  0.00  0.00    +0.000 HD
ENDBRANCH  22  26
ENDBRANCH   1  17
BRANCH   3  29
ATOM     29  O   UNL     1     -12.149  55.429  52.137  0.00  0.00    +0.000 OA
ATOM     30  H   UNL     1     -12.616  54.624  52.245  0.00  0.00    +0.000 HD
ENDBRANCH   3  29
BRANCH   5  31
ATOM     31  C   UNL     1     -11.325  53.891  48.263  0.00  0.00    +0.000 C 
BRANCH  31  32
ATOM     32  C   UNL     1     -10.851  53.100  47.057  0.00  0.00    +0.000 C 
BRANCH  32  33
ATOM     33  C   UNL     1     -10.556  53.946  45.810  0.00  0.00    +0.000 C 
ATOM     34  C   UNL     1      -9.059  54.117  45.532  0.00  0.00    +0.000 C 
ATOM     35  C   UNL     1     -11.232  53.297  44.601  0.00  0.00    +0.000 C 
ENDBRANCH  32  33
ENDBRANCH  31  32
ENDBRANCH   5  31
TORSDOF 6
ENDMDL
MODEL 5
REMARK VINA RESULT:      -7.7      4.147      7.593
REMARK  Name = 353134
REMARK  8 active torsions:
REMARK  status: ('A' for Active; 'I' for Inactive)
REMARK    1  A    between atoms: C_6  and  C_10
REMARK    2  A    between atoms: C_12  and  N_16
REMARK    3  A    between atoms: C_14  and  O_19
REMARK    4  A    between atoms: N_18  and  C_22
REMARK    5  A    between atoms: C_22  and  C_25
REMARK    6  A    between atoms: C_25  and  C_28
REMARK    7  A    between atoms: C_28  and  C_29
REMARK    8  A    between atoms: C_28  and  C_30
REMARK                            x       y       z     vdW  Elec       q    Type
REMARK                         _______ _______ _______ _____ _____    ______ ____
ROOT
ATOM      1  C   UNL     1      -6.893  54.808  50.255  0.00  0.00    +0.000 A 
ATOM      2  C   UNL     1      -7.347  55.845  51.230  0.00  0.00    +0.000 A 
ATOM      3  C   UNL     1      -5.909  53.987  50.669  0.00  0.00    +0.000 A 
ATOM      4  O   UNL     1      -7.877  56.888  50.864  0.00  0.00    +0.000 OA
ATOM      5  N   UNL     1      -7.362  55.370  52.559  0.00  0.00    +0.000 N 
ATOM      6  C   UNL     1      -5.280  54.275  51.956  0.00  0.00    +0.000 A 
ATOM      7  C   UNL     1      -6.056  54.904  52.944  0.00  0.00    +0.000 A 
ATOM      8  C   UNL     1      -3.925  54.051  52.186  0.00  0.00    +0.000 A 
ATOM      9  N   UNL     1      -5.539  55.311  54.122  0.00  0.00    +0.000 NA
ATOM     10  C   UNL     1      -3.365  54.520  53.365  0.00  0.00    +0.000 A 
ATOM     11  C   UNL     1      -4.203  55.132  54.290  0.00  0.00    +0.000 A 
ENDROOT
BRANCH   1  17
ATOM     12  S   UNL     1      -7.476  53.738  46.590  0.00  0.00    +0.000 S 
ATOM     13  O   UNL     1      -7.148  54.756  45.611  0.00  0.00    +0.000 OA
ATOM     14  O   UNL     1      -7.075  52.357  46.387  0.00  0.00    +0.000 OA
ATOM     15  N   UNL     1      -6.879  54.175  48.014  0.00  0.00    +0.000 N 
ATOM     16  C   UNL     1      -9.214  53.717  46.729  0.00  0.00    +0.000 A 
ATOM     17  C   UNL     1      -7.641  54.525  48.996  0.00  0.00    +0.000 C 
ATOM     18  C   UNL     1      -9.801  54.148  47.908  0.00  0.00    +0.000 A 
ATOM     19  C   UNL     1      -9.955  53.245  45.641  0.00  0.00    +0.000 A 
ATOM     20  N   UNL     1      -9.019  54.575  48.983  0.00  0.00    +0.000 N 
ATOM     21  C   UNL     1     -11.187  54.031  48.013  0.00  0.00    +0.000 A 
ATOM     22  C   UNL     1     -11.337  53.211  45.717  0.00  0.00    +0.000 A 
ATOM     23  C   UNL     1     -11.944  53.549  46.930  0.00  0.00    +0.000 A 
ATOM     24  H   UNL     1      -5.902  54.176  48.143  0.00  0.00    +0.000 HD
ATOM     25  H   UNL     1      -9.478  54.932  49.777  0.00  0.00    +0.000 HD
BRANCH  22  26
ATOM     26  N   UNL     1     -12.068  52.613  44.688  0.00  0.00    +0.000 N 
ATOM     27  H   UNL     1     -12.423  51.701  44.802  0.00  0.00    +0.000 HD
ATOM     28  H   UNL     1     -12.227  53.102  43.850  0.00  0.00    +0.000 HD
ENDBRANCH  22  26
ENDBRANCH   1  17
BRANCH   3  29
ATOM     29  O   UNL     1      -5.473  52.844  50.039  0.00  0.00    +0.000 OA
ATOM     30  H   UNL     1      -6.053  52.368  49.478  0.00  0.00    +0.000 HD
ENDBRANCH   3  29
BRANCH   5  31
ATOM     31  C   UNL     1      -8.425  54.357  52.695  0.00  0.00    +0.000 C 
BRANCH  31  32
ATOM     32  C   UNL     1      -9.740  54.798  53.311  0.00  0.00    +0.000 C 
BRANCH  32  33
ATOM     33  C   UNL     1     -10.988  54.428  52.495  0.00  0.00    +0.000 C 
ATOM     34  C   UNL     1     -11.412  55.517  51.506  0.00  0.00    +0.000 C 
ATOM     35  C   UNL     1     -10.717  53.125  51.742  0.00  0.00    +0.000 C 
ENDBRANCH  32  33
ENDBRANCH  31  32
ENDBRANCH   5  31
TORSDOF 6
ENDMDL
MODEL 6
REMARK VINA RESULT:      -7.5      3.248      5.853
REMARK  Name = 353134
REMARK  8 active torsions:
REMARK  status: ('A' for Active; 'I' for Inactive)
REMARK    1  A    between atoms: C_6  and  C_10
REMARK    2  A    between atoms: C_12  and  N_16
REMARK    3  A    between atoms: C_14  and  O_19
REMARK    4  A    between atoms: N_18  and  C_22
REMARK    5  A    between atoms: C_22  and  C_25
REMARK    6  A    between atoms: C_25  and  C_28
REMARK    7  A    between atoms: C_28  and  C_29
REMARK    8  A    between atoms: C_28  and  C_30
REMARK                            x       y       z     vdW  Elec       q    Type
REMARK                         _______ _______ _______ _____ _____    ______ ____
ROOT
ATOM      1  C   UNL     1      -9.289  53.375  48.269  0.00  0.00    +0.000 A 
ATOM      2  C   UNL     1     -10.341  52.368  47.935  0.00  0.00    +0.000 A 
ATOM      3  C   UNL     1      -8.779  54.073  47.236  0.00  0.00    +0.000 A 
ATOM      4  O   UNL     1     -10.560  51.399  48.653  0.00  0.00    +0.000 OA
ATOM      5  N   UNL     1     -11.206  52.808  46.910  0.00  0.00    +0.000 N 
ATOM      6  C   UNL     1      -9.185  53.685  45.887  0.00  0.00    +0.000 A 
ATOM      7  C   UNL     1     -10.460  53.119  45.719  0.00  0.00    +0.000 A 
ATOM      8  C   UNL     1      -8.316  53.754  44.802  0.00  0.00    +0.000 A 
ATOM      9  N   UNL     1     -10.885  52.628  44.536  0.00  0.00    +0.000 NA
ATOM     10  C   UNL     1      -8.713  53.197  43.596  0.00  0.00    +0.000 A 
ATOM     11  C   UNL     1      -9.991  52.656  43.514  0.00  0.00    +0.000 A 
ENDROOT
BRANCH   1  17
ATOM     12  S   UNL     1      -9.909  54.017  52.027  0.00  0.00    +0.000 S 
ATOM     13  O   UNL     1     -10.584  55.267  52.316  0.00  0.00    +0.000 OA
ATOM     14  O   UNL     1     -10.297  52.791  52.702  0.00  0.00    +0.000 OA
ATOM     15  N   UNL     1     -10.019  53.719  50.454  0.00  0.00    +0.000 N 
ATOM     16  C   UNL     1      -8.224  54.258  52.404  0.00  0.00    +0.000 A 
ATOM     17  C   UNL     1      -8.990  53.771  49.676  0.00  0.00    +0.000 C 
ATOM     18  C   UNL     1      -7.298  54.270  51.373  0.00  0.00    +0.000 A 
ATOM     19  C   UNL     1      -7.866  54.414  53.747  0.00  0.00    +0.000 A 
ATOM     20  N   UNL     1      -7.696  54.072  50.050  0.00  0.00    +0.000 N 
ATOM     21  C   UNL     1      -5.952  54.375  51.723  0.00  0.00    +0.000 A 
ATOM     22  C   UNL     1      -6.536  54.604  54.084  0.00  0.00    +0.000 A 
ATOM     23  C   UNL     1      -5.577  54.523  53.071  0.00  0.00    +0.000 A 
ATOM     24  H   UNL     1     -10.897  53.490  50.071  0.00  0.00    +0.000 HD
ATOM     25  H   UNL     1      -7.016  54.152  49.343  0.00  0.00    +0.000 HD
BRANCH  22  26
ATOM     26  N   UNL     1      -6.164  54.621  55.429  0.00  0.00    +0.000 N 
ATOM     27  H   UNL     1      -6.606  54.017  56.070  0.00  0.00    +0.000 HD
ATOM     28  H   UNL     1      -5.460  55.236  55.737  0.00  0.00    +0.000 HD
ENDBRANCH  22  26
ENDBRANCH   1  17
BRANCH   3  29
ATOM     29  O   UNL     1      -7.962  55.177  47.315  0.00  0.00    +0.000 OA
ATOM     30  H   UNL     1      -7.447  55.432  46.574  0.00  0.00    +0.000 HD
ENDBRANCH   3  29
BRANCH   5  31
ATOM     31  C   UNL     1     -12.022  53.928  47.417  0.00  0.00    +0.000 C 
BRANCH  31  32
ATOM     32  C   UNL     1     -12.108  55.177  46.560  0.00  0.00    +0.000 C 
BRANCH  32  33
ATOM     33  C   UNL     1     -12.280  56.485  47.346  0.00  0.00    +0.000 C 
ATOM     34  C   UNL     1     -13.729  56.978  47.396  0.00  0.00    +0.000 C 
ATOM     35  C   UNL     1     -11.757  56.279  48.769  0.00  0.00    +0.000 C 
ENDBRANCH  32  33
ENDBRANCH  31  32
ENDBRANCH   5  31
TORSDOF 6
ENDMDL
MODEL 7
REMARK VINA RESULT:      -7.4      3.426      6.387
REMARK  Name = 353134
REMARK  8 active torsions:
REMARK  status: ('A' for Active; 'I' for Inactive)
REMARK    1  A    between atoms: C_6  and  C_10
REMARK    2  A    between atoms: C_12  and  N_16
REMARK    3  A    between atoms: C_14  and  O_19
REMARK    4  A    between atoms: N_18  and  C_22
REMARK    5  A    between atoms: C_22  and  C_25
REMARK    6  A    between atoms: C_25  and  C_28
REMARK    7  A    between atoms: C_28  and  C_29
REMARK    8  A    between atoms: C_28  and  C_30
REMARK                            x       y       z     vdW  Elec       q    Type
REMARK                         _______ _______ _______ _____ _____    ______ ____
ROOT
ATOM      1  C   UNL     1      -8.764  53.154  47.651  0.00  0.00    +0.000 A 
ATOM      2  C   UNL     1     -10.246  52.988  47.555  0.00  0.00    +0.000 A 
ATOM      3  C   UNL     1      -8.079  53.100  46.493  0.00  0.00    +0.000 A 
ATOM      4  O   UNL     1     -10.914  52.581  48.499  0.00  0.00    +0.000 OA
ATOM      5  N   UNL     1     -10.786  53.609  46.408  0.00  0.00    +0.000 N 
ATOM      6  C   UNL     1      -8.816  52.743  45.283  0.00  0.00    +0.000 A 
ATOM      7  C   UNL     1     -10.178  53.084  45.215  0.00  0.00    +0.000 A 
ATOM      8  C   UNL     1      -8.246  51.987  44.263  0.00  0.00    +0.000 A 
ATOM      9  N   UNL     1     -10.970  52.702  44.192  0.00  0.00    +0.000 NA
ATOM     10  C   UNL     1      -9.060  51.533  43.237  0.00  0.00    +0.000 A 
ATOM     11  C   UNL     1     -10.397  51.915  43.244  0.00  0.00    +0.000 A 
ENDROOT
BRANCH   1  17
ATOM     12  S   UNL     1      -6.829  55.465  50.065  0.00  0.00    +0.000 S 
ATOM     13  O   UNL     1      -5.394  55.482  49.855  0.00  0.00    +0.000 OA
ATOM     14  O   UNL     1      -7.560  56.699  50.294  0.00  0.00    +0.000 OA
ATOM     15  N   UNL     1      -7.530  54.753  48.810  0.00  0.00    +0.000 N 
ATOM     16  C   UNL     1      -7.119  54.471  51.468  0.00  0.00    +0.000 A 
ATOM     17  C   UNL     1      -8.098  53.598  48.910  0.00  0.00    +0.000 C 
ATOM     18  C   UNL     1      -7.760  53.253  51.309  0.00  0.00    +0.000 A 
ATOM     19  C   UNL     1      -6.703  54.953  52.713  0.00  0.00    +0.000 A 
ATOM     20  N   UNL     1      -8.192  52.829  50.051  0.00  0.00    +0.000 N 
ATOM     21  C   UNL     1      -8.054  52.529  52.465  0.00  0.00    +0.000 A 
ATOM     22  C   UNL     1      -6.920  54.192  53.850  0.00  0.00    +0.000 A 
ATOM     23  C   UNL     1      -7.650  53.006  53.725  0.00  0.00    +0.000 A 
ATOM     24  H   UNL     1      -7.527  55.211  47.937  0.00  0.00    +0.000 HD
ATOM     25  H   UNL     1      -8.586  51.930  49.974  0.00  0.00    +0.000 HD
BRANCH  22  26
ATOM     26  N   UNL     1      -6.631  54.732  55.104  0.00  0.00    +0.000 N 
ATOM     27  H   UNL     1      -7.357  54.885  55.753  0.00  0.00    +0.000 HD
ATOM     28  H   UNL     1      -5.704  54.960  55.340  0.00  0.00    +0.000 HD
ENDBRANCH  22  26
ENDBRANCH   1  17
BRANCH   3  29
ATOM     29  O   UNL     1      -6.755  53.425  46.306  0.00  0.00    +0.000 OA
ATOM     30  H   UNL     1      -6.473  53.792  45.491  0.00  0.00    +0.000 HD
ENDBRANCH   3  29
BRANCH   5  31
ATOM     31  C   UNL     1     -10.664  55.072  46.551  0.00  0.00    +0.000 C 
BRANCH  31  32
ATOM     32  C   UNL     1     -11.930  55.857  46.841  0.00  0.00    +0.000 C 
BRANCH  32  33
ATOM     33  C   UNL     1     -12.294  55.963  48.329  0.00  0.00    +0.000 C 
ATOM     34  C   UNL     1     -11.086  56.232  49.232  0.00  0.00    +0.000 C 
ATOM     35  C   UNL     1     -13.328  57.076  48.507  0.00  0.00    +0.000 C 
ENDBRANCH  32  33
ENDBRANCH  31  32
ENDBRANCH   5  31
TORSDOF 6
ENDMDL
MODEL 8
REMARK VINA RESULT:      -7.4      2.882      5.418
REMARK  Name = 353134
REMARK  8 active torsions:
REMARK  status: ('A' for Active; 'I' for Inactive)
REMARK    1  A    between atoms: C_6  and  C_10
REMARK    2  A    between atoms: C_12  and  N_16
REMARK    3  A    between atoms: C_14  and  O_19
REMARK    4  A    between atoms: N_18  and  C_22
REMARK    5  A    between atoms: C_22  and  C_25
REMARK    6  A    between atoms: C_25  and  C_28
REMARK    7  A    between atoms: C_28  and  C_29
REMARK    8  A    between atoms: C_28  and  C_30
REMARK                            x       y       z     vdW  Elec       q    Type
REMARK                         _______ _______ _______ _____ _____    ______ ____
ROOT
ATOM      1  C   UNL     1     -12.316  54.455  49.095  0.00  0.00    +0.000 A 
ATOM      2  C   UNL     1     -12.136  54.038  50.519  0.00  0.00    +0.000 A 
ATOM      3  C   UNL     1     -12.891  55.656  48.892  0.00  0.00    +0.000 A 
ATOM      4  O   UNL     1     -12.055  52.858  50.841  0.00  0.00    +0.000 OA
ATOM      5  N   UNL     1     -11.787  55.117  51.359  0.00  0.00    +0.000 N 
ATOM      6  C   UNL     1     -13.413  56.366  50.057  0.00  0.00    +0.000 A 
ATOM      7  C   UNL     1     -12.788  56.149  51.297  0.00  0.00    +0.000 A 
ATOM      8  C   UNL     1     -14.562  57.149  49.996  0.00  0.00    +0.000 A 
ATOM      9  N   UNL     1     -13.261  56.670  52.448  0.00  0.00    +0.000 NA
ATOM     10  C   UNL     1     -15.097  57.638  51.177  0.00  0.00    +0.000 A 
ATOM     11  C   UNL     1     -14.417  57.378  52.361  0.00  0.00    +0.000 A 
ENDROOT
BRANCH   1  17
ATOM     12  S   UNL     1      -9.615  53.467  46.517  0.00  0.00    +0.000 S 
ATOM     13  O   UNL     1      -9.541  54.343  45.365  0.00  0.00    +0.000 OA
ATOM     14  O   UNL     1      -8.408  53.013  47.185  0.00  0.00    +0.000 OA
ATOM     15  N   UNL     1     -10.517  54.167  47.645  0.00  0.00    +0.000 N 
ATOM     16  C   UNL     1     -10.445  52.024  45.998  0.00  0.00    +0.000 A 
ATOM     17  C   UNL     1     -11.682  53.714  47.967  0.00  0.00    +0.000 C 
ATOM     18  C   UNL     1     -11.709  51.756  46.499  0.00  0.00    +0.000 A 
ATOM     19  C   UNL     1      -9.790  51.176  45.099  0.00  0.00    +0.000 A 
ATOM     20  N   UNL     1     -12.309  52.611  47.424  0.00  0.00    +0.000 N 
ATOM     21  C   UNL     1     -12.301  50.548  46.129  0.00  0.00    +0.000 A 
ATOM     22  C   UNL     1     -10.417  50.019  44.667  0.00  0.00    +0.000 A 
ATOM     23  C   UNL     1     -11.649  49.681  45.233  0.00  0.00    +0.000 A 
ATOM     24  H   UNL     1     -10.170  54.966  48.106  0.00  0.00    +0.000 HD
ATOM     25  H   UNL     1     -13.232  52.417  47.706  0.00  0.00    +0.000 HD
BRANCH  22  26
ATOM     26  N   UNL     1      -9.710  49.107  43.881  0.00  0.00    +0.000 N 
ATOM     27  H   UNL     1      -9.917  49.020  42.922  0.00  0.00    +0.000 HD
ATOM     28  H   UNL     1      -9.007  48.551  44.286  0.00  0.00    +0.000 HD
ENDBRANCH  22  26
ENDBRANCH   1  17
BRANCH   3  29
ATOM     29  O   UNL     1     -12.974  56.335  47.698  0.00  0.00    +0.000 OA
ATOM     30  H   UNL     1     -13.034  55.861  46.892  0.00  0.00    +0.000 HD
ENDBRANCH   3  29
BRANCH   5  31
ATOM     31  C   UNL     1     -10.428  55.576  51.014  0.00  0.00    +0.000 C 
BRANCH  31  32
ATOM     32  C   UNL     1      -9.263  54.917  51.729  0.00  0.00    +0.000 C 
BRANCH  32  33
ATOM     33  C   UNL     1      -9.461  54.727  53.240  0.00  0.00    +0.000 C 
ATOM     34  C   UNL     1      -9.732  53.273  53.639  0.00  0.00    +0.000 C 
ATOM     35  C   UNL     1      -8.218  55.237  53.970  0.00  0.00    +0.000 C 
ENDBRANCH  32  33
ENDBRANCH  31  32
ENDBRANCH   5  31
TORSDOF 6
ENDMDL
MODEL 9
REMARK VINA RESULT:      -7.3      2.975      5.087
REMARK  Name = 353134
REMARK  8 active torsions:
REMARK  status: ('A' for Active; 'I' for Inactive)
REMARK    1  A    between atoms: C_6  and  C_10
REMARK    2  A    between atoms: C_12  and  N_16
REMARK    3  A    between atoms: C_14  and  O_19
REMARK    4  A    between atoms: N_18  and  C_22
REMARK    5  A    between atoms: C_22  and  C_25
REMARK    6  A    between atoms: C_25  and  C_28
REMARK    7  A    between atoms: C_28  and  C_29
REMARK    8  A    between atoms: C_28  and  C_30
REMARK                            x       y       z     vdW  Elec       q    Type
REMARK                         _______ _______ _______ _____ _____    ______ ____
ROOT
ATOM      1  C   UNL     1     -12.315  54.220  49.443  0.00  0.00    +0.000 A 
ATOM      2  C   UNL     1     -12.160  53.981  50.910  0.00  0.00    +0.000 A 
ATOM      3  C   UNL     1     -12.917  55.370  49.085  0.00  0.00    +0.000 A 
ATOM      4  O   UNL     1     -12.055  52.851  51.373  0.00  0.00    +0.000 OA
ATOM      5  N   UNL     1     -11.863  55.162  51.623  0.00  0.00    +0.000 N 
ATOM      6  C   UNL     1     -13.488  56.197  50.144  0.00  0.00    +0.000 A 
ATOM      7  C   UNL     1     -12.890  56.149  51.415  0.00  0.00    +0.000 A 
ATOM      8  C   UNL     1     -14.657  56.932  49.964  0.00  0.00    +0.000 A 
ATOM      9  N   UNL     1     -13.407  56.788  52.485  0.00  0.00    +0.000 NA
ATOM     10  C   UNL     1     -15.236  57.541  51.066  0.00  0.00    +0.000 A 
ATOM     11  C   UNL     1     -14.580  57.445  52.288  0.00  0.00    +0.000 A 
ENDROOT
BRANCH   1  17
ATOM     12  S   UNL     1     -11.809  52.278  46.143  0.00  0.00    +0.000 S 
ATOM     13  O   UNL     1     -12.452  50.979  46.110  0.00  0.00    +0.000 OA
ATOM     14  O   UNL     1     -11.884  53.173  45.002  0.00  0.00    +0.000 OA
ATOM     15  N   UNL     1     -12.369  53.103  47.400  0.00  0.00    +0.000 N 
ATOM     16  C   UNL     1     -10.110  51.990  46.414  0.00  0.00    +0.000 A 
ATOM     17  C   UNL     1     -11.632  53.369  48.426  0.00  0.00    +0.000 C 
ATOM     18  C   UNL     1      -9.545  52.377  47.618  0.00  0.00    +0.000 A 
ATOM     19  C   UNL     1      -9.374  51.388  45.389  0.00  0.00    +0.000 A 
ATOM     20  N   UNL     1     -10.311  53.010  48.599  0.00  0.00    +0.000 N 
ATOM     21  C   UNL     1      -8.167  52.211  47.760  0.00  0.00    +0.000 A 
ATOM     22  C   UNL     1      -8.022  51.147  45.567  0.00  0.00    +0.000 A 
ATOM     23  C   UNL     1      -7.412  51.616  46.734  0.00  0.00    +0.000 A 
ATOM     24  H   UNL     1     -13.303  53.416  47.389  0.00  0.00    +0.000 HD
ATOM     25  H   UNL     1      -9.885  53.210  49.463  0.00  0.00    +0.000 HD
BRANCH  22  26
ATOM     26  N   UNL     1      -7.261  50.675  44.496  0.00  0.00    +0.000 N 
ATOM     27  H   UNL     1      -6.656  51.286  44.015  0.00  0.00    +0.000 HD
ATOM     28  H   UNL     1      -7.329  49.733  44.222  0.00  0.00    +0.000 HD
ENDBRANCH  22  26
ENDBRANCH   1  17
BRANCH   3  29
ATOM     29  O   UNL     1     -12.988  55.899  47.816  0.00  0.00    +0.000 OA
ATOM     30  H   UNL     1     -12.956  56.827  47.694  0.00  0.00    +0.000 HD
ENDBRANCH   3  29
BRANCH   5  31
ATOM     31  C   UNL     1     -10.509  55.618  51.256  0.00  0.00    +0.000 C 
BRANCH  31  32
ATOM     32  C   UNL     1      -9.332  54.849  51.827  0.00  0.00    +0.000 C 
BRANCH  32  33
ATOM     33  C   UNL     1      -9.397  54.605  53.341  0.00  0.00    +0.000 C 
ATOM     34  C   UNL     1      -9.474  53.122  53.715  0.00  0.00    +0.000 C 
ATOM     35  C   UNL     1      -8.169  55.238  53.997  0.00  0.00    +0.000 C 
ENDBRANCH  32  33
ENDBRANCH  31  32
ENDBRANCH   5  31
TORSDOF 6
ENDMDL
