MODEL 1
REMARK VINA RESULT:      -8.9      0.000      0.000
REMARK  Name = 302318
REMARK  4 active torsions:
REMARK  status: ('A' for Active; 'I' for Inactive)
REMARK    1  A    between atoms: C_6  and  C_10
REMARK    2  A    between atoms: C_14  and  O_18
REMARK    3  A    between atoms: N_17  and  C_21
REMARK    4  A    between atoms: C_21  and  C_24
REMARK                            x       y       z     vdW  Elec       q    Type
REMARK                         _______ _______ _______ _____ _____    ______ ____
ROOT
ATOM      1  C   UNL     1      -9.233  55.092  50.480  0.00  0.00    +0.000 A 
ATOM      2  C   UNL     1     -10.627  54.976  51.016  0.00  0.00    +0.000 A 
ATOM      3  C   UNL     1      -9.042  55.304  49.165  0.00  0.00    +0.000 A 
ATOM      4  O   UNL     1     -10.769  54.738  52.220  0.00  0.00    +0.000 OA
ATOM      5  N   UNL     1     -11.686  55.166  50.151  0.00  0.00    +0.000 N 
ATOM      6  C   UNL     1     -10.186  55.357  48.256  0.00  0.00    +0.000 A 
ATOM      7  C   UNL     1     -11.492  55.317  48.757  0.00  0.00    +0.000 A 
ATOM      8  C   UNL     1     -10.014  55.404  46.866  0.00  0.00    +0.000 A 
ATOM      9  N   UNL     1     -12.579  55.346  47.949  0.00  0.00    +0.000 NA
ATOM     10  C   UNL     1     -11.120  55.389  46.031  0.00  0.00    +0.000 A 
ATOM     11  C   UNL     1     -12.370  55.367  46.615  0.00  0.00    +0.000 A 
ENDROOT
BRANCH   1  17
ATOM     12  S   UNL     1      -6.922  55.787  53.577  0.00  0.00    +0.000 S 
ATOM     13  O   UNL     1      -7.361  55.074  54.761  0.00  0.00    +0.000 OA
ATOM     14  O   UNL     1      -6.470  57.158  53.674  0.00  0.00    +0.000 OA
ATOM     15  N   UNL     1      -8.131  55.739  52.498  0.00  0.00    +0.000 N 
ATOM     16  C   UNL     1      -5.576  54.875  52.928  0.00  0.00    +0.000 A 
ATOM     17  C   UNL     1      -8.054  55.008  51.429  0.00  0.00    +0.000 C 
ATOM     18  C   UNL     1      -5.769  54.183  51.741  0.00  0.00    +0.000 A 
ATOM     19  C   UNL     1      -4.353  54.870  53.602  0.00  0.00    +0.000 A 
ATOM     20  N   UNL     1      -6.999  54.189  51.087  0.00  0.00    +0.000 N 
ATOM     21  C   UNL     1      -4.713  53.407  51.253  0.00  0.00    +0.000 A 
ATOM     22  C   UNL     1      -3.301  54.120  53.085  0.00  0.00    +0.000 A 
ATOM     23  C   UNL     1      -3.485  53.382  51.917  0.00  0.00    +0.000 A 
ATOM     24  H   UNL     1      -8.940  56.277  52.657  0.00  0.00    +0.000 HD
ATOM     25  H   UNL     1      -7.122  53.569  50.333  0.00  0.00    +0.000 HD
ENDBRANCH   1  17
BRANCH   3  26
ATOM     26  O   UNL     1      -7.808  55.471  48.562  0.00  0.00    +0.000 OA
ATOM     27  H   UNL     1      -7.148  55.988  48.981  0.00  0.00    +0.000 HD
ENDBRANCH   3  26
BRANCH   5  28
ATOM     28  C   UNL     1     -13.051  55.192  50.685  0.00  0.00    +0.000 C 
BRANCH  28  29
ATOM     29  C   UNL     1     -13.444  56.580  51.155  0.00  0.00    +0.000 A 
ATOM     30  C   UNL     1     -13.598  56.852  52.521  0.00  0.00    +0.000 A 
ATOM     31  C   UNL     1     -13.740  57.592  50.229  0.00  0.00    +0.000 A 
ATOM     32  C   UNL     1     -14.093  58.087  52.946  0.00  0.00    +0.000 A 
ATOM     33  C   UNL     1     -14.244  58.822  50.654  0.00  0.00    +0.000 A 
ATOM     34  C   UNL     1     -14.438  59.063  52.011  0.00  0.00    +0.000 A 
ENDBRANCH  28  29
ENDBRANCH   5  28
TORSDOF 4
ENDMDL
MODEL 2
REMARK VINA RESULT:      -8.8      2.370      4.864
REMARK  Name = 302318
REMARK  4 active torsions:
REMARK  status: ('A' for Active; 'I' for Inactive)
REMARK    1  A    between atoms: C_6  and  C_10
REMARK    2  A    between atoms: C_14  and  O_18
REMARK    3  A    between atoms: N_17  and  C_21
REMARK    4  A    between atoms: C_21  and  C_24
REMARK                            x       y       z     vdW  Elec       q    Type
REMARK                         _______ _______ _______ _____ _____    ______ ____
ROOT
ATOM      1  C   UNL     1     -10.375  55.241  50.721  0.00  0.00    +0.000 A 
ATOM      2  C   UNL     1     -10.012  55.225  49.268  0.00  0.00    +0.000 A 
ATOM      3  C   UNL     1     -11.599  55.654  51.096  0.00  0.00    +0.000 A 
ATOM      4  O   UNL     1      -8.866  54.884  48.958  0.00  0.00    +0.000 OA
ATOM      5  N   UNL     1     -10.977  55.566  48.341  0.00  0.00    +0.000 N 
ATOM      6  C   UNL     1     -12.547  56.143  50.095  0.00  0.00    +0.000 A 
ATOM      7  C   UNL     1     -12.242  56.069  48.732  0.00  0.00    +0.000 A 
ATOM      8  C   UNL     1     -13.761  56.736  50.467  0.00  0.00    +0.000 A 
ATOM      9  N   UNL     1     -13.083  56.526  47.775  0.00  0.00    +0.000 NA
ATOM     10  C   UNL     1     -14.608  57.248  49.497  0.00  0.00    +0.000 A 
ATOM     11  C   UNL     1     -14.232  57.114  48.176  0.00  0.00    +0.000 A 
ENDROOT
BRANCH   1  17
ATOM     12  S   UNL     1      -7.072  54.975  52.827  0.00  0.00    +0.000 S 
ATOM     13  O   UNL     1      -7.012  55.966  53.882  0.00  0.00    +0.000 OA
ATOM     14  O   UNL     1      -5.897  54.674  52.037  0.00  0.00    +0.000 OA
ATOM     15  N   UNL     1      -8.255  55.412  51.808  0.00  0.00    +0.000 N 
ATOM     16  C   UNL     1      -7.541  53.472  53.592  0.00  0.00    +0.000 A 
ATOM     17  C   UNL     1      -9.373  54.756  51.750  0.00  0.00    +0.000 C 
ATOM     18  C   UNL     1      -8.814  52.981  53.342  0.00  0.00    +0.000 A 
ATOM     19  C   UNL     1      -6.635  52.803  54.420  0.00  0.00    +0.000 A 
ATOM     20  N   UNL     1      -9.710  53.666  52.524  0.00  0.00    +0.000 N 
ATOM     21  C   UNL     1      -9.209  51.813  54.000  0.00  0.00    +0.000 A 
ATOM     22  C   UNL     1      -7.032  51.624  55.041  0.00  0.00    +0.000 A 
ATOM     23  C   UNL     1      -8.322  51.134  54.838  0.00  0.00    +0.000 A 
ATOM     24  H   UNL     1      -8.121  56.190  51.220  0.00  0.00    +0.000 HD
ATOM     25  H   UNL     1     -10.641  53.351  52.497  0.00  0.00    +0.000 HD
ENDBRANCH   1  17
BRANCH   3  26
ATOM     26  O   UNL     1     -12.063  55.672  52.399  0.00  0.00    +0.000 OA
ATOM     27  H   UNL     1     -12.572  54.955  52.724  0.00  0.00    +0.000 HD
ENDBRANCH   3  26
BRANCH   5  28
ATOM     28  C   UNL     1     -10.681  55.424  46.912  0.00  0.00    +0.000 C 
BRANCH  28  29
ATOM     29  C   UNL     1     -11.056  54.048  46.395  0.00  0.00    +0.000 A 
ATOM     30  C   UNL     1     -10.705  53.655  45.096  0.00  0.00    +0.000 A 
ATOM     31  C   UNL     1     -11.830  53.176  47.177  0.00  0.00    +0.000 A 
ATOM     32  C   UNL     1     -11.168  52.446  44.572  0.00  0.00    +0.000 A 
ATOM     33  C   UNL     1     -12.301  51.973  46.649  0.00  0.00    +0.000 A 
ATOM     34  C   UNL     1     -11.985  51.617  45.340  0.00  0.00    +0.000 A 
ENDBRANCH  28  29
ENDBRANCH   5  28
TORSDOF 4
ENDMDL
MODEL 3
REMARK VINA RESULT:      -8.8      2.904      7.796
REMARK  Name = 302318
REMARK  4 active torsions:
REMARK  status: ('A' for Active; 'I' for Inactive)
REMARK    1  A    between atoms: C_6  and  C_10
REMARK    2  A    between atoms: C_14  and  O_18
REMARK    3  A    between atoms: N_17  and  C_21
REMARK    4  A    between atoms: C_21  and  C_24
REMARK                            x       y       z     vdW  Elec       q    Type
REMARK                         _______ _______ _______ _____ _____    ______ ____
ROOT
ATOM      1  C   UNL     1     -11.211  54.557  50.935  0.00  0.00    +0.000 A 
ATOM      2  C   UNL     1      -9.779  54.907  50.670  0.00  0.00    +0.000 A 
ATOM      3  C   UNL     1     -11.531  53.302  51.303  0.00  0.00    +0.000 A 
ATOM      4  O   UNL     1      -9.522  56.054  50.291  0.00  0.00    +0.000 OA
ATOM      5  N   UNL     1      -8.812  53.945  50.885  0.00  0.00    +0.000 N 
ATOM      6  C   UNL     1     -10.496  52.273  51.383  0.00  0.00    +0.000 A 
ATOM      7  C   UNL     1      -9.149  52.607  51.202  0.00  0.00    +0.000 A 
ATOM      8  C   UNL     1     -10.818  50.926  51.595  0.00  0.00    +0.000 A 
ATOM      9  N   UNL     1      -8.160  51.683  51.250  0.00  0.00    +0.000 NA
ATOM     10  C   UNL     1      -9.817  49.967  51.600  0.00  0.00    +0.000 A 
ATOM     11  C   UNL     1      -8.515  50.392  51.432  0.00  0.00    +0.000 A 
ENDROOT
BRANCH   1  17
ATOM     12  S   UNL     1     -13.540  57.308  49.381  0.00  0.00    +0.000 S 
ATOM     13  O   UNL     1     -14.661  56.737  48.661  0.00  0.00    +0.000 OA
ATOM     14  O   UNL     1     -12.824  58.443  48.838  0.00  0.00    +0.000 OA
ATOM     15  N   UNL     1     -12.466  56.122  49.639  0.00  0.00    +0.000 N 
ATOM     16  C   UNL     1     -14.166  57.824  50.932  0.00  0.00    +0.000 A 
ATOM     17  C   UNL     1     -12.279  55.626  50.824  0.00  0.00    +0.000 C 
ATOM     18  C   UNL     1     -13.788  57.109  52.058  0.00  0.00    +0.000 A 
ATOM     19  C   UNL     1     -15.014  58.932  51.004  0.00  0.00    +0.000 A 
ATOM     20  N   UNL     1     -12.951  55.999  51.969  0.00  0.00    +0.000 N 
ATOM     21  C   UNL     1     -14.334  57.483  53.289  0.00  0.00    +0.000 A 
ATOM     22  C   UNL     1     -15.523  59.313  52.241  0.00  0.00    +0.000 A 
ATOM     23  C   UNL     1     -15.190  58.583  53.381  0.00  0.00    +0.000 A 
ATOM     24  H   UNL     1     -11.943  55.772  48.882  0.00  0.00    +0.000 HD
ATOM     25  H   UNL     1     -12.832  55.445  52.774  0.00  0.00    +0.000 HD
ENDBRANCH   1  17
BRANCH   3  26
ATOM     26  O   UNL     1     -12.808  52.872  51.616  0.00  0.00    +0.000 OA
ATOM     27  H   UNL     1     -13.375  53.417  52.125  0.00  0.00    +0.000 HD
ENDBRANCH   3  26
BRANCH   5  28
ATOM     28  C   UNL     1      -7.398  54.311  50.763  0.00  0.00    +0.000 C 
BRANCH  28  29
ATOM     29  C   UNL     1      -6.753  54.522  52.120  0.00  0.00    +0.000 A 
ATOM     30  C   UNL     1      -5.479  54.005  52.391  0.00  0.00    +0.000 A 
ATOM     31  C   UNL     1      -7.453  55.165  53.153  0.00  0.00    +0.000 A 
ATOM     32  C   UNL     1      -4.944  54.078  53.679  0.00  0.00    +0.000 A 
ATOM     33  C   UNL     1      -6.922  55.229  54.442  0.00  0.00    +0.000 A 
ATOM     34  C   UNL     1      -5.675  54.668  54.709  0.00  0.00    +0.000 A 
ENDBRANCH  28  29
ENDBRANCH   5  28
TORSDOF 4
ENDMDL
MODEL 4
REMARK VINA RESULT:      -8.7      1.976      2.201
REMARK  Name = 302318
REMARK  4 active torsions:
REMARK  status: ('A' for Active; 'I' for Inactive)
REMARK    1  A    between atoms: C_6  and  C_10
REMARK    2  A    between atoms: C_14  and  O_18
REMARK    3  A    between atoms: N_17  and  C_21
REMARK    4  A    between atoms: C_21  and  C_24
REMARK                            x       y       z     vdW  Elec       q    Type
REMARK                         _______ _______ _______ _____ _____    ______ ____
ROOT
ATOM      1  C   UNL     1      -9.966  54.668  50.785  0.00  0.00    +0.000 A 
ATOM      2  C   UNL     1     -11.431  54.769  51.077  0.00  0.00    +0.000 A 
ATOM      3  C   UNL     1      -9.515  54.932  49.545  0.00  0.00    +0.000 A 
ATOM      4  O   UNL     1     -11.820  54.478  52.213  0.00  0.00    +0.000 OA
ATOM      5  N   UNL     1     -12.277  55.207  50.077  0.00  0.00    +0.000 N 
ATOM      6  C   UNL     1     -10.458  55.254  48.475  0.00  0.00    +0.000 A 
ATOM      7  C   UNL     1     -11.819  55.417  48.753  0.00  0.00    +0.000 A 
ATOM      8  C   UNL     1     -10.040  55.366  47.142  0.00  0.00    +0.000 A 
ATOM      9  N   UNL     1     -12.728  55.698  47.789  0.00  0.00    +0.000 NA
ATOM     10  C   UNL     1     -10.970  55.608  46.143  0.00  0.00    +0.000 A 
ATOM     11  C   UNL     1     -12.289  55.773  46.514  0.00  0.00    +0.000 A 
ENDROOT
BRANCH   1  17
ATOM     12  S   UNL     1      -6.793  54.736  53.096  0.00  0.00    +0.000 S 
ATOM     13  O   UNL     1      -6.864  55.782  54.097  0.00  0.00    +0.000 OA
ATOM     14  O   UNL     1      -5.553  54.476  52.396  0.00  0.00    +0.000 OA
ATOM     15  N   UNL     1      -7.935  55.039  51.986  0.00  0.00    +0.000 N 
ATOM     16  C   UNL     1      -7.210  53.246  53.914  0.00  0.00    +0.000 A 
ATOM     17  C   UNL     1      -9.002  54.306  51.898  0.00  0.00    +0.000 C 
ATOM     18  C   UNL     1      -8.431  52.658  53.616  0.00  0.00    +0.000 A 
ATOM     19  C   UNL     1      -6.317  52.684  54.830  0.00  0.00    +0.000 A 
ATOM     20  N   UNL     1      -9.315  53.237  52.709  0.00  0.00    +0.000 N 
ATOM     21  C   UNL     1      -8.790  51.500  54.313  0.00  0.00    +0.000 A 
ATOM     22  C   UNL     1      -6.676  51.513  55.491  0.00  0.00    +0.000 A 
ATOM     23  C   UNL     1      -7.915  50.927  55.239  0.00  0.00    +0.000 A 
ATOM     24  H   UNL     1      -7.815  55.793  51.365  0.00  0.00    +0.000 HD
ATOM     25  H   UNL     1     -10.221  52.858  52.644  0.00  0.00    +0.000 HD
ENDBRANCH   1  17
BRANCH   3  26
ATOM     26  O   UNL     1      -8.185  54.914  49.166  0.00  0.00    +0.000 OA
ATOM     27  H   UNL     1      -7.549  54.495  49.712  0.00  0.00    +0.000 HD
ENDBRANCH   3  26
BRANCH   5  28
ATOM     28  C   UNL     1     -13.690  55.442  50.385  0.00  0.00    +0.000 C 
BRANCH  28  29
ATOM     29  C   UNL     1     -13.905  56.797  51.035  0.00  0.00    +0.000 A 
ATOM     30  C   UNL     1     -14.231  56.890  52.395  0.00  0.00    +0.000 A 
ATOM     31  C   UNL     1     -13.863  57.972  50.270  0.00  0.00    +0.000 A 
ATOM     32  C   UNL     1     -14.565  58.123  52.960  0.00  0.00    +0.000 A 
ATOM     33  C   UNL     1     -14.206  59.203  50.833  0.00  0.00    +0.000 A 
ATOM     34  C   UNL     1     -14.575  59.275  52.174  0.00  0.00    +0.000 A 
ENDBRANCH  28  29
ENDBRANCH   5  28
TORSDOF 4
ENDMDL
MODEL 5
REMARK VINA RESULT:      -8.7      2.728      8.433
REMARK  Name = 302318
REMARK  4 active torsions:
REMARK  status: ('A' for Active; 'I' for Inactive)
REMARK    1  A    between atoms: C_6  and  C_10
REMARK    2  A    between atoms: C_14  and  O_18
REMARK    3  A    between atoms: N_17  and  C_21
REMARK    4  A    between atoms: C_21  and  C_24
REMARK                            x       y       z     vdW  Elec       q    Type
REMARK                         _______ _______ _______ _____ _____    ______ ____
ROOT
ATOM      1  C   UNL     1     -10.073  54.410  52.511  0.00  0.00    +0.000 A 
ATOM      2  C   UNL     1      -8.698  55.004  52.484  0.00  0.00    +0.000 A 
ATOM      3  C   UNL     1     -10.302  53.297  53.231  0.00  0.00    +0.000 A 
ATOM      4  O   UNL     1      -8.508  55.999  51.778  0.00  0.00    +0.000 OA
ATOM      5  N   UNL     1      -7.714  54.430  53.265  0.00  0.00    +0.000 N 
ATOM      6  C   UNL     1      -9.202  52.637  53.932  0.00  0.00    +0.000 A 
ATOM      7  C   UNL     1      -7.931  53.220  53.967  0.00  0.00    +0.000 A 
ATOM      8  C   UNL     1      -9.371  51.389  54.547  0.00  0.00    +0.000 A 
ATOM      9  N   UNL     1      -6.881  52.634  54.590  0.00  0.00    +0.000 NA
ATOM     10  C   UNL     1      -8.291  50.760  55.147  0.00  0.00    +0.000 A 
ATOM     11  C   UNL     1      -7.079  51.420  55.149  0.00  0.00    +0.000 A 
ENDROOT
BRANCH   1  17
ATOM     12  S   UNL     1     -12.258  55.732  49.529  0.00  0.00    +0.000 S 
ATOM     13  O   UNL     1     -13.094  54.694  48.958  0.00  0.00    +0.000 OA
ATOM     14  O   UNL     1     -11.570  56.672  48.670  0.00  0.00    +0.000 OA
ATOM     15  N   UNL     1     -11.148  55.010  50.464  0.00  0.00    +0.000 N 
ATOM     16  C   UNL     1     -13.300  56.688  50.560  0.00  0.00    +0.000 A 
ATOM     17  C   UNL     1     -11.199  55.089  51.758  0.00  0.00    +0.000 C 
ATOM     18  C   UNL     1     -13.127  56.590  51.933  0.00  0.00    +0.000 A 
ATOM     19  C   UNL     1     -14.264  57.523  49.990  0.00  0.00    +0.000 A 
ATOM     20  N   UNL     1     -12.169  55.743  52.487  0.00  0.00    +0.000 N 
ATOM     21  C   UNL     1     -13.998  57.307  52.759  0.00  0.00    +0.000 A 
ATOM     22  C   UNL     1     -15.101  58.256  50.824  0.00  0.00    +0.000 A 
ATOM     23  C   UNL     1     -14.974  58.141  52.208  0.00  0.00    +0.000 A 
ATOM     24  H   UNL     1     -10.419  54.502  50.041  0.00  0.00    +0.000 HD
ATOM     25  H   UNL     1     -12.187  55.604  53.461  0.00  0.00    +0.000 HD
ENDBRANCH   1  17
BRANCH   3  26
ATOM     26  O   UNL     1     -11.534  52.683  53.368  0.00  0.00    +0.000 OA
ATOM     27  H   UNL     1     -11.739  51.925  52.856  0.00  0.00    +0.000 HD
ENDBRANCH   3  26
BRANCH   5  28
ATOM     28  C   UNL     1      -6.403  55.079  53.355  0.00  0.00    +0.000 C 
BRANCH  28  29
ATOM     29  C   UNL     1      -5.375  54.393  52.474  0.00  0.00    +0.000 A 
ATOM     30  C   UNL     1      -5.637  54.166  51.117  0.00  0.00    +0.000 A 
ATOM     31  C   UNL     1      -4.179  53.901  53.021  0.00  0.00    +0.000 A 
ATOM     32  C   UNL     1      -4.753  53.414  50.340  0.00  0.00    +0.000 A 
ATOM     33  C   UNL     1      -3.301  53.142  52.247  0.00  0.00    +0.000 A 
ATOM     34  C   UNL     1      -3.597  52.882  50.911  0.00  0.00    +0.000 A 
ENDBRANCH  28  29
ENDBRANCH   5  28
TORSDOF 4
ENDMDL
MODEL 6
REMARK VINA RESULT:      -8.6      2.410      5.076
REMARK  Name = 302318
REMARK  4 active torsions:
REMARK  status: ('A' for Active; 'I' for Inactive)
REMARK    1  A    between atoms: C_6  and  C_10
REMARK    2  A    between atoms: C_14  and  O_18
REMARK    3  A    between atoms: N_17  and  C_21
REMARK    4  A    between atoms: C_21  and  C_24
REMARK                            x       y       z     vdW  Elec       q    Type
REMARK                         _______ _______ _______ _____ _____    ______ ____
ROOT
ATOM      1  C   UNL     1     -10.469  54.799  50.389  0.00  0.00    +0.000 A 
ATOM      2  C   UNL     1     -10.001  55.043  48.988  0.00  0.00    +0.000 A 
ATOM      3  C   UNL     1     -11.730  55.120  50.734  0.00  0.00    +0.000 A 
ATOM      4  O   UNL     1      -8.826  54.781  48.713  0.00  0.00    +0.000 OA
ATOM      5  N   UNL     1     -10.906  55.525  48.062  0.00  0.00    +0.000 N 
ATOM      6  C   UNL     1     -12.616  55.760  49.764  0.00  0.00    +0.000 A 
ATOM      7  C   UNL     1     -12.210  55.930  48.436  0.00  0.00    +0.000 A 
ATOM      8  C   UNL     1     -13.871  56.259  50.138  0.00  0.00    +0.000 A 
ATOM      9  N   UNL     1     -12.993  56.533  47.510  0.00  0.00    +0.000 NA
ATOM     10  C   UNL     1     -14.660  56.918  49.208  0.00  0.00    +0.000 A 
ATOM     11  C   UNL     1     -14.185  57.022  47.917  0.00  0.00    +0.000 A 
ENDROOT
BRANCH   1  17
ATOM     12  S   UNL     1      -8.966  52.181  52.899  0.00  0.00    +0.000 S 
ATOM     13  O   UNL     1      -8.257  51.114  52.220  0.00  0.00    +0.000 OA
ATOM     14  O   UNL     1      -9.828  51.887  54.024  0.00  0.00    +0.000 OA
ATOM     15  N   UNL     1      -9.850  52.966  51.790  0.00  0.00    +0.000 N 
ATOM     16  C   UNL     1      -7.741  53.279  53.497  0.00  0.00    +0.000 A 
ATOM     17  C   UNL     1      -9.531  54.160  51.393  0.00  0.00    +0.000 C 
ATOM     18  C   UNL     1      -7.624  54.520  52.887  0.00  0.00    +0.000 A 
ATOM     19  C   UNL     1      -6.926  52.894  54.564  0.00  0.00    +0.000 A 
ATOM     20  N   UNL     1      -8.437  54.884  51.816  0.00  0.00    +0.000 N 
ATOM     21  C   UNL     1      -6.607  55.374  53.325  0.00  0.00    +0.000 A 
ATOM     22  C   UNL     1      -5.941  53.769  55.010  0.00  0.00    +0.000 A 
ATOM     23  C   UNL     1      -5.776  55.004  54.385  0.00  0.00    +0.000 A 
ATOM     24  H   UNL     1     -10.646  52.529  51.411  0.00  0.00    +0.000 HD
ATOM     25  H   UNL     1      -8.215  55.711  51.331  0.00  0.00    +0.000 HD
ENDBRANCH   1  17
BRANCH   3  26
ATOM     26  O   UNL     1     -12.288  54.902  51.981  0.00  0.00    +0.000 OA
ATOM     27  H   UNL     1     -13.217  54.948  52.093  0.00  0.00    +0.000 HD
ENDBRANCH   3  26
BRANCH   5  28
ATOM     28  C   UNL     1     -10.502  55.640  46.658  0.00  0.00    +0.000 C 
BRANCH  28  29
ATOM     29  C   UNL     1     -10.565  54.302  45.944  0.00  0.00    +0.000 A 
ATOM     30  C   UNL     1      -9.425  53.767  45.330  0.00  0.00    +0.000 A 
ATOM     31  C   UNL     1     -11.784  53.617  45.815  0.00  0.00    +0.000 A 
ATOM     32  C   UNL     1      -9.514  52.607  44.557  0.00  0.00    +0.000 A 
ATOM     33  C   UNL     1     -11.875  52.464  45.033  0.00  0.00    +0.000 A 
ATOM     34  C   UNL     1     -10.743  51.970  44.389  0.00  0.00    +0.000 A 
ENDBRANCH  28  29
ENDBRANCH   5  28
TORSDOF 4
ENDMDL
MODEL 7
REMARK VINA RESULT:      -8.6      4.390      7.908
REMARK  Name = 302318
REMARK  4 active torsions:
REMARK  status: ('A' for Active; 'I' for Inactive)
REMARK    1  A    between atoms: C_6  and  C_10
REMARK    2  A    between atoms: C_14  and  O_18
REMARK    3  A    between atoms: N_17  and  C_21
REMARK    4  A    between atoms: C_21  and  C_24
REMARK                            x       y       z     vdW  Elec       q    Type
REMARK                         _______ _______ _______ _____ _____    ______ ____
ROOT
ATOM      1  C   UNL     1     -12.421  54.103  49.952  0.00  0.00    +0.000 A 
ATOM      2  C   UNL     1     -12.053  53.808  48.530  0.00  0.00    +0.000 A 
ATOM      3  C   UNL     1     -12.033  53.260  50.927  0.00  0.00    +0.000 A 
ATOM      4  O   UNL     1     -12.461  54.576  47.653  0.00  0.00    +0.000 OA
ATOM      5  N   UNL     1     -11.257  52.711  48.266  0.00  0.00    +0.000 N 
ATOM      6  C   UNL     1     -11.312  52.033  50.593  0.00  0.00    +0.000 A 
ATOM      7  C   UNL     1     -10.907  51.784  49.277  0.00  0.00    +0.000 A 
ATOM      8  C   UNL     1     -11.045  51.055  51.560  0.00  0.00    +0.000 A 
ATOM      9  N   UNL     1     -10.252  50.653  48.921  0.00  0.00    +0.000 NA
ATOM     10  C   UNL     1     -10.416  49.874  51.196  0.00  0.00    +0.000 A 
ATOM     11  C   UNL     1     -10.036  49.724  49.878  0.00  0.00    +0.000 A 
ENDROOT
BRANCH   1  17
ATOM     12  S   UNL     1     -15.288  56.453  51.243  0.00  0.00    +0.000 S 
ATOM     13  O   UNL     1     -15.250  56.627  52.681  0.00  0.00    +0.000 OA
ATOM     14  O   UNL     1     -16.552  56.262  50.563  0.00  0.00    +0.000 OA
ATOM     15  N   UNL     1     -14.333  55.195  50.875  0.00  0.00    +0.000 N 
ATOM     16  C   UNL     1     -14.577  57.896  50.555  0.00  0.00    +0.000 A 
ATOM     17  C   UNL     1     -13.192  55.365  50.282  0.00  0.00    +0.000 C 
ATOM     18  C   UNL     1     -13.329  57.789  49.960  0.00  0.00    +0.000 A 
ATOM     19  C   UNL     1     -15.273  59.106  50.611  0.00  0.00    +0.000 A 
ATOM     20  N   UNL     1     -12.642  56.577  49.923  0.00  0.00    +0.000 N 
ATOM     21  C   UNL     1     -12.735  58.953  49.463  0.00  0.00    +0.000 A 
ATOM     22  C   UNL     1     -14.683  60.250  50.082  0.00  0.00    +0.000 A 
ATOM     23  C   UNL     1     -13.411  60.174  49.517  0.00  0.00    +0.000 A 
ATOM     24  H   UNL     1     -14.627  54.284  51.105  0.00  0.00    +0.000 HD
ATOM     25  H   UNL     1     -11.706  56.588  49.620  0.00  0.00    +0.000 HD
ENDBRANCH   1  17
BRANCH   3  26
ATOM     26  O   UNL     1     -12.274  53.447  52.276  0.00  0.00    +0.000 OA
ATOM     27  H   UNL     1     -11.752  52.998  52.912  0.00  0.00    +0.000 HD
ENDBRANCH   3  26
BRANCH   5  28
ATOM     28  C   UNL     1     -10.776  52.488  46.900  0.00  0.00    +0.000 C 
BRANCH  28  29
ATOM     29  C   UNL     1      -9.452  53.187  46.648  0.00  0.00    +0.000 A 
ATOM     30  C   UNL     1      -9.419  54.469  46.086  0.00  0.00    +0.000 A 
ATOM     31  C   UNL     1      -8.238  52.528  46.897  0.00  0.00    +0.000 A 
ATOM     32  C   UNL     1      -8.203  55.055  45.727  0.00  0.00    +0.000 A 
ATOM     33  C   UNL     1      -7.023  53.110  46.529  0.00  0.00    +0.000 A 
ATOM     34  C   UNL     1      -7.008  54.365  45.927  0.00  0.00    +0.000 A 
ENDBRANCH  28  29
ENDBRANCH   5  28
TORSDOF 4
ENDMDL
MODEL 8
REMARK VINA RESULT:      -8.4      1.878      4.678
REMARK  Name = 302318
REMARK  4 active torsions:
REMARK  status: ('A' for Active; 'I' for Inactive)
REMARK    1  A    between atoms: C_6  and  C_10
REMARK    2  A    between atoms: C_14  and  O_18
REMARK    3  A    between atoms: N_17  and  C_21
REMARK    4  A    between atoms: C_21  and  C_24
REMARK                            x       y       z     vdW  Elec       q    Type
REMARK                         _______ _______ _______ _____ _____    ______ ____
ROOT
ATOM      1  C   UNL     1      -9.553  55.301  50.427  0.00  0.00    +0.000 A 
ATOM      2  C   UNL     1      -9.907  55.494  48.984  0.00  0.00    +0.000 A 
ATOM      3  C   UNL     1     -10.515  55.380  51.364  0.00  0.00    +0.000 A 
ATOM      4  O   UNL     1      -8.995  55.461  48.152  0.00  0.00    +0.000 OA
ATOM      5  N   UNL     1     -11.234  55.675  48.647  0.00  0.00    +0.000 N 
ATOM      6  C   UNL     1     -11.886  55.714  50.982  0.00  0.00    +0.000 A 
ATOM      7  C   UNL     1     -12.239  55.829  49.633  0.00  0.00    +0.000 A 
ATOM      8  C   UNL     1     -12.872  55.971  51.944  0.00  0.00    +0.000 A 
ATOM      9  N   UNL     1     -13.492  56.154  49.236  0.00  0.00    +0.000 NA
ATOM     10  C   UNL     1     -14.145  56.348  51.548  0.00  0.00    +0.000 A 
ATOM     11  C   UNL     1     -14.407  56.418  50.195  0.00  0.00    +0.000 A 
ENDROOT
BRANCH   1  17
ATOM     12  S   UNL     1      -5.926  53.806  50.269  0.00  0.00    +0.000 S 
ATOM     13  O   UNL     1      -5.056  54.567  49.395  0.00  0.00    +0.000 OA
ATOM     14  O   UNL     1      -5.890  52.359  50.259  0.00  0.00    +0.000 OA
ATOM     15  N   UNL     1      -7.451  54.265  49.965  0.00  0.00    +0.000 N 
ATOM     16  C   UNL     1      -5.527  54.291  51.903  0.00  0.00    +0.000 A 
ATOM     17  C   UNL     1      -8.122  54.982  50.812  0.00  0.00    +0.000 C 
ATOM     18  C   UNL     1      -6.449  55.059  52.599  0.00  0.00    +0.000 A 
ATOM     19  C   UNL     1      -4.311  53.895  52.466  0.00  0.00    +0.000 A 
ATOM     20  N   UNL     1      -7.651  55.455  52.019  0.00  0.00    +0.000 N 
ATOM     21  C   UNL     1      -6.105  55.496  53.881  0.00  0.00    +0.000 A 
ATOM     22  C   UNL     1      -3.998  54.311  53.756  0.00  0.00    +0.000 A 
ATOM     23  C   UNL     1      -4.891  55.118  54.459  0.00  0.00    +0.000 A 
ATOM     24  H   UNL     1      -7.877  53.993  49.120  0.00  0.00    +0.000 HD
ATOM     25  H   UNL     1      -8.200  56.115  52.501  0.00  0.00    +0.000 HD
ENDBRANCH   1  17
BRANCH   3  26
ATOM     26  O   UNL     1     -10.319  55.178  52.718  0.00  0.00    +0.000 OA
ATOM     27  H   UNL     1     -10.466  54.331  53.091  0.00  0.00    +0.000 HD
ENDBRANCH   3  26
BRANCH   5  28
ATOM     28  C   UNL     1     -11.613  55.728  47.232  0.00  0.00    +0.000 C 
BRANCH  28  29
ATOM     29  C   UNL     1     -11.771  54.339  46.641  0.00  0.00    +0.000 A 
ATOM     30  C   UNL     1     -12.115  53.252  47.455  0.00  0.00    +0.000 A 
ATOM     31  C   UNL     1     -11.496  54.104  45.284  0.00  0.00    +0.000 A 
ATOM     32  C   UNL     1     -12.125  51.955  46.939  0.00  0.00    +0.000 A 
ATOM     33  C   UNL     1     -11.496  52.806  44.771  0.00  0.00    +0.000 A 
ATOM     34  C   UNL     1     -11.793  51.729  45.604  0.00  0.00    +0.000 A 
ENDBRANCH  28  29
ENDBRANCH   5  28
TORSDOF 4
ENDMDL
MODEL 9
REMARK VINA RESULT:      -8.4      1.516      4.379
REMARK  Name = 302318
REMARK  4 active torsions:
REMARK  status: ('A' for Active; 'I' for Inactive)
REMARK    1  A    between atoms: C_6  and  C_10
REMARK    2  A    between atoms: C_14  and  O_18
REMARK    3  A    between atoms: N_17  and  C_21
REMARK    4  A    between atoms: C_21  and  C_24
REMARK                            x       y       z     vdW  Elec       q    Type
REMARK                         _______ _______ _______ _____ _____    ______ ____
ROOT
ATOM      1  C   UNL     1     -10.098  55.353  50.734  0.00  0.00    +0.000 A 
ATOM      2  C   UNL     1     -10.228  55.519  49.251  0.00  0.00    +0.000 A 
ATOM      3  C   UNL     1     -11.187  55.478  51.515  0.00  0.00    +0.000 A 
ATOM      4  O   UNL     1      -9.204  55.443  48.565  0.00  0.00    +0.000 OA
ATOM      5  N   UNL     1     -11.485  55.722  48.715  0.00  0.00    +0.000 N 
ATOM      6  C   UNL     1     -12.476  55.834  50.925  0.00  0.00    +0.000 A 
ATOM      7  C   UNL     1     -12.621  55.924  49.536  0.00  0.00    +0.000 A 
ATOM      8  C   UNL     1     -13.587  56.137  51.724  0.00  0.00    +0.000 A 
ATOM      9  N   UNL     1     -13.792  56.268  48.950  0.00  0.00    +0.000 NA
ATOM     10  C   UNL     1     -14.777  56.534  51.134  0.00  0.00    +0.000 A 
ATOM     11  C   UNL     1     -14.832  56.576  49.755  0.00  0.00    +0.000 A 
ENDROOT
BRANCH   1  17
ATOM     12  S   UNL     1      -7.088  55.263  53.253  0.00  0.00    +0.000 S 
ATOM     13  O   UNL     1      -7.317  54.345  54.350  0.00  0.00    +0.000 OA
ATOM     14  O   UNL     1      -6.489  56.559  53.496  0.00  0.00    +0.000 OA
ATOM     15  N   UNL     1      -8.508  55.506  52.510  0.00  0.00    +0.000 N 
ATOM     16  C   UNL     1      -6.023  54.437  52.136  0.00  0.00    +0.000 A 
ATOM     17  C   UNL     1      -8.750  55.011  51.335  0.00  0.00    +0.000 C 
ATOM     18  C   UNL     1      -6.549  54.019  50.922  0.00  0.00    +0.000 A 
ATOM     19  C   UNL     1      -4.686  54.226  52.480  0.00  0.00    +0.000 A 
ATOM     20  N   UNL     1      -7.888  54.226  50.599  0.00  0.00    +0.000 N 
ATOM     21  C   UNL     1      -5.715  53.306  50.055  0.00  0.00    +0.000 A 
ATOM     22  C   UNL     1      -3.860  53.545  51.592  0.00  0.00    +0.000 A 
ATOM     23  C   UNL     1      -4.377  53.078  50.385  0.00  0.00    +0.000 A 
ATOM     24  H   UNL     1      -9.202  56.041  52.959  0.00  0.00    +0.000 HD
ATOM     25  H   UNL     1      -8.240  53.784  49.793  0.00  0.00    +0.000 HD
ENDBRANCH   1  17
BRANCH   3  26
ATOM     26  O   UNL     1     -11.200  55.305  52.887  0.00  0.00    +0.000 OA
ATOM     27  H   UNL     1     -11.625  54.558  53.261  0.00  0.00    +0.000 HD
ENDBRANCH   3  26
BRANCH   5  28
ATOM     28  C   UNL     1     -11.647  55.749  47.259  0.00  0.00    +0.000 C 
BRANCH  28  29
ATOM     29  C   UNL     1     -11.681  54.350  46.671  0.00  0.00    +0.000 A 
ATOM     30  C   UNL     1     -11.350  54.133  45.328  0.00  0.00    +0.000 A 
ATOM     31  C   UNL     1     -12.124  53.262  47.440  0.00  0.00    +0.000 A 
ATOM     32  C   UNL     1     -11.514  52.871  44.751  0.00  0.00    +0.000 A 
ATOM     33  C   UNL     1     -12.298  52.004  46.862  0.00  0.00    +0.000 A 
ATOM     34  C   UNL     1     -12.011  51.813  45.512  0.00  0.00    +0.000 A 
ENDBRANCH  28  29
ENDBRANCH   5  28
TORSDOF 4
ENDMDL
