MODEL 1
REMARK VINA RESULT:      -7.3      0.000      0.000
REMARK  Name = 353080
REMARK  13 active torsions:
REMARK  status: ('A' for Active; 'I' for Inactive)
REMARK    1  A    between atoms: C_6  and  C_10
REMARK    2  A    between atoms: C_12  and  N_16
REMARK    3  A    between atoms: C_14  and  O_19
REMARK    4  A    between atoms: N_16  and  S_21
REMARK    5  A    between atoms: N_18  and  C_23
REMARK    6  A    between atoms: S_21  and  C_27
REMARK    7  A    between atoms: C_23  and  C_29
REMARK    8  A    between atoms: C_27  and  C_31
REMARK    9  A    between atoms: C_29  and  C_33
REMARK   10  A    between atoms: C_31  and  C_34
REMARK   11  A    between atoms: C_33  and  C_35
REMARK   12  A    between atoms: C_33  and  C_36
REMARK   13  A    between atoms: C_34  and  C_37
REMARK                            x       y       z     vdW  Elec       q    Type
REMARK                         _______ _______ _______ _____ _____    ______ ____
ROOT
ATOM      1  S   UNL     1     -10.977  54.923  50.574  0.00  0.00    +0.000 S 
ATOM      2  O   UNL     1      -9.906  55.803  50.982  0.00  0.00    +0.000 OA
ATOM      3  O   UNL     1     -11.888  54.326  51.525  0.00  0.00    +0.000 OA
ATOM      4  N   UNL     1     -10.317  53.686  49.700  0.00  0.00    +0.000 N 
ATOM      5  C   UNL     1     -11.922  55.742  49.359  0.00  0.00    +0.000 A 
ATOM      6  C   UNL     1      -9.972  53.828  48.359  0.00  0.00    +0.000 C 
ATOM      7  C   UNL     1     -11.574  55.520  48.029  0.00  0.00    +0.000 A 
ATOM      8  C   UNL     1     -12.988  56.568  49.722  0.00  0.00    +0.000 A 
ATOM      9  N   UNL     1     -10.513  54.721  47.591  0.00  0.00    +0.000 N 
ATOM     10  C   UNL     1     -12.331  56.147  47.038  0.00  0.00    +0.000 A 
ATOM     11  C   UNL     1     -13.720  57.188  48.712  0.00  0.00    +0.000 A 
ATOM     12  C   UNL     1     -13.395  56.982  47.374  0.00  0.00    +0.000 A 
ATOM     13  H   UNL     1     -10.162  52.820  50.142  0.00  0.00    +0.000 HD
ATOM     14  H   UNL     1     -10.168  54.840  46.676  0.00  0.00    +0.000 HD
ENDROOT
BRANCH   6  15
ATOM     15  C   UNL     1      -8.919  52.914  47.843  0.00  0.00    +0.000 A 
ATOM     16  C   UNL     1      -9.183  51.991  46.708  0.00  0.00    +0.000 A 
ATOM     17  C   UNL     1      -7.719  52.914  48.451  0.00  0.00    +0.000 A 
ATOM     18  O   UNL     1     -10.321  51.953  46.232  0.00  0.00    +0.000 OA
ATOM     19  N   UNL     1      -8.132  51.230  46.224  0.00  0.00    +0.000 N 
ATOM     20  C   UNL     1      -6.682  51.975  48.027  0.00  0.00    +0.000 A 
ATOM     21  C   UNL     1      -6.891  51.153  46.916  0.00  0.00    +0.000 A 
ATOM     22  C   UNL     1      -5.475  51.854  48.727  0.00  0.00    +0.000 A 
ATOM     23  N   UNL     1      -5.963  50.258  46.503  0.00  0.00    +0.000 NA
ATOM     24  C   UNL     1      -4.529  50.922  48.324  0.00  0.00    +0.000 A 
ATOM     25  C   UNL     1      -4.817  50.155  47.213  0.00  0.00    +0.000 A 
BRANCH  17  26
ATOM     26  O   UNL     1      -7.363  53.734  49.511  0.00  0.00    +0.000 OA
ATOM     27  H   UNL     1      -7.840  53.691  50.317  0.00  0.00    +0.000 HD
ENDBRANCH  17  26
BRANCH  19  28
ATOM     28  C   UNL     1      -8.373  50.316  45.103  0.00  0.00    +0.000 C 
BRANCH  28  29
ATOM     29  C   UNL     1      -7.793  50.775  43.753  0.00  0.00    +0.000 C 
BRANCH  29  30
ATOM     30  C   UNL     1      -8.748  51.571  42.847  0.00  0.00    +0.000 C 
ATOM     31  C   UNL     1     -10.197  51.104  42.978  0.00  0.00    +0.000 C 
ATOM     32  C   UNL     1      -8.654  53.060  43.197  0.00  0.00    +0.000 C 
ENDBRANCH  29  30
ENDBRANCH  28  29
ENDBRANCH  19  28
ENDBRANCH   6  15
BRANCH  11  33
ATOM     33  N   UNL     1     -14.761  58.108  49.013  0.00  0.00    +0.000 N 
ATOM     34  H   UNL     1     -15.708  57.887  48.856  0.00  0.00    +0.000 HD
BRANCH  33  35
ATOM     35  S   UNL     1     -14.289  59.606  49.653  0.00  0.00    +0.000 S 
ATOM     36  O   UNL     1     -12.862  59.490  49.869  0.00  0.00    +0.000 OA
ATOM     37  O   UNL     1     -14.852  60.677  48.861  0.00  0.00    +0.000 OA
BRANCH  35  38
ATOM     38  C   UNL     1     -15.097  59.567  51.253  0.00  0.00    +0.000 C 
BRANCH  38  39
ATOM     39  C   UNL     1     -14.176  58.961  52.305  0.00  0.00    +0.000 C 
BRANCH  39  40
ATOM     40  C   UNL     1     -14.900  57.944  53.184  0.00  0.00    +0.000 C 
ATOM     41  C   UNL     1     -15.631  56.915  52.334  0.00  0.00    +0.000 C 
ENDBRANCH  39  40
ENDBRANCH  38  39
ENDBRANCH  35  38
ENDBRANCH  33  35
ENDBRANCH  11  33
TORSDOF 10
ENDMDL
MODEL 2
REMARK VINA RESULT:      -7.0      1.894      4.013
REMARK  Name = 353080
REMARK  13 active torsions:
REMARK  status: ('A' for Active; 'I' for Inactive)
REMARK    1  A    between atoms: C_6  and  C_10
REMARK    2  A    between atoms: C_12  and  N_16
REMARK    3  A    between atoms: C_14  and  O_19
REMARK    4  A    between atoms: N_16  and  S_21
REMARK    5  A    between atoms: N_18  and  C_23
REMARK    6  A    between atoms: S_21  and  C_27
REMARK    7  A    between atoms: C_23  and  C_29
REMARK    8  A    between atoms: C_27  and  C_31
REMARK    9  A    between atoms: C_29  and  C_33
REMARK   10  A    between atoms: C_31  and  C_34
REMARK   11  A    between atoms: C_33  and  C_35
REMARK   12  A    between atoms: C_33  and  C_36
REMARK   13  A    between atoms: C_34  and  C_37
REMARK                            x       y       z     vdW  Elec       q    Type
REMARK                         _______ _______ _______ _____ _____    ______ ____
ROOT
ATOM      1  S   UNL     1     -11.549  53.509  50.934  0.00  0.00    +0.000 S 
ATOM      2  O   UNL     1     -10.359  54.167  51.425  0.00  0.00    +0.000 OA
ATOM      3  O   UNL     1     -12.300  52.574  51.742  0.00  0.00    +0.000 OA
ATOM      4  N   UNL     1     -11.159  52.727  49.532  0.00  0.00    +0.000 N 
ATOM      5  C   UNL     1     -12.649  54.732  50.357  0.00  0.00    +0.000 A 
ATOM      6  C   UNL     1     -11.070  53.393  48.313  0.00  0.00    +0.000 C 
ATOM      7  C   UNL     1     -12.581  55.060  49.005  0.00  0.00    +0.000 A 
ATOM      8  C   UNL     1     -13.565  55.334  51.224  0.00  0.00    +0.000 A 
ATOM      9  N   UNL     1     -11.684  54.511  48.083  0.00  0.00    +0.000 N 
ATOM     10  C   UNL     1     -13.468  56.019  48.515  0.00  0.00    +0.000 A 
ATOM     11  C   UNL     1     -14.431  56.295  50.709  0.00  0.00    +0.000 A 
ATOM     12  C   UNL     1     -14.385  56.640  49.360  0.00  0.00    +0.000 A 
ATOM     13  H   UNL     1     -10.984  51.759  49.559  0.00  0.00    +0.000 HD
ATOM     14  H   UNL     1     -11.514  54.987  47.238  0.00  0.00    +0.000 HD
ENDROOT
BRANCH   6  15
ATOM     15  C   UNL     1     -10.203  52.770  47.277  0.00  0.00    +0.000 A 
ATOM     16  C   UNL     1      -8.754  52.541  47.517  0.00  0.00    +0.000 A 
ATOM     17  C   UNL     1     -10.755  52.445  46.095  0.00  0.00    +0.000 A 
ATOM     18  O   UNL     1      -8.263  52.932  48.579  0.00  0.00    +0.000 OA
ATOM     19  N   UNL     1      -8.026  51.878  46.542  0.00  0.00    +0.000 N 
ATOM     20  C   UNL     1      -9.922  51.904  45.021  0.00  0.00    +0.000 A 
ATOM     21  C   UNL     1      -8.574  51.616  45.256  0.00  0.00    +0.000 A 
ATOM     22  C   UNL     1     -10.436  51.686  43.736  0.00  0.00    +0.000 A 
ATOM     23  N   UNL     1      -7.767  51.132  44.283  0.00  0.00    +0.000 NA
ATOM     24  C   UNL     1      -9.608  51.213  42.729  0.00  0.00    +0.000 A 
ATOM     25  C   UNL     1      -8.292  50.951  43.050  0.00  0.00    +0.000 A 
BRANCH  17  26
ATOM     26  O   UNL     1     -12.092  52.610  45.766  0.00  0.00    +0.000 OA
ATOM     27  H   UNL     1     -12.672  51.874  45.786  0.00  0.00    +0.000 HD
ENDBRANCH  17  26
BRANCH  19  28
ATOM     28  C   UNL     1      -6.597  51.640  46.762  0.00  0.00    +0.000 C 
BRANCH  28  29
ATOM     29  C   UNL     1      -6.262  50.342  47.519  0.00  0.00    +0.000 C 
BRANCH  29  30
ATOM     30  C   UNL     1      -5.097  50.430  48.521  0.00  0.00    +0.000 C 
ATOM     31  C   UNL     1      -4.034  51.438  48.087  0.00  0.00    +0.000 C 
ATOM     32  C   UNL     1      -5.644  50.819  49.899  0.00  0.00    +0.000 C 
ENDBRANCH  29  30
ENDBRANCH  28  29
ENDBRANCH  19  28
ENDBRANCH   6  15
BRANCH  11  33
ATOM     33  N   UNL     1     -15.327  57.008  51.551  0.00  0.00    +0.000 N 
ATOM     34  H   UNL     1     -16.303  56.956  51.431  0.00  0.00    +0.000 HD
BRANCH  33  35
ATOM     35  S   UNL     1     -14.629  57.957  52.772  0.00  0.00    +0.000 S 
ATOM     36  O   UNL     1     -15.717  58.265  53.676  0.00  0.00    +0.000 OA
ATOM     37  O   UNL     1     -13.409  57.337  53.237  0.00  0.00    +0.000 OA
BRANCH  35  38
ATOM     38  C   UNL     1     -14.225  59.447  51.861  0.00  0.00    +0.000 C 
BRANCH  38  39
ATOM     39  C   UNL     1     -15.238  59.687  50.748  0.00  0.00    +0.000 C 
BRANCH  39  40
ATOM     40  C   UNL     1     -14.594  60.307  49.511  0.00  0.00    +0.000 C 
ATOM     41  C   UNL     1     -13.089  60.442  49.693  0.00  0.00    +0.000 C 
ENDBRANCH  39  40
ENDBRANCH  38  39
ENDBRANCH  35  38
ENDBRANCH  33  35
ENDBRANCH  11  33
TORSDOF 10
ENDMDL
MODEL 3
REMARK VINA RESULT:      -7.0      1.018      3.317
REMARK  Name = 353080
REMARK  13 active torsions:
REMARK  status: ('A' for Active; 'I' for Inactive)
REMARK    1  A    between atoms: C_6  and  C_10
REMARK    2  A    between atoms: C_12  and  N_16
REMARK    3  A    between atoms: C_14  and  O_19
REMARK    4  A    between atoms: N_16  and  S_21
REMARK    5  A    between atoms: N_18  and  C_23
REMARK    6  A    between atoms: S_21  and  C_27
REMARK    7  A    between atoms: C_23  and  C_29
REMARK    8  A    between atoms: C_27  and  C_31
REMARK    9  A    between atoms: C_29  and  C_33
REMARK   10  A    between atoms: C_31  and  C_34
REMARK   11  A    between atoms: C_33  and  C_35
REMARK   12  A    between atoms: C_33  and  C_36
REMARK   13  A    between atoms: C_34  and  C_37
REMARK                            x       y       z     vdW  Elec       q    Type
REMARK                         _______ _______ _______ _____ _____    ______ ____
ROOT
ATOM      1  S   UNL     1     -11.444  54.338  50.215  0.00  0.00    +0.000 S 
ATOM      2  O   UNL     1     -10.299  55.042  50.744  0.00  0.00    +0.000 OA
ATOM      3  O   UNL     1     -12.436  53.729  51.072  0.00  0.00    +0.000 OA
ATOM      4  N   UNL     1     -10.893  53.154  49.202  0.00  0.00    +0.000 N 
ATOM      5  C   UNL     1     -12.267  55.395  49.100  0.00  0.00    +0.000 A 
ATOM      6  C   UNL     1     -10.501  53.422  47.895  0.00  0.00    +0.000 C 
ATOM      7  C   UNL     1     -11.910  55.303  47.757  0.00  0.00    +0.000 A 
ATOM      8  C   UNL     1     -13.252  56.278  49.549  0.00  0.00    +0.000 A 
ATOM      9  N   UNL     1     -10.926  54.455  47.237  0.00  0.00    +0.000 N 
ATOM     10  C   UNL     1     -12.571  56.123  46.842  0.00  0.00    +0.000 A 
ATOM     11  C   UNL     1     -13.889  57.091  48.615  0.00  0.00    +0.000 A 
ATOM     12  C   UNL     1     -13.552  57.018  47.265  0.00  0.00    +0.000 A 
ATOM     13  H   UNL     1     -10.840  52.229  49.535  0.00  0.00    +0.000 HD
ATOM     14  H   UNL     1     -10.547  54.648  46.349  0.00  0.00    +0.000 HD
ENDROOT
BRANCH   6  15
ATOM     15  C   UNL     1      -9.534  52.472  47.282  0.00  0.00    +0.000 A 
ATOM     16  C   UNL     1      -8.236  52.160  47.936  0.00  0.00    +0.000 A 
ATOM     17  C   UNL     1      -9.847  51.919  46.097  0.00  0.00    +0.000 A 
ATOM     18  O   UNL     1      -7.943  52.754  48.977  0.00  0.00    +0.000 OA
ATOM     19  N   UNL     1      -7.423  51.201  47.353  0.00  0.00    +0.000 N 
ATOM     20  C   UNL     1      -8.891  51.041  45.423  0.00  0.00    +0.000 A 
ATOM     21  C   UNL     1      -7.699  50.682  46.058  0.00  0.00    +0.000 A 
ATOM     22  C   UNL     1      -9.127  50.561  44.128  0.00  0.00    +0.000 A 
ATOM     23  N   UNL     1      -6.781  49.887  45.459  0.00  0.00    +0.000 NA
ATOM     24  C   UNL     1      -8.180  49.765  43.500  0.00  0.00    +0.000 A 
ATOM     25  C   UNL     1      -7.033  49.457  44.203  0.00  0.00    +0.000 A 
BRANCH  17  26
ATOM     26  O   UNL     1     -11.028  52.133  45.404  0.00  0.00    +0.000 OA
ATOM     27  H   UNL     1     -11.271  51.559  44.704  0.00  0.00    +0.000 HD
ENDBRANCH  17  26
BRANCH  19  28
ATOM     28  C   UNL     1      -6.140  50.879  47.985  0.00  0.00    +0.000 C 
BRANCH  28  29
ATOM     29  C   UNL     1      -4.991  51.850  47.658  0.00  0.00    +0.000 C 
BRANCH  29  30
ATOM     30  C   UNL     1      -4.322  52.530  48.866  0.00  0.00    +0.000 C 
ATOM     31  C   UNL     1      -4.650  54.020  48.947  0.00  0.00    +0.000 C 
ATOM     32  C   UNL     1      -4.774  51.832  50.153  0.00  0.00    +0.000 C 
ENDBRANCH  29  30
ENDBRANCH  28  29
ENDBRANCH  19  28
ENDBRANCH   6  15
BRANCH  11  33
ATOM     33  N   UNL     1     -14.836  58.073  49.014  0.00  0.00    +0.000 N 
ATOM     34  H   UNL     1     -15.806  57.917  48.938  0.00  0.00    +0.000 HD
BRANCH  33  35
ATOM     35  S   UNL     1     -14.213  59.527  49.625  0.00  0.00    +0.000 S 
ATOM     36  O   UNL     1     -12.791  59.294  49.770  0.00  0.00    +0.000 OA
ATOM     37  O   UNL     1     -14.725  60.640  48.858  0.00  0.00    +0.000 OA
BRANCH  35  38
ATOM     38  C   UNL     1     -14.941  59.552  51.263  0.00  0.00    +0.000 C 
BRANCH  38  39
ATOM     39  C   UNL     1     -14.049  58.818  52.258  0.00  0.00    +0.000 C 
BRANCH  39  40
ATOM     40  C   UNL     1     -14.848  57.878  53.158  0.00  0.00    +0.000 C 
ATOM     41  C   UNL     1     -15.653  56.888  52.330  0.00  0.00    +0.000 C 
ENDBRANCH  39  40
ENDBRANCH  38  39
ENDBRANCH  35  38
ENDBRANCH  33  35
ENDBRANCH  11  33
TORSDOF 10
ENDMDL
MODEL 4
REMARK VINA RESULT:      -6.9      3.063      5.221
REMARK  Name = 353080
REMARK  13 active torsions:
REMARK  status: ('A' for Active; 'I' for Inactive)
REMARK    1  A    between atoms: C_6  and  C_10
REMARK    2  A    between atoms: C_12  and  N_16
REMARK    3  A    between atoms: C_14  and  O_19
REMARK    4  A    between atoms: N_16  and  S_21
REMARK    5  A    between atoms: N_18  and  C_23
REMARK    6  A    between atoms: S_21  and  C_27
REMARK    7  A    between atoms: C_23  and  C_29
REMARK    8  A    between atoms: C_27  and  C_31
REMARK    9  A    between atoms: C_29  and  C_33
REMARK   10  A    between atoms: C_31  and  C_34
REMARK   11  A    between atoms: C_33  and  C_35
REMARK   12  A    between atoms: C_33  and  C_36
REMARK   13  A    between atoms: C_34  and  C_37
REMARK                            x       y       z     vdW  Elec       q    Type
REMARK                         _______ _______ _______ _____ _____    ______ ____
ROOT
ATOM      1  S   UNL     1     -10.102  54.494  47.535  0.00  0.00    +0.000 S 
ATOM      2  O   UNL     1     -10.671  53.196  47.253  0.00  0.00    +0.000 OA
ATOM      3  O   UNL     1      -9.976  55.516  46.520  0.00  0.00    +0.000 OA
ATOM      4  N   UNL     1      -8.596  54.264  48.174  0.00  0.00    +0.000 N 
ATOM      5  C   UNL     1     -10.955  55.180  48.892  0.00  0.00    +0.000 A 
ATOM      6  C   UNL     1      -8.402  53.930  49.511  0.00  0.00    +0.000 C 
ATOM      7  C   UNL     1     -10.421  54.953  50.158  0.00  0.00    +0.000 A 
ATOM      8  C   UNL     1     -12.114  55.936  48.697  0.00  0.00    +0.000 A 
ATOM      9  N   UNL     1      -9.276  54.197  50.430  0.00  0.00    +0.000 N 
ATOM     10  C   UNL     1     -11.073  55.512  51.257  0.00  0.00    +0.000 A 
ATOM     11  C   UNL     1     -12.749  56.474  49.813  0.00  0.00    +0.000 A 
ATOM     12  C   UNL     1     -12.235  56.264  51.091  0.00  0.00    +0.000 A 
ATOM     13  H   UNL     1      -7.810  54.366  47.590  0.00  0.00    +0.000 HD
ATOM     14  H   UNL     1      -9.131  53.858  51.343  0.00  0.00    +0.000 HD
ENDROOT
BRANCH   6  15
ATOM     15  C   UNL     1      -7.139  53.218  49.842  0.00  0.00    +0.000 A 
ATOM     16  C   UNL     1      -6.076  53.865  50.655  0.00  0.00    +0.000 A 
ATOM     17  C   UNL     1      -6.961  51.976  49.357  0.00  0.00    +0.000 A 
ATOM     18  O   UNL     1      -6.235  55.036  51.007  0.00  0.00    +0.000 OA
ATOM     19  N   UNL     1      -4.964  53.112  50.997  0.00  0.00    +0.000 N 
ATOM     20  C   UNL     1      -5.701  51.271  49.592  0.00  0.00    +0.000 A 
ATOM     21  C   UNL     1      -4.723  51.837  50.415  0.00  0.00    +0.000 A 
ATOM     22  C   UNL     1      -5.431  50.037  48.987  0.00  0.00    +0.000 A 
ATOM     23  N   UNL     1      -3.537  51.224  50.642  0.00  0.00    +0.000 NA
ATOM     24  C   UNL     1      -4.208  49.415  49.196  0.00  0.00    +0.000 A 
ATOM     25  C   UNL     1      -3.302  50.043  50.027  0.00  0.00    +0.000 A 
BRANCH  17  26
ATOM     26  O   UNL     1      -7.885  51.277  48.595  0.00  0.00    +0.000 OA
ATOM     27  H   UNL     1      -7.710  51.104  47.690  0.00  0.00    +0.000 HD
ENDBRANCH  17  26
BRANCH  19  28
ATOM     28  C   UNL     1      -3.907  53.732  51.801  0.00  0.00    +0.000 C 
BRANCH  28  29
ATOM     29  C   UNL     1      -4.124  53.666  53.324  0.00  0.00    +0.000 C 
BRANCH  29  30
ATOM     30  C   UNL     1      -4.749  54.916  53.969  0.00  0.00    +0.000 C 
ATOM     31  C   UNL     1      -5.867  54.566  54.949  0.00  0.00    +0.000 C 
ATOM     32  C   UNL     1      -3.657  55.710  54.695  0.00  0.00    +0.000 C 
ENDBRANCH  29  30
ENDBRANCH  28  29
ENDBRANCH  19  28
ENDBRANCH   6  15
BRANCH  11  33
ATOM     33  N   UNL     1     -13.978  57.179  49.696  0.00  0.00    +0.000 N 
ATOM     34  H   UNL     1     -14.845  56.732  49.826  0.00  0.00    +0.000 HD
BRANCH  33  35
ATOM     35  S   UNL     1     -13.874  58.829  49.318  0.00  0.00    +0.000 S 
ATOM     36  O   UNL     1     -12.482  59.173  49.518  0.00  0.00    +0.000 OA
ATOM     37  O   UNL     1     -14.547  59.088  48.065  0.00  0.00    +0.000 OA
BRANCH  35  38
ATOM     38  C   UNL     1     -14.821  59.550  50.658  0.00  0.00    +0.000 C 
BRANCH  38  39
ATOM     39  C   UNL     1     -14.281  59.087  52.006  0.00  0.00    +0.000 C 
BRANCH  39  40
ATOM     40  C   UNL     1     -15.386  58.547  52.911  0.00  0.00    +0.000 C 
ATOM     41  C   UNL     1     -15.438  57.027  52.853  0.00  0.00    +0.000 C 
ENDBRANCH  39  40
ENDBRANCH  38  39
ENDBRANCH  35  38
ENDBRANCH  33  35
ENDBRANCH  11  33
TORSDOF 10
ENDMDL
MODEL 5
REMARK VINA RESULT:      -6.8      2.084      2.562
REMARK  Name = 353080
REMARK  13 active torsions:
REMARK  status: ('A' for Active; 'I' for Inactive)
REMARK    1  A    between atoms: C_6  and  C_10
REMARK    2  A    between atoms: C_12  and  N_16
REMARK    3  A    between atoms: C_14  and  O_19
REMARK    4  A    between atoms: N_16  and  S_21
REMARK    5  A    between atoms: N_18  and  C_23
REMARK    6  A    between atoms: S_21  and  C_27
REMARK    7  A    between atoms: C_23  and  C_29
REMARK    8  A    between atoms: C_27  and  C_31
REMARK    9  A    between atoms: C_29  and  C_33
REMARK   10  A    between atoms: C_31  and  C_34
REMARK   11  A    between atoms: C_33  and  C_35
REMARK   12  A    between atoms: C_33  and  C_36
REMARK   13  A    between atoms: C_34  and  C_37
REMARK                            x       y       z     vdW  Elec       q    Type
REMARK                         _______ _______ _______ _____ _____    ______ ____
ROOT
ATOM      1  S   UNL     1      -9.625  53.655  52.412  0.00  0.00    +0.000 S 
ATOM      2  O   UNL     1      -8.496  54.415  52.897  0.00  0.00    +0.000 OA
ATOM      3  O   UNL     1     -10.427  52.826  53.284  0.00  0.00    +0.000 OA
ATOM      4  N   UNL     1      -9.099  52.687  51.181  0.00  0.00    +0.000 N 
ATOM      5  C   UNL     1     -10.694  54.743  51.567  0.00  0.00    +0.000 A 
ATOM      6  C   UNL     1      -8.915  53.168  49.888  0.00  0.00    +0.000 C 
ATOM      7  C   UNL     1     -10.513  54.870  50.192  0.00  0.00    +0.000 A 
ATOM      8  C   UNL     1     -11.693  55.437  52.254  0.00  0.00    +0.000 A 
ATOM      9  N   UNL     1      -9.528  54.220  49.442  0.00  0.00    +0.000 N 
ATOM     10  C   UNL     1     -11.371  55.718  49.491  0.00  0.00    +0.000 A 
ATOM     11  C   UNL     1     -12.529  56.284  51.530  0.00  0.00    +0.000 A 
ATOM     12  C   UNL     1     -12.370  56.427  50.153  0.00  0.00    +0.000 A 
ATOM     13  H   UNL     1      -8.909  51.739  51.367  0.00  0.00    +0.000 HD
ATOM     14  H   UNL     1      -9.293  54.570  48.552  0.00  0.00    +0.000 HD
ENDROOT
BRANCH   6  15
ATOM     15  C   UNL     1      -7.949  52.427  49.034  0.00  0.00    +0.000 A 
ATOM     16  C   UNL     1      -8.403  51.634  47.861  0.00  0.00    +0.000 A 
ATOM     17  C   UNL     1      -6.647  52.461  49.367  0.00  0.00    +0.000 A 
ATOM     18  O   UNL     1      -9.614  51.552  47.638  0.00  0.00    +0.000 OA
ATOM     19  N   UNL     1      -7.441  51.040  47.061  0.00  0.00    +0.000 N 
ATOM     20  C   UNL     1      -5.674  51.682  48.601  0.00  0.00    +0.000 A 
ATOM     21  C   UNL     1      -6.075  50.990  47.454  0.00  0.00    +0.000 A 
ATOM     22  C   UNL     1      -4.336  51.585  49.003  0.00  0.00    +0.000 A 
ATOM     23  N   UNL     1      -5.209  50.244  46.729  0.00  0.00    +0.000 NA
ATOM     24  C   UNL     1      -3.449  50.802  48.279  0.00  0.00    +0.000 A 
ATOM     25  C   UNL     1      -3.929  50.158  47.157  0.00  0.00    +0.000 A 
BRANCH  17  26
ATOM     26  O   UNL     1      -6.114  53.169  50.432  0.00  0.00    +0.000 OA
ATOM     27  H   UNL     1      -6.025  54.101  50.377  0.00  0.00    +0.000 HD
ENDBRANCH  17  26
BRANCH  19  28
ATOM     28  C   UNL     1      -7.870  50.257  45.898  0.00  0.00    +0.000 C 
BRANCH  28  29
ATOM     29  C   UNL     1      -7.854  51.017  44.559  0.00  0.00    +0.000 C 
BRANCH  29  30
ATOM     30  C   UNL     1      -9.036  51.971  44.314  0.00  0.00    +0.000 C 
ATOM     31  C   UNL     1      -8.638  53.438  44.465  0.00  0.00    +0.000 C 
ATOM     32  C   UNL     1      -9.595  51.731  42.907  0.00  0.00    +0.000 C 
ENDBRANCH  29  30
ENDBRANCH  28  29
ENDBRANCH  19  28
ENDBRANCH   6  15
BRANCH  11  33
ATOM     33  N   UNL     1     -13.508  57.085  52.177  0.00  0.00    +0.000 N 
ATOM     34  H   UNL     1     -13.267  57.727  52.884  0.00  0.00    +0.000 HD
BRANCH  33  35
ATOM     35  S   UNL     1     -15.114  56.879  51.670  0.00  0.00    +0.000 S 
ATOM     36  O   UNL     1     -15.070  55.789  50.718  0.00  0.00    +0.000 OA
ATOM     37  O   UNL     1     -15.990  56.847  52.820  0.00  0.00    +0.000 OA
BRANCH  35  38
ATOM     38  C   UNL     1     -15.386  58.400  50.761  0.00  0.00    +0.000 C 
BRANCH  38  39
ATOM     39  C   UNL     1     -14.382  59.465  51.184  0.00  0.00    +0.000 C 
BRANCH  39  40
ATOM     40  C   UNL     1     -13.599  60.018  49.996  0.00  0.00    +0.000 C 
ATOM     41  C   UNL     1     -14.531  60.683  48.994  0.00  0.00    +0.000 C 
ENDBRANCH  39  40
ENDBRANCH  38  39
ENDBRANCH  35  38
ENDBRANCH  33  35
ENDBRANCH  11  33
TORSDOF 10
ENDMDL
MODEL 6
REMARK VINA RESULT:      -6.7      2.997      5.059
REMARK  Name = 353080
REMARK  13 active torsions:
REMARK  status: ('A' for Active; 'I' for Inactive)
REMARK    1  A    between atoms: C_6  and  C_10
REMARK    2  A    between atoms: C_12  and  N_16
REMARK    3  A    between atoms: C_14  and  O_19
REMARK    4  A    between atoms: N_16  and  S_21
REMARK    5  A    between atoms: N_18  and  C_23
REMARK    6  A    between atoms: S_21  and  C_27
REMARK    7  A    between atoms: C_23  and  C_29
REMARK    8  A    between atoms: C_27  and  C_31
REMARK    9  A    between atoms: C_29  and  C_33
REMARK   10  A    between atoms: C_31  and  C_34
REMARK   11  A    between atoms: C_33  and  C_35
REMARK   12  A    between atoms: C_33  and  C_36
REMARK   13  A    between atoms: C_34  and  C_37
REMARK                            x       y       z     vdW  Elec       q    Type
REMARK                         _______ _______ _______ _____ _____    ______ ____
ROOT
ATOM      1  S   UNL     1     -11.785  52.370  49.937  0.00  0.00    +0.000 S 
ATOM      2  O   UNL     1     -11.904  52.039  51.339  0.00  0.00    +0.000 OA
ATOM      3  O   UNL     1     -12.628  51.766  48.929  0.00  0.00    +0.000 OA
ATOM      4  N   UNL     1     -10.221  52.100  49.479  0.00  0.00    +0.000 N 
ATOM      5  C   UNL     1     -11.902  54.102  49.773  0.00  0.00    +0.000 A 
ATOM      6  C   UNL     1      -9.204  53.013  49.742  0.00  0.00    +0.000 C 
ATOM      7  C   UNL     1     -10.710  54.822  49.782  0.00  0.00    +0.000 A 
ATOM      8  C   UNL     1     -13.145  54.721  49.623  0.00  0.00    +0.000 A 
ATOM      9  N   UNL     1      -9.433  54.273  49.943  0.00  0.00    +0.000 N 
ATOM     10  C   UNL     1     -10.777  56.207  49.630  0.00  0.00    +0.000 A 
ATOM     11  C   UNL     1     -13.182  56.106  49.482  0.00  0.00    +0.000 A 
ATOM     12  C   UNL     1     -12.004  56.850  49.486  0.00  0.00    +0.000 A 
ATOM     13  H   UNL     1     -10.000  51.266  49.005  0.00  0.00    +0.000 HD
ATOM     14  H   UNL     1      -8.690  54.859  50.215  0.00  0.00    +0.000 HD
ENDROOT
BRANCH   6  15
ATOM     15  C   UNL     1      -7.822  52.468  49.811  0.00  0.00    +0.000 A 
ATOM     16  C   UNL     1      -7.026  52.533  51.065  0.00  0.00    +0.000 A 
ATOM     17  C   UNL     1      -7.289  51.938  48.696  0.00  0.00    +0.000 A 
ATOM     18  O   UNL     1      -7.514  53.106  52.043  0.00  0.00    +0.000 OA
ATOM     19  N   UNL     1      -5.780  51.929  51.082  0.00  0.00    +0.000 N 
ATOM     20  C   UNL     1      -5.905  51.463  48.700  0.00  0.00    +0.000 A 
ATOM     21  C   UNL     1      -5.170  51.452  49.889  0.00  0.00    +0.000 A 
ATOM     22  C   UNL     1      -5.276  51.035  47.523  0.00  0.00    +0.000 A 
ATOM     23  N   UNL     1      -3.882  51.037  49.929  0.00  0.00    +0.000 NA
ATOM     24  C   UNL     1      -3.949  50.632  47.553  0.00  0.00    +0.000 A 
ATOM     25  C   UNL     1      -3.301  50.648  48.771  0.00  0.00    +0.000 A 
BRANCH  17  26
ATOM     26  O   UNL     1      -7.940  51.821  47.478  0.00  0.00    +0.000 OA
ATOM     27  H   UNL     1      -8.740  52.287  47.328  0.00  0.00    +0.000 HD
ENDBRANCH  17  26
BRANCH  19  28
ATOM     28  C   UNL     1      -4.982  51.981  52.311  0.00  0.00    +0.000 C 
BRANCH  28  29
ATOM     29  C   UNL     1      -4.403  53.365  52.653  0.00  0.00    +0.000 C 
BRANCH  29  30
ATOM     30  C   UNL     1      -4.792  53.935  54.028  0.00  0.00    +0.000 C 
ATOM     31  C   UNL     1      -5.459  55.305  53.920  0.00  0.00    +0.000 C 
ATOM     32  C   UNL     1      -5.739  52.956  54.732  0.00  0.00    +0.000 C 
ENDBRANCH  29  30
ENDBRANCH  28  29
ENDBRANCH  19  28
ENDBRANCH   6  15
BRANCH  11  33
ATOM     33  N   UNL     1     -14.416  56.809  49.412  0.00  0.00    +0.000 N 
ATOM     34  H   UNL     1     -14.782  57.128  48.556  0.00  0.00    +0.000 HD
BRANCH  33  35
ATOM     35  S   UNL     1     -15.224  57.072  50.880  0.00  0.00    +0.000 S 
ATOM     36  O   UNL     1     -16.541  56.502  50.691  0.00  0.00    +0.000 OA
ATOM     37  O   UNL     1     -14.377  56.675  51.984  0.00  0.00    +0.000 OA
BRANCH  35  38
ATOM     38  C   UNL     1     -15.385  58.857  50.870  0.00  0.00    +0.000 C 
BRANCH  38  39
ATOM     39  C   UNL     1     -14.044  59.518  51.167  0.00  0.00    +0.000 C 
BRANCH  39  40
ATOM     40  C   UNL     1     -13.504  60.285  49.963  0.00  0.00    +0.000 C 
ATOM     41  C   UNL     1     -14.629  60.661  49.010  0.00  0.00    +0.000 C 
ENDBRANCH  39  40
ENDBRANCH  38  39
ENDBRANCH  35  38
ENDBRANCH  33  35
ENDBRANCH  11  33
TORSDOF 10
ENDMDL
MODEL 7
REMARK VINA RESULT:      -6.3      3.639      8.816
REMARK  Name = 353080
REMARK  13 active torsions:
REMARK  status: ('A' for Active; 'I' for Inactive)
REMARK    1  A    between atoms: C_6  and  C_10
REMARK    2  A    between atoms: C_12  and  N_16
REMARK    3  A    between atoms: C_14  and  O_19
REMARK    4  A    between atoms: N_16  and  S_21
REMARK    5  A    between atoms: N_18  and  C_23
REMARK    6  A    between atoms: S_21  and  C_27
REMARK    7  A    between atoms: C_23  and  C_29
REMARK    8  A    between atoms: C_27  and  C_31
REMARK    9  A    between atoms: C_29  and  C_33
REMARK   10  A    between atoms: C_31  and  C_34
REMARK   11  A    between atoms: C_33  and  C_35
REMARK   12  A    between atoms: C_33  and  C_36
REMARK   13  A    between atoms: C_34  and  C_37
REMARK                            x       y       z     vdW  Elec       q    Type
REMARK                         _______ _______ _______ _____ _____    ______ ____
ROOT
ATOM      1  S   UNL     1     -10.275  52.177  52.939  0.00  0.00    +0.000 S 
ATOM      2  O   UNL     1     -10.499  51.069  52.039  0.00  0.00    +0.000 OA
ATOM      3  O   UNL     1     -10.725  52.155  54.313  0.00  0.00    +0.000 OA
ATOM      4  N   UNL     1     -10.912  53.535  52.248  0.00  0.00    +0.000 N 
ATOM      5  C   UNL     1      -8.572  52.549  52.933  0.00  0.00    +0.000 A 
ATOM      6  C   UNL     1     -10.239  54.250  51.261  0.00  0.00    +0.000 C 
ATOM      7  C   UNL     1      -8.138  53.522  52.036  0.00  0.00    +0.000 A 
ATOM      8  C   UNL     1      -7.697  51.902  53.809  0.00  0.00    +0.000 A 
ATOM      9  N   UNL     1      -8.951  54.201  51.122  0.00  0.00    +0.000 N 
ATOM     10  C   UNL     1      -6.783  53.854  52.029  0.00  0.00    +0.000 A 
ATOM     11  C   UNL     1      -6.348  52.246  53.773  0.00  0.00    +0.000 A 
ATOM     12  C   UNL     1      -5.888  53.217  52.887  0.00  0.00    +0.000 A 
ATOM     13  H   UNL     1     -11.798  53.850  52.542  0.00  0.00    +0.000 HD
ATOM     14  H   UNL     1      -8.534  54.652  50.352  0.00  0.00    +0.000 HD
ENDROOT
BRANCH   6  15
ATOM     15  C   UNL     1     -11.077  55.065  50.342  0.00  0.00    +0.000 A 
ATOM     16  C   UNL     1     -10.835  55.071  48.875  0.00  0.00    +0.000 A 
ATOM     17  C   UNL     1     -12.047  55.831  50.873  0.00  0.00    +0.000 A 
ATOM     18  O   UNL     1      -9.880  54.426  48.433  0.00  0.00    +0.000 OA
ATOM     19  N   UNL     1     -11.707  55.785  48.071  0.00  0.00    +0.000 N 
ATOM     20  C   UNL     1     -12.841  56.707  50.012  0.00  0.00    +0.000 A 
ATOM     21  C   UNL     1     -12.673  56.669  48.625  0.00  0.00    +0.000 A 
ATOM     22  C   UNL     1     -13.762  57.617  50.548  0.00  0.00    +0.000 A 
ATOM     23  N   UNL     1     -13.377  57.478  47.798  0.00  0.00    +0.000 NA
ATOM     24  C   UNL     1     -14.467  58.466  49.707  0.00  0.00    +0.000 A 
ATOM     25  C   UNL     1     -14.243  58.357  48.350  0.00  0.00    +0.000 A 
BRANCH  17  26
ATOM     26  O   UNL     1     -12.362  55.898  52.221  0.00  0.00    +0.000 OA
ATOM     27  H   UNL     1     -13.256  55.990  52.489  0.00  0.00    +0.000 HD
ENDBRANCH  17  26
BRANCH  19  28
ATOM     28  C   UNL     1     -11.486  55.799  46.621  0.00  0.00    +0.000 C 
BRANCH  28  29
ATOM     29  C   UNL     1     -12.147  54.642  45.851  0.00  0.00    +0.000 C 
BRANCH  29  30
ATOM     30  C   UNL     1     -11.313  53.354  45.729  0.00  0.00    +0.000 C 
ATOM     31  C   UNL     1     -12.073  52.237  45.015  0.00  0.00    +0.000 C 
ATOM     32  C   UNL     1     -10.016  53.660  44.972  0.00  0.00    +0.000 C 
ENDBRANCH  29  30
ENDBRANCH  28  29
ENDBRANCH  19  28
ENDBRANCH   6  15
BRANCH  11  33
ATOM     33  N   UNL     1      -5.391  51.566  54.574  0.00  0.00    +0.000 N 
ATOM     34  H   UNL     1      -5.538  51.409  55.535  0.00  0.00    +0.000 HD
BRANCH  33  35
ATOM     35  S   UNL     1      -3.980  51.041  53.791  0.00  0.00    +0.000 S 
ATOM     36  O   UNL     1      -3.300  52.254  53.390  0.00  0.00    +0.000 OA
ATOM     37  O   UNL     1      -3.323  50.032  54.591  0.00  0.00    +0.000 OA
BRANCH  35  38
ATOM     38  C   UNL     1      -4.667  50.278  52.322  0.00  0.00    +0.000 C 
BRANCH  38  39
ATOM     39  C   UNL     1      -3.758  50.511  51.121  0.00  0.00    +0.000 C 
BRANCH  39  40
ATOM     40  C   UNL     1      -4.505  51.144  49.950  0.00  0.00    +0.000 C 
ATOM     41  C   UNL     1      -5.991  50.823  50.018  0.00  0.00    +0.000 C 
ENDBRANCH  39  40
ENDBRANCH  38  39
ENDBRANCH  35  38
ENDBRANCH  33  35
ENDBRANCH  11  33
TORSDOF 10
ENDMDL
MODEL 8
REMARK VINA RESULT:      -6.2      2.723      3.867
REMARK  Name = 353080
REMARK  13 active torsions:
REMARK  status: ('A' for Active; 'I' for Inactive)
REMARK    1  A    between atoms: C_6  and  C_10
REMARK    2  A    between atoms: C_12  and  N_16
REMARK    3  A    between atoms: C_14  and  O_19
REMARK    4  A    between atoms: N_16  and  S_21
REMARK    5  A    between atoms: N_18  and  C_23
REMARK    6  A    between atoms: S_21  and  C_27
REMARK    7  A    between atoms: C_23  and  C_29
REMARK    8  A    between atoms: C_27  and  C_31
REMARK    9  A    between atoms: C_29  and  C_33
REMARK   10  A    between atoms: C_31  and  C_34
REMARK   11  A    between atoms: C_33  and  C_35
REMARK   12  A    between atoms: C_33  and  C_36
REMARK   13  A    between atoms: C_34  and  C_37
REMARK                            x       y       z     vdW  Elec       q    Type
REMARK                         _______ _______ _______ _____ _____    ______ ____
ROOT
ATOM      1  S   UNL     1     -11.147  53.400  51.891  0.00  0.00    +0.000 S 
ATOM      2  O   UNL     1     -10.745  54.339  52.912  0.00  0.00    +0.000 OA
ATOM      3  O   UNL     1     -12.330  52.579  52.022  0.00  0.00    +0.000 OA
ATOM      4  N   UNL     1      -9.881  52.375  51.610  0.00  0.00    +0.000 N 
ATOM      5  C   UNL     1     -11.246  54.254  50.374  0.00  0.00    +0.000 A 
ATOM      6  C   UNL     1      -8.804  52.733  50.805  0.00  0.00    +0.000 C 
ATOM      7  C   UNL     1     -10.110  54.252  49.569  0.00  0.00    +0.000 A 
ATOM      8  C   UNL     1     -12.428  54.892  49.991  0.00  0.00    +0.000 A 
ATOM      9  N   UNL     1      -8.890  53.649  49.891  0.00  0.00    +0.000 N 
ATOM     10  C   UNL     1     -10.173  54.909  48.340  0.00  0.00    +0.000 A 
ATOM     11  C   UNL     1     -12.460  55.548  48.763  0.00  0.00    +0.000 A 
ATOM     12  C   UNL     1     -11.337  55.560  47.938  0.00  0.00    +0.000 A 
ATOM     13  H   UNL     1      -9.888  51.483  52.027  0.00  0.00    +0.000 HD
ATOM     14  H   UNL     1      -8.075  53.927  49.413  0.00  0.00    +0.000 HD
ENDROOT
BRANCH   6  15
ATOM     15  C   UNL     1      -7.520  52.026  51.060  0.00  0.00    +0.000 A 
ATOM     16  C   UNL     1      -6.982  51.029  50.098  0.00  0.00    +0.000 A 
ATOM     17  C   UNL     1      -6.866  52.285  52.206  0.00  0.00    +0.000 A 
ATOM     18  O   UNL     1      -7.653  50.751  49.100  0.00  0.00    +0.000 OA
ATOM     19  N   UNL     1      -5.740  50.473  50.357  0.00  0.00    +0.000 N 
ATOM     20  C   UNL     1      -5.642  51.553  52.532  0.00  0.00    +0.000 A 
ATOM     21  C   UNL     1      -5.086  50.667  51.605  0.00  0.00    +0.000 A 
ATOM     22  C   UNL     1      -5.014  51.697  53.776  0.00  0.00    +0.000 A 
ATOM     23  N   UNL     1      -3.965  49.958  51.877  0.00  0.00    +0.000 NA
ATOM     24  C   UNL     1      -3.879  50.956  54.070  0.00  0.00    +0.000 A 
ATOM     25  C   UNL     1      -3.395  50.108  53.094  0.00  0.00    +0.000 A 
BRANCH  17  26
ATOM     26  O   UNL     1      -7.273  53.195  53.168  0.00  0.00    +0.000 OA
ATOM     27  H   UNL     1      -6.663  53.823  53.506  0.00  0.00    +0.000 HD
ENDBRANCH  17  26
BRANCH  19  28
ATOM     28  C   UNL     1      -5.191  49.490  49.417  0.00  0.00    +0.000 C 
BRANCH  28  29
ATOM     29  C   UNL     1      -3.977  49.974  48.605  0.00  0.00    +0.000 C 
BRANCH  29  30
ATOM     30  C   UNL     1      -4.297  50.720  47.297  0.00  0.00    +0.000 C 
ATOM     31  C   UNL     1      -5.564  50.194  46.625  0.00  0.00    +0.000 C 
ATOM     32  C   UNL     1      -4.455  52.216  47.594  0.00  0.00    +0.000 C 
ENDBRANCH  29  30
ENDBRANCH  28  29
ENDBRANCH  19  28
ENDBRANCH   6  15
BRANCH  11  33
ATOM     33  N   UNL     1     -13.600  56.290  48.351  0.00  0.00    +0.000 N 
ATOM     34  H   UNL     1     -14.281  55.904  47.754  0.00  0.00    +0.000 HD
BRANCH  33  35
ATOM     35  S   UNL     1     -13.726  57.877  48.938  0.00  0.00    +0.000 S 
ATOM     36  O   UNL     1     -12.433  58.165  49.522  0.00  0.00    +0.000 OA
ATOM     37  O   UNL     1     -14.308  58.729  47.925  0.00  0.00    +0.000 OA
BRANCH  35  38
ATOM     38  C   UNL     1     -14.902  57.658  50.273  0.00  0.00    +0.000 C 
BRANCH  38  39
ATOM     39  C   UNL     1     -15.043  58.942  51.080  0.00  0.00    +0.000 C 
BRANCH  39  40
ATOM     40  C   UNL     1     -14.825  58.709  52.573  0.00  0.00    +0.000 C 
ATOM     41  C   UNL     1     -13.954  57.483  52.808  0.00  0.00    +0.000 C 
ENDBRANCH  39  40
ENDBRANCH  38  39
ENDBRANCH  35  38
ENDBRANCH  33  35
ENDBRANCH  11  33
TORSDOF 10
ENDMDL
MODEL 9
REMARK VINA RESULT:      -6.1      4.100      9.388
REMARK  Name = 353080
REMARK  13 active torsions:
REMARK  status: ('A' for Active; 'I' for Inactive)
REMARK    1  A    between atoms: C_6  and  C_10
REMARK    2  A    between atoms: C_12  and  N_16
REMARK    3  A    between atoms: C_14  and  O_19
REMARK    4  A    between atoms: N_16  and  S_21
REMARK    5  A    between atoms: N_18  and  C_23
REMARK    6  A    between atoms: S_21  and  C_27
REMARK    7  A    between atoms: C_23  and  C_29
REMARK    8  A    between atoms: C_27  and  C_31
REMARK    9  A    between atoms: C_29  and  C_33
REMARK   10  A    between atoms: C_31  and  C_34
REMARK   11  A    between atoms: C_33  and  C_35
REMARK   12  A    between atoms: C_33  and  C_36
REMARK   13  A    between atoms: C_34  and  C_37
REMARK                            x       y       z     vdW  Elec       q    Type
REMARK                         _______ _______ _______ _____ _____    ______ ____
ROOT
ATOM      1  S   UNL     1      -7.689  55.358  49.882  0.00  0.00    +0.000 S 
ATOM      2  O   UNL     1      -7.233  56.270  50.906  0.00  0.00    +0.000 OA
ATOM      3  O   UNL     1      -7.104  55.330  48.560  0.00  0.00    +0.000 OA
ATOM      4  N   UNL     1      -9.314  55.582  49.684  0.00  0.00    +0.000 N 
ATOM      5  C   UNL     1      -7.638  53.740  50.531  0.00  0.00    +0.000 A 
ATOM      6  C   UNL     1     -10.250  55.022  50.548  0.00  0.00    +0.000 C 
ATOM      7  C   UNL     1      -8.802  53.257  51.122  0.00  0.00    +0.000 A 
ATOM      8  C   UNL     1      -6.476  52.971  50.437  0.00  0.00    +0.000 A 
ATOM      9  N   UNL     1      -9.996  53.972  51.264  0.00  0.00    +0.000 N 
ATOM     10  C   UNL     1      -8.792  51.956  51.628  0.00  0.00    +0.000 A 
ATOM     11  C   UNL     1      -6.492  51.680  50.959  0.00  0.00    +0.000 A 
ATOM     12  C   UNL     1      -7.644  51.171  51.554  0.00  0.00    +0.000 A 
ATOM     13  H   UNL     1      -9.630  56.131  48.931  0.00  0.00    +0.000 HD
ATOM     14  H   UNL     1     -10.660  53.671  51.926  0.00  0.00    +0.000 HD
ENDROOT
BRANCH   6  15
ATOM     15  C   UNL     1     -11.567  55.706  50.635  0.00  0.00    +0.000 A 
ATOM     16  C   UNL     1     -12.280  56.170  49.416  0.00  0.00    +0.000 A 
ATOM     17  C   UNL     1     -12.091  55.929  51.854  0.00  0.00    +0.000 A 
ATOM     18  O   UNL     1     -11.729  56.028  48.321  0.00  0.00    +0.000 OA
ATOM     19  N   UNL     1     -13.542  56.722  49.566  0.00  0.00    +0.000 N 
ATOM     20  C   UNL     1     -13.345  56.669  51.987  0.00  0.00    +0.000 A 
ATOM     21  C   UNL     1     -14.062  57.047  50.849  0.00  0.00    +0.000 A 
ATOM     22  C   UNL     1     -13.845  57.038  53.243  0.00  0.00    +0.000 A 
ATOM     23  N   UNL     1     -15.218  57.749  50.932  0.00  0.00    +0.000 NA
ATOM     24  C   UNL     1     -15.015  57.778  53.334  0.00  0.00    +0.000 A 
ATOM     25  C   UNL     1     -15.661  58.104  52.159  0.00  0.00    +0.000 A 
BRANCH  17  26
ATOM     26  O   UNL     1     -11.516  55.537  53.052  0.00  0.00    +0.000 OA
ATOM     27  H   UNL     1     -11.760  54.720  53.443  0.00  0.00    +0.000 HD
ENDBRANCH  17  26
BRANCH  19  28
ATOM     28  C   UNL     1     -14.262  57.182  48.375  0.00  0.00    +0.000 C 
BRANCH  28  29
ATOM     29  C   UNL     1     -13.977  58.637  47.963  0.00  0.00    +0.000 C 
BRANCH  29  30
ATOM     30  C   UNL     1     -14.164  59.696  49.064  0.00  0.00    +0.000 C 
ATOM     31  C   UNL     1     -12.832  60.195  49.621  0.00  0.00    +0.000 C 
ATOM     32  C   UNL     1     -14.961  60.878  48.500  0.00  0.00    +0.000 C 
ENDBRANCH  29  30
ENDBRANCH  28  29
ENDBRANCH  19  28
ENDBRANCH   6  15
BRANCH  11  33
ATOM     33  N   UNL     1      -5.320  50.875  50.975  0.00  0.00    +0.000 N 
ATOM     34  H   UNL     1      -5.227  50.084  50.396  0.00  0.00    +0.000 HD
BRANCH  33  35
ATOM     35  S   UNL     1      -4.091  51.345  52.046  0.00  0.00    +0.000 S 
ATOM     36  O   UNL     1      -3.309  50.147  52.268  0.00  0.00    +0.000 OA
ATOM     37  O   UNL     1      -3.483  52.573  51.585  0.00  0.00    +0.000 OA
BRANCH  35  38
ATOM     38  C   UNL     1      -5.036  51.674  53.533  0.00  0.00    +0.000 C 
BRANCH  38  39
ATOM     39  C   UNL     1      -5.058  53.167  53.835  0.00  0.00    +0.000 C 
BRANCH  39  40
ATOM     40  C   UNL     1      -6.226  53.552  54.741  0.00  0.00    +0.000 C 
ATOM     41  C   UNL     1      -6.889  54.832  54.256  0.00  0.00    +0.000 C 
ENDBRANCH  39  40
ENDBRANCH  38  39
ENDBRANCH  35  38
ENDBRANCH  33  35
ENDBRANCH  11  33
TORSDOF 10
ENDMDL
