MODEL 1
REMARK VINA RESULT:      -8.2      0.000      0.000
REMARK  Name = 352769
REMARK  10 active torsions:
REMARK  status: ('A' for Active; 'I' for Inactive)
REMARK    1  A    between atoms: C_6  and  C_10
REMARK    2  A    between atoms: C_12  and  O_16
REMARK    3  A    between atoms: C_14  and  O_19
REMARK    4  A    between atoms: O_16  and  C_21
REMARK    5  A    between atoms: N_18  and  C_23
REMARK    6  A    between atoms: C_21  and  C_25
REMARK    7  A    between atoms: C_23  and  C_27
REMARK    8  A    between atoms: C_27  and  C_32
REMARK    9  A    between atoms: C_32  and  C_33
REMARK   10  A    between atoms: C_32  and  C_34
REMARK                            x       y       z     vdW  Elec       q    Type
REMARK                         _______ _______ _______ _____ _____    ______ ____
ROOT
ATOM      1  S   UNL     1     -11.711  55.218  49.526  0.00  0.00    +0.000 S 
ATOM      2  O   UNL     1     -12.553  54.192  48.944  0.00  0.00    +0.000 OA
ATOM      3  O   UNL     1     -10.951  56.113  48.674  0.00  0.00    +0.000 OA
ATOM      4  N   UNL     1     -10.678  54.496  50.540  0.00  0.00    +0.000 N 
ATOM      5  C   UNL     1     -12.776  56.242  50.468  0.00  0.00    +0.000 A 
ATOM      6  C   UNL     1     -10.793  54.631  51.828  0.00  0.00    +0.000 C 
ATOM      7  C   UNL     1     -12.677  56.188  51.848  0.00  0.00    +0.000 A 
ATOM      8  C   UNL     1     -13.682  57.084  49.817  0.00  0.00    +0.000 A 
ATOM      9  N   UNL     1     -11.782  55.329  52.480  0.00  0.00    +0.000 N 
ATOM     10  C   UNL     1     -13.551  56.966  52.607  0.00  0.00    +0.000 A 
ATOM     11  C   UNL     1     -14.544  57.857  50.586  0.00  0.00    +0.000 A 
ATOM     12  C   UNL     1     -14.467  57.808  51.978  0.00  0.00    +0.000 A 
ATOM     13  H   UNL     1      -9.950  53.943  50.175  0.00  0.00    +0.000 HD
ATOM     14  H   UNL     1     -11.864  55.212  53.453  0.00  0.00    +0.000 HD
ENDROOT
BRANCH   6  15
ATOM     15  C   UNL     1      -9.711  53.984  52.665  0.00  0.00    +0.000 A 
ATOM     16  C   UNL     1      -8.319  54.533  52.619  0.00  0.00    +0.000 A 
ATOM     17  C   UNL     1      -9.994  52.938  53.461  0.00  0.00    +0.000 A 
ATOM     18  O   UNL     1      -8.112  55.558  51.963  0.00  0.00    +0.000 OA
ATOM     19  N   UNL     1      -7.331  53.875  53.318  0.00  0.00    +0.000 N 
ATOM     20  C   UNL     1      -8.924  52.274  54.208  0.00  0.00    +0.000 A 
ATOM     21  C   UNL     1      -7.605  52.727  54.105  0.00  0.00    +0.000 A 
ATOM     22  C   UNL     1      -9.172  51.148  55.002  0.00  0.00    +0.000 A 
ATOM     23  N   UNL     1      -6.573  52.114  54.731  0.00  0.00    +0.000 NA
ATOM     24  C   UNL     1      -8.121  50.508  55.645  0.00  0.00    +0.000 A 
ATOM     25  C   UNL     1      -6.850  51.022  55.477  0.00  0.00    +0.000 A 
BRANCH  17  26
ATOM     26  O   UNL     1     -11.253  52.388  53.628  0.00  0.00    +0.000 OA
ATOM     27  H   UNL     1     -11.817  52.280  52.889  0.00  0.00    +0.000 HD
ENDBRANCH  17  26
BRANCH  19  28
ATOM     28  C   UNL     1      -5.943  54.336  53.218  0.00  0.00    +0.000 C 
BRANCH  28  29
ATOM     29  C   UNL     1      -5.257  53.803  51.954  0.00  0.00    +0.000 C 
BRANCH  29  30
ATOM     30  C   UNL     1      -3.745  53.549  52.110  0.00  0.00    +0.000 C 
ATOM     31  C   UNL     1      -3.300  53.499  53.572  0.00  0.00    +0.000 C 
ATOM     32  C   UNL     1      -3.373  52.232  51.421  0.00  0.00    +0.000 C 
ENDBRANCH  29  30
ENDBRANCH  28  29
ENDBRANCH  19  28
ENDBRANCH   6  15
BRANCH  11  33
ATOM     33  O   UNL     1     -15.482  58.711  50.087  0.00  0.00    +0.000 OA
BRANCH  33  34
ATOM     34  C   UNL     1     -15.279  60.094  50.390  0.00  0.00    +0.000 C 
BRANCH  34  35
ATOM     35  C   UNL     1     -14.325  60.705  49.369  0.00  0.00    +0.000 C 
ATOM     36  O   UNL     1     -13.116  60.797  49.552  0.00  0.00    +0.000 OA
ATOM     37  N   UNL     1     -14.895  61.133  48.205  0.00  0.00    +0.000 N 
ATOM     38  H   UNL     1     -15.868  61.051  48.074  0.00  0.00    +0.000 HD
ATOM     39  H   UNL     1     -14.335  61.522  47.496  0.00  0.00    +0.000 HD
ENDBRANCH  34  35
ENDBRANCH  33  34
ENDBRANCH  11  33
TORSDOF 8
ENDMDL
MODEL 2
REMARK VINA RESULT:      -7.2      4.609      6.130
REMARK  Name = 352769
REMARK  10 active torsions:
REMARK  status: ('A' for Active; 'I' for Inactive)
REMARK    1  A    between atoms: C_6  and  C_10
REMARK    2  A    between atoms: C_12  and  O_16
REMARK    3  A    between atoms: C_14  and  O_19
REMARK    4  A    between atoms: O_16  and  C_21
REMARK    5  A    between atoms: N_18  and  C_23
REMARK    6  A    between atoms: C_21  and  C_25
REMARK    7  A    between atoms: C_23  and  C_27
REMARK    8  A    between atoms: C_27  and  C_32
REMARK    9  A    between atoms: C_32  and  C_33
REMARK   10  A    between atoms: C_32  and  C_34
REMARK                            x       y       z     vdW  Elec       q    Type
REMARK                         _______ _______ _______ _____ _____    ______ ____
ROOT
ATOM      1  S   UNL     1     -11.648  54.771  50.681  0.00  0.00    +0.000 S 
ATOM      2  O   UNL     1     -10.710  55.480  51.529  0.00  0.00    +0.000 OA
ATOM      3  O   UNL     1     -12.553  53.791  51.250  0.00  0.00    +0.000 OA
ATOM      4  N   UNL     1     -10.805  54.049  49.504  0.00  0.00    +0.000 N 
ATOM      5  C   UNL     1     -12.665  55.998  49.952  0.00  0.00    +0.000 A 
ATOM      6  C   UNL     1     -10.862  54.474  48.277  0.00  0.00    +0.000 C 
ATOM      7  C   UNL     1     -12.515  56.246  48.598  0.00  0.00    +0.000 A 
ATOM      8  C   UNL     1     -13.596  56.682  50.738  0.00  0.00    +0.000 A 
ATOM      9  N   UNL     1     -11.568  55.568  47.835  0.00  0.00    +0.000 N 
ATOM     10  C   UNL     1     -13.288  57.251  48.019  0.00  0.00    +0.000 A 
ATOM     11  C   UNL     1     -14.363  57.679  50.146  0.00  0.00    +0.000 A 
ATOM     12  C   UNL     1     -14.218  57.952  48.786  0.00  0.00    +0.000 A 
ATOM     13  H   UNL     1     -10.238  53.275  49.722  0.00  0.00    +0.000 HD
ATOM     14  H   UNL     1     -11.393  55.893  46.923  0.00  0.00    +0.000 HD
ENDROOT
BRANCH   6  15
ATOM     15  C   UNL     1     -10.102  53.659  47.253  0.00  0.00    +0.000 A 
ATOM     16  C   UNL     1      -8.745  53.128  47.597  0.00  0.00    +0.000 A 
ATOM     17  C   UNL     1     -10.642  53.392  46.051  0.00  0.00    +0.000 A 
ATOM     18  O   UNL     1      -8.320  53.297  48.744  0.00  0.00    +0.000 OA
ATOM     19  N   UNL     1      -8.034  52.465  46.621  0.00  0.00    +0.000 N 
ATOM     20  C   UNL     1      -9.867  52.667  45.043  0.00  0.00    +0.000 A 
ATOM     21  C   UNL     1      -8.566  52.241  45.326  0.00  0.00    +0.000 A 
ATOM     22  C   UNL     1     -10.376  52.420  43.763  0.00  0.00    +0.000 A 
ATOM     23  N   UNL     1      -7.789  51.615  44.410  0.00  0.00    +0.000 NA
ATOM     24  C   UNL     1      -9.587  51.785  42.813  0.00  0.00    +0.000 A 
ATOM     25  C   UNL     1      -8.310  51.408  43.181  0.00  0.00    +0.000 A 
BRANCH  17  26
ATOM     26  O   UNL     1     -11.908  53.780  45.649  0.00  0.00    +0.000 OA
ATOM     27  H   UNL     1     -12.033  54.174  44.809  0.00  0.00    +0.000 HD
ENDBRANCH  17  26
BRANCH  19  28
ATOM     28  C   UNL     1      -6.667  52.014  46.901  0.00  0.00    +0.000 C 
BRANCH  28  29
ATOM     29  C   UNL     1      -5.690  53.192  47.002  0.00  0.00    +0.000 C 
BRANCH  29  30
ATOM     30  C   UNL     1      -4.737  53.126  48.211  0.00  0.00    +0.000 C 
ATOM     31  C   UNL     1      -4.815  54.371  49.096  0.00  0.00    +0.000 C 
ATOM     32  C   UNL     1      -5.060  51.886  49.051  0.00  0.00    +0.000 C 
ENDBRANCH  29  30
ENDBRANCH  28  29
ENDBRANCH  19  28
ENDBRANCH   6  15
BRANCH  11  33
ATOM     33  O   UNL     1     -15.298  58.432  50.791  0.00  0.00    +0.000 OA
BRANCH  33  34
ATOM     34  C   UNL     1     -14.790  59.325  51.786  0.00  0.00    +0.000 C 
BRANCH  34  35
ATOM     35  C   UNL     1     -15.288  58.893  53.161  0.00  0.00    +0.000 C 
ATOM     36  O   UNL     1     -15.276  57.728  53.544  0.00  0.00    +0.000 OA
ATOM     37  N   UNL     1     -15.739  59.895  53.972  0.00  0.00    +0.000 N 
ATOM     38  H   UNL     1     -15.741  60.826  53.649  0.00  0.00    +0.000 HD
ATOM     39  H   UNL     1     -16.059  59.688  54.879  0.00  0.00    +0.000 HD
ENDBRANCH  34  35
ENDBRANCH  33  34
ENDBRANCH  11  33
TORSDOF 8
ENDMDL
MODEL 3
REMARK VINA RESULT:      -7.1      2.750      3.935
REMARK  Name = 352769
REMARK  10 active torsions:
REMARK  status: ('A' for Active; 'I' for Inactive)
REMARK    1  A    between atoms: C_6  and  C_10
REMARK    2  A    between atoms: C_12  and  O_16
REMARK    3  A    between atoms: C_14  and  O_19
REMARK    4  A    between atoms: O_16  and  C_21
REMARK    5  A    between atoms: N_18  and  C_23
REMARK    6  A    between atoms: C_21  and  C_25
REMARK    7  A    between atoms: C_23  and  C_27
REMARK    8  A    between atoms: C_27  and  C_32
REMARK    9  A    between atoms: C_32  and  C_33
REMARK   10  A    between atoms: C_32  and  C_34
REMARK                            x       y       z     vdW  Elec       q    Type
REMARK                         _______ _______ _______ _____ _____    ______ ____
ROOT
ATOM      1  S   UNL     1     -11.346  54.585  47.823  0.00  0.00    +0.000 S 
ATOM      2  O   UNL     1     -12.223  53.523  47.373  0.00  0.00    +0.000 OA
ATOM      3  O   UNL     1     -11.143  55.764  47.003  0.00  0.00    +0.000 OA
ATOM      4  N   UNL     1      -9.896  53.935  48.131  0.00  0.00    +0.000 N 
ATOM      5  C   UNL     1     -12.019  55.161  49.335  0.00  0.00    +0.000 A 
ATOM      6  C   UNL     1      -9.461  53.806  49.349  0.00  0.00    +0.000 C 
ATOM      7  C   UNL     1     -11.329  54.880  50.502  0.00  0.00    +0.000 A 
ATOM      8  C   UNL     1     -13.213  55.887  49.329  0.00  0.00    +0.000 A 
ATOM      9  N   UNL     1     -10.152  54.138  50.491  0.00  0.00    +0.000 N 
ATOM     10  C   UNL     1     -11.881  55.295  51.714  0.00  0.00    +0.000 A 
ATOM     11  C   UNL     1     -13.748  56.299  50.544  0.00  0.00    +0.000 A 
ATOM     12  C   UNL     1     -13.075  56.015  51.732  0.00  0.00    +0.000 A 
ATOM     13  H   UNL     1      -9.335  53.632  47.382  0.00  0.00    +0.000 HD
ATOM     14  H   UNL     1      -9.792  53.831  51.354  0.00  0.00    +0.000 HD
ENDROOT
BRANCH   6  15
ATOM     15  C   UNL     1      -8.054  53.270  49.501  0.00  0.00    +0.000 A 
ATOM     16  C   UNL     1      -7.089  53.986  50.394  0.00  0.00    +0.000 A 
ATOM     17  C   UNL     1      -7.672  52.152  48.859  0.00  0.00    +0.000 A 
ATOM     18  O   UNL     1      -7.497  54.947  51.052  0.00  0.00    +0.000 OA
ATOM     19  N   UNL     1      -5.788  53.535  50.448  0.00  0.00    +0.000 N 
ATOM     20  C   UNL     1      -6.287  51.688  48.956  0.00  0.00    +0.000 A 
ATOM     21  C   UNL     1      -5.357  52.398  49.720  0.00  0.00    +0.000 A 
ATOM     22  C   UNL     1      -5.841  50.560  48.257  0.00  0.00    +0.000 A 
ATOM     23  N   UNL     1      -4.052  52.041  49.796  0.00  0.00    +0.000 NA
ATOM     24  C   UNL     1      -4.505  50.187  48.323  0.00  0.00    +0.000 A 
ATOM     25  C   UNL     1      -3.656  50.955  49.096  0.00  0.00    +0.000 A 
BRANCH  17  26
ATOM     26  O   UNL     1      -8.495  51.379  48.059  0.00  0.00    +0.000 OA
ATOM     27  H   UNL     1      -8.397  50.448  48.049  0.00  0.00    +0.000 HD
ENDBRANCH  17  26
BRANCH  19  28
ATOM     28  C   UNL     1      -4.799  54.271  51.243  0.00  0.00    +0.000 C 
BRANCH  28  29
ATOM     29  C   UNL     1      -4.774  53.793  52.701  0.00  0.00    +0.000 C 
BRANCH  29  30
ATOM     30  C   UNL     1      -5.093  54.889  53.735  0.00  0.00    +0.000 C 
ATOM     31  C   UNL     1      -6.033  54.406  54.840  0.00  0.00    +0.000 C 
ATOM     32  C   UNL     1      -3.790  55.395  54.364  0.00  0.00    +0.000 C 
ENDBRANCH  29  30
ENDBRANCH  28  29
ENDBRANCH  19  28
ENDBRANCH   6  15
BRANCH  11  33
ATOM     33  O   UNL     1     -14.907  57.002  50.689  0.00  0.00    +0.000 OA
BRANCH  33  34
ATOM     34  C   UNL     1     -15.246  57.362  52.030  0.00  0.00    +0.000 C 
BRANCH  34  35
ATOM     35  C   UNL     1     -15.063  58.864  52.217  0.00  0.00    +0.000 C 
ATOM     36  O   UNL     1     -14.734  59.619  51.309  0.00  0.00    +0.000 OA
ATOM     37  N   UNL     1     -15.313  59.341  53.472  0.00  0.00    +0.000 N 
ATOM     38  H   UNL     1     -15.577  58.721  54.191  0.00  0.00    +0.000 HD
ATOM     39  H   UNL     1     -15.231  60.304  53.659  0.00  0.00    +0.000 HD
ENDBRANCH  34  35
ENDBRANCH  33  34
ENDBRANCH  11  33
TORSDOF 8
ENDMDL
MODEL 4
REMARK VINA RESULT:      -7.1      3.575      5.352
REMARK  Name = 352769
REMARK  10 active torsions:
REMARK  status: ('A' for Active; 'I' for Inactive)
REMARK    1  A    between atoms: C_6  and  C_10
REMARK    2  A    between atoms: C_12  and  O_16
REMARK    3  A    between atoms: C_14  and  O_19
REMARK    4  A    between atoms: O_16  and  C_21
REMARK    5  A    between atoms: N_18  and  C_23
REMARK    6  A    between atoms: C_21  and  C_25
REMARK    7  A    between atoms: C_23  and  C_27
REMARK    8  A    between atoms: C_27  and  C_32
REMARK    9  A    between atoms: C_32  and  C_33
REMARK   10  A    between atoms: C_32  and  C_34
REMARK                            x       y       z     vdW  Elec       q    Type
REMARK                         _______ _______ _______ _____ _____    ______ ____
ROOT
ATOM      1  S   UNL     1     -13.408  59.030  49.313  0.00  0.00    +0.000 S 
ATOM      2  O   UNL     1     -14.506  59.009  48.367  0.00  0.00    +0.000 OA
ATOM      3  O   UNL     1     -12.651  60.248  49.530  0.00  0.00    +0.000 OA
ATOM      4  N   UNL     1     -12.369  57.864  48.891  0.00  0.00    +0.000 N 
ATOM      5  C   UNL     1     -14.100  58.611  50.867  0.00  0.00    +0.000 A 
ATOM      6  C   UNL     1     -12.242  56.785  49.605  0.00  0.00    +0.000 C 
ATOM      7  C   UNL     1     -13.784  57.375  51.406  0.00  0.00    +0.000 A 
ATOM      8  C   UNL     1     -14.934  59.521  51.522  0.00  0.00    +0.000 A 
ATOM      9  N   UNL     1     -12.967  56.473  50.731  0.00  0.00    +0.000 N 
ATOM     10  C   UNL     1     -14.365  57.014  52.622  0.00  0.00    +0.000 A 
ATOM     11  C   UNL     1     -15.502  59.149  52.735  0.00  0.00    +0.000 A 
ATOM     12  C   UNL     1     -15.207  57.904  53.289  0.00  0.00    +0.000 A 
ATOM     13  H   UNL     1     -11.823  57.973  48.080  0.00  0.00    +0.000 HD
ATOM     14  H   UNL     1     -12.906  55.555  51.080  0.00  0.00    +0.000 HD
ENDROOT
BRANCH   6  15
ATOM     15  C   UNL     1     -11.171  55.812  49.159  0.00  0.00    +0.000 A 
ATOM     16  C   UNL     1     -10.262  55.202  50.180  0.00  0.00    +0.000 A 
ATOM     17  C   UNL     1     -11.044  55.479  47.862  0.00  0.00    +0.000 A 
ATOM     18  O   UNL     1     -10.469  55.444  51.372  0.00  0.00    +0.000 OA
ATOM     19  N   UNL     1      -9.237  54.391  49.744  0.00  0.00    +0.000 N 
ATOM     20  C   UNL     1      -9.957  54.596  47.435  0.00  0.00    +0.000 A 
ATOM     21  C   UNL     1      -9.051  54.089  48.371  0.00  0.00    +0.000 A 
ATOM     22  C   UNL     1      -9.761  54.273  46.087  0.00  0.00    +0.000 A 
ATOM     23  N   UNL     1      -7.997  53.315  48.019  0.00  0.00    +0.000 NA
ATOM     24  C   UNL     1      -8.681  53.484  45.713  0.00  0.00    +0.000 A 
ATOM     25  C   UNL     1      -7.833  53.036  46.708  0.00  0.00    +0.000 A 
BRANCH  17  26
ATOM     26  O   UNL     1     -11.865  55.933  46.845  0.00  0.00    +0.000 OA
ATOM     27  H   UNL     1     -11.571  55.900  45.957  0.00  0.00    +0.000 HD
ENDBRANCH  17  26
BRANCH  19  28
ATOM     28  C   UNL     1      -8.277  53.853  50.713  0.00  0.00    +0.000 C 
BRANCH  28  29
ATOM     29  C   UNL     1      -7.295  54.929  51.196  0.00  0.00    +0.000 C 
BRANCH  29  30
ATOM     30  C   UNL     1      -6.712  54.674  52.599  0.00  0.00    +0.000 C 
ATOM     31  C   UNL     1      -5.223  54.330  52.568  0.00  0.00    +0.000 C 
ATOM     32  C   UNL     1      -6.929  55.912  53.476  0.00  0.00    +0.000 C 
ENDBRANCH  29  30
ENDBRANCH  28  29
ENDBRANCH  19  28
ENDBRANCH   6  15
BRANCH  11  33
ATOM     33  O   UNL     1     -16.341  59.929  53.476  0.00  0.00    +0.000 OA
BRANCH  33  34
ATOM     34  C   UNL     1     -16.103  59.921  54.885  0.00  0.00    +0.000 C 
BRANCH  34  35
ATOM     35  C   UNL     1     -17.105  60.840  55.576  0.00  0.00    +0.000 C 
ATOM     36  O   UNL     1     -17.589  61.830  55.039  0.00  0.00    +0.000 OA
ATOM     37  N   UNL     1     -17.462  60.482  56.845  0.00  0.00    +0.000 N 
ATOM     38  H   UNL     1     -17.064  59.683  57.262  0.00  0.00    +0.000 HD
ATOM     39  H   UNL     1     -18.118  61.022  57.343  0.00  0.00    +0.000 HD
ENDBRANCH  34  35
ENDBRANCH  33  34
ENDBRANCH  11  33
TORSDOF 8
ENDMDL
MODEL 5
REMARK VINA RESULT:      -7.1      4.838      6.210
REMARK  Name = 352769
REMARK  10 active torsions:
REMARK  status: ('A' for Active; 'I' for Inactive)
REMARK    1  A    between atoms: C_6  and  C_10
REMARK    2  A    between atoms: C_12  and  O_16
REMARK    3  A    between atoms: C_14  and  O_19
REMARK    4  A    between atoms: O_16  and  C_21
REMARK    5  A    between atoms: N_18  and  C_23
REMARK    6  A    between atoms: C_21  and  C_25
REMARK    7  A    between atoms: C_23  and  C_27
REMARK    8  A    between atoms: C_27  and  C_32
REMARK    9  A    between atoms: C_32  and  C_33
REMARK   10  A    between atoms: C_32  and  C_34
REMARK                            x       y       z     vdW  Elec       q    Type
REMARK                         _______ _______ _______ _____ _____    ______ ____
ROOT
ATOM      1  S   UNL     1     -11.362  54.554  50.322  0.00  0.00    +0.000 S 
ATOM      2  O   UNL     1     -10.391  55.368  51.024  0.00  0.00    +0.000 OA
ATOM      3  O   UNL     1     -12.227  53.649  51.055  0.00  0.00    +0.000 OA
ATOM      4  N   UNL     1     -10.572  53.693  49.202  0.00  0.00    +0.000 N 
ATOM      5  C   UNL     1     -12.428  55.674  49.498  0.00  0.00    +0.000 A 
ATOM      6  C   UNL     1     -10.695  53.961  47.936  0.00  0.00    +0.000 C 
ATOM      7  C   UNL     1     -12.350  55.750  48.118  0.00  0.00    +0.000 A 
ATOM      8  C   UNL     1     -13.326  56.447  50.240  0.00  0.00    +0.000 A 
ATOM      9  N   UNL     1     -11.436  54.987  47.398  0.00  0.00    +0.000 N 
ATOM     10  C   UNL     1     -13.163  56.672  47.458  0.00  0.00    +0.000 A 
ATOM     11  C   UNL     1     -14.133  57.358  49.567  0.00  0.00    +0.000 A 
ATOM     12  C   UNL     1     -14.061  57.458  48.178  0.00  0.00    +0.000 A 
ATOM     13  H   UNL     1      -9.986  52.955  49.485  0.00  0.00    +0.000 HD
ATOM     14  H   UNL     1     -11.311  55.196  46.444  0.00  0.00    +0.000 HD
ENDROOT
BRANCH   6  15
ATOM     15  C   UNL     1      -9.980  53.027  46.984  0.00  0.00    +0.000 A 
ATOM     16  C   UNL     1      -8.640  52.476  47.364  0.00  0.00    +0.000 A 
ATOM     17  C   UNL     1     -10.543  52.674  45.816  0.00  0.00    +0.000 A 
ATOM     18  O   UNL     1      -8.196  52.731  48.487  0.00  0.00    +0.000 OA
ATOM     19  N   UNL     1      -7.966  51.701  46.447  0.00  0.00    +0.000 N 
ATOM     20  C   UNL     1      -9.808  51.830  44.872  0.00  0.00    +0.000 A 
ATOM     21  C   UNL     1      -8.521  51.381  45.182  0.00  0.00    +0.000 A 
ATOM     22  C   UNL     1     -10.341  51.489  43.623  0.00  0.00    +0.000 A 
ATOM     23  N   UNL     1      -7.780  50.645  44.320  0.00  0.00    +0.000 NA
ATOM     24  C   UNL     1      -9.588  50.740  42.729  0.00  0.00    +0.000 A 
ATOM     25  C   UNL     1      -8.322  50.348  43.119  0.00  0.00    +0.000 A 
BRANCH  17  26
ATOM     26  O   UNL     1     -11.798  53.073  45.391  0.00  0.00    +0.000 OA
ATOM     27  H   UNL     1     -12.147  53.896  45.669  0.00  0.00    +0.000 HD
ENDBRANCH  17  26
BRANCH  19  28
ATOM     28  C   UNL     1      -6.614  51.223  46.756  0.00  0.00    +0.000 C 
BRANCH  28  29
ATOM     29  C   UNL     1      -6.642  49.879  47.494  0.00  0.00    +0.000 C 
BRANCH  29  30
ATOM     30  C   UNL     1      -5.918  49.885  48.854  0.00  0.00    +0.000 C 
ATOM     31  C   UNL     1      -5.081  51.145  49.074  0.00  0.00    +0.000 C 
ATOM     32  C   UNL     1      -6.946  49.756  49.983  0.00  0.00    +0.000 C 
ENDBRANCH  29  30
ENDBRANCH  28  29
ENDBRANCH  19  28
ENDBRANCH   6  15
BRANCH  11  33
ATOM     33  O   UNL     1     -15.043  58.182  50.161  0.00  0.00    +0.000 OA
BRANCH  33  34
ATOM     34  C   UNL     1     -14.504  59.360  50.766  0.00  0.00    +0.000 C 
BRANCH  34  35
ATOM     35  C   UNL     1     -14.112  60.356  49.680  0.00  0.00    +0.000 C 
ATOM     36  O   UNL     1     -14.921  60.869  48.916  0.00  0.00    +0.000 OA
ATOM     37  N   UNL     1     -12.785  60.673  49.617  0.00  0.00    +0.000 N 
ATOM     38  H   UNL     1     -12.148  60.252  50.240  0.00  0.00    +0.000 HD
ATOM     39  H   UNL     1     -12.465  61.323  48.951  0.00  0.00    +0.000 HD
ENDBRANCH  34  35
ENDBRANCH  33  34
ENDBRANCH  11  33
TORSDOF 8
ENDMDL
MODEL 6
REMARK VINA RESULT:      -7.0      4.406      6.306
REMARK  Name = 352769
REMARK  10 active torsions:
REMARK  status: ('A' for Active; 'I' for Inactive)
REMARK    1  A    between atoms: C_6  and  C_10
REMARK    2  A    between atoms: C_12  and  O_16
REMARK    3  A    between atoms: C_14  and  O_19
REMARK    4  A    between atoms: O_16  and  C_21
REMARK    5  A    between atoms: N_18  and  C_23
REMARK    6  A    between atoms: C_21  and  C_25
REMARK    7  A    between atoms: C_23  and  C_27
REMARK    8  A    between atoms: C_27  and  C_32
REMARK    9  A    between atoms: C_32  and  C_33
REMARK   10  A    between atoms: C_32  and  C_34
REMARK                            x       y       z     vdW  Elec       q    Type
REMARK                         _______ _______ _______ _____ _____    ______ ____
ROOT
ATOM      1  S   UNL     1     -13.834  57.482  48.640  0.00  0.00    +0.000 S 
ATOM      2  O   UNL     1     -14.950  56.668  48.201  0.00  0.00    +0.000 OA
ATOM      3  O   UNL     1     -13.771  58.888  48.288  0.00  0.00    +0.000 OA
ATOM      4  N   UNL     1     -12.472  56.777  48.125  0.00  0.00    +0.000 N 
ATOM      5  C   UNL     1     -13.853  57.425  50.391  0.00  0.00    +0.000 A 
ATOM      6  C   UNL     1     -11.661  56.192  48.956  0.00  0.00    +0.000 C 
ATOM      7  C   UNL     1     -12.844  56.722  51.028  0.00  0.00    +0.000 A 
ATOM      8  C   UNL     1     -14.862  58.087  51.095  0.00  0.00    +0.000 A 
ATOM      9  N   UNL     1     -11.858  56.053  50.310  0.00  0.00    +0.000 N 
ATOM     10  C   UNL     1     -12.875  56.633  52.420  0.00  0.00    +0.000 A 
ATOM     11  C   UNL     1     -14.878  57.994  52.482  0.00  0.00    +0.000 A 
ATOM     12  C   UNL     1     -13.878  57.280  53.142  0.00  0.00    +0.000 A 
ATOM     13  H   UNL     1     -12.254  56.791  47.166  0.00  0.00    +0.000 HD
ATOM     14  H   UNL     1     -11.265  55.440  50.802  0.00  0.00    +0.000 HD
ENDROOT
BRANCH   6  15
ATOM     15  C   UNL     1     -10.377  55.652  48.366  0.00  0.00    +0.000 A 
ATOM     16  C   UNL     1     -10.391  55.068  46.987  0.00  0.00    +0.000 A 
ATOM     17  C   UNL     1      -9.226  55.711  49.058  0.00  0.00    +0.000 A 
ATOM     18  O   UNL     1     -11.437  55.124  46.334  0.00  0.00    +0.000 OA
ATOM     19  N   UNL     1      -9.232  54.501  46.504  0.00  0.00    +0.000 N 
ATOM     20  C   UNL     1      -8.007  55.118  48.506  0.00  0.00    +0.000 A 
ATOM     21  C   UNL     1      -8.029  54.494  47.255  0.00  0.00    +0.000 A 
ATOM     22  C   UNL     1      -6.804  55.111  49.223  0.00  0.00    +0.000 A 
ATOM     23  N   UNL     1      -6.943  53.883  46.726  0.00  0.00    +0.000 NA
ATOM     24  C   UNL     1      -5.685  54.483  48.693  0.00  0.00    +0.000 A 
ATOM     25  C   UNL     1      -5.804  53.885  47.453  0.00  0.00    +0.000 A 
BRANCH  17  26
ATOM     26  O   UNL     1      -9.085  56.281  50.311  0.00  0.00    +0.000 OA
ATOM     27  H   UNL     1      -8.636  57.097  50.406  0.00  0.00    +0.000 HD
ENDBRANCH  17  26
BRANCH  19  28
ATOM     28  C   UNL     1      -9.239  53.842  45.194  0.00  0.00    +0.000 C 
BRANCH  28  29
ATOM     29  C   UNL     1      -9.746  52.397  45.290  0.00  0.00    +0.000 C 
BRANCH  29  30
ATOM     30  C   UNL     1     -10.825  52.031  44.253  0.00  0.00    +0.000 C 
ATOM     31  C   UNL     1     -10.234  51.526  42.936  0.00  0.00    +0.000 C 
ATOM     32  C   UNL     1     -11.754  50.961  44.836  0.00  0.00    +0.000 C 
ENDBRANCH  29  30
ENDBRANCH  28  29
ENDBRANCH  19  28
ENDBRANCH   6  15
BRANCH  11  33
ATOM     33  O   UNL     1     -15.806  58.576  53.293  0.00  0.00    +0.000 OA
BRANCH  33  34
ATOM     34  C   UNL     1     -15.401  59.800  53.911  0.00  0.00    +0.000 C 
BRANCH  34  35
ATOM     35  C   UNL     1     -16.543  60.343  54.764  0.00  0.00    +0.000 C 
ATOM     36  O   UNL     1     -17.438  61.050  54.315  0.00  0.00    +0.000 OA
ATOM     37  N   UNL     1     -16.529  59.974  56.079  0.00  0.00    +0.000 N 
ATOM     38  H   UNL     1     -15.802  59.406  56.423  0.00  0.00    +0.000 HD
ATOM     39  H   UNL     1     -17.247  60.276  56.682  0.00  0.00    +0.000 HD
ENDBRANCH  34  35
ENDBRANCH  33  34
ENDBRANCH  11  33
TORSDOF 8
ENDMDL
MODEL 7
REMARK VINA RESULT:      -7.0      2.471      3.364
REMARK  Name = 352769
REMARK  10 active torsions:
REMARK  status: ('A' for Active; 'I' for Inactive)
REMARK    1  A    between atoms: C_6  and  C_10
REMARK    2  A    between atoms: C_12  and  O_16
REMARK    3  A    between atoms: C_14  and  O_19
REMARK    4  A    between atoms: O_16  and  C_21
REMARK    5  A    between atoms: N_18  and  C_23
REMARK    6  A    between atoms: C_21  and  C_25
REMARK    7  A    between atoms: C_23  and  C_27
REMARK    8  A    between atoms: C_27  and  C_32
REMARK    9  A    between atoms: C_32  and  C_33
REMARK   10  A    between atoms: C_32  and  C_34
REMARK                            x       y       z     vdW  Elec       q    Type
REMARK                         _______ _______ _______ _____ _____    ______ ____
ROOT
ATOM      1  S   UNL     1     -10.499  54.718  48.547  0.00  0.00    +0.000 S 
ATOM      2  O   UNL     1     -11.186  53.531  48.077  0.00  0.00    +0.000 OA
ATOM      3  O   UNL     1     -10.195  55.799  47.629  0.00  0.00    +0.000 OA
ATOM      4  N   UNL     1      -9.116  54.249  49.242  0.00  0.00    +0.000 N 
ATOM      5  C   UNL     1     -11.526  55.414  49.784  0.00  0.00    +0.000 A 
ATOM      6  C   UNL     1      -8.954  54.313  50.530  0.00  0.00    +0.000 C 
ATOM      7  C   UNL     1     -11.095  55.346  51.099  0.00  0.00    +0.000 A 
ATOM      8  C   UNL     1     -12.732  56.019  49.424  0.00  0.00    +0.000 A 
ATOM      9  N   UNL     1      -9.900  54.721  51.442  0.00  0.00    +0.000 N 
ATOM     10  C   UNL     1     -11.926  55.857  52.096  0.00  0.00    +0.000 A 
ATOM     11  C   UNL     1     -13.548  56.528  50.428  0.00  0.00    +0.000 A 
ATOM     12  C   UNL     1     -13.138  56.459  51.759  0.00  0.00    +0.000 A 
ATOM     13  H   UNL     1      -8.384  53.908  48.680  0.00  0.00    +0.000 HD
ATOM     14  H   UNL     1      -9.721  54.559  52.396  0.00  0.00    +0.000 HD
ENDROOT
BRANCH   6  15
ATOM     15  C   UNL     1      -7.584  53.934  51.050  0.00  0.00    +0.000 A 
ATOM     16  C   UNL     1      -6.936  52.675  50.563  0.00  0.00    +0.000 A 
ATOM     17  C   UNL     1      -6.940  54.725  51.926  0.00  0.00    +0.000 A 
ATOM     18  O   UNL     1      -7.503  52.025  49.680  0.00  0.00    +0.000 OA
ATOM     19  N   UNL     1      -5.731  52.302  51.116  0.00  0.00    +0.000 N 
ATOM     20  C   UNL     1      -5.649  54.309  52.478  0.00  0.00    +0.000 A 
ATOM     21  C   UNL     1      -5.076  53.094  52.093  0.00  0.00    +0.000 A 
ATOM     22  C   UNL     1      -4.977  55.080  53.433  0.00  0.00    +0.000 A 
ATOM     23  N   UNL     1      -3.912  52.639  52.616  0.00  0.00    +0.000 NA
ATOM     24  C   UNL     1      -3.785  54.622  53.981  0.00  0.00    +0.000 A 
ATOM     25  C   UNL     1      -3.300  53.404  53.546  0.00  0.00    +0.000 A 
BRANCH  17  26
ATOM     26  O   UNL     1      -7.415  55.936  52.396  0.00  0.00    +0.000 OA
ATOM     27  H   UNL     1      -7.077  56.738  52.051  0.00  0.00    +0.000 HD
ENDBRANCH  17  26
BRANCH  19  28
ATOM     28  C   UNL     1      -5.118  51.029  50.724  0.00  0.00    +0.000 C 
BRANCH  28  29
ATOM     29  C   UNL     1      -3.985  51.233  49.709  0.00  0.00    +0.000 C 
BRANCH  29  30
ATOM     30  C   UNL     1      -4.459  51.398  48.253  0.00  0.00    +0.000 C 
ATOM     31  C   UNL     1      -4.415  52.850  47.777  0.00  0.00    +0.000 C 
ATOM     32  C   UNL     1      -3.590  50.536  47.331  0.00  0.00    +0.000 C 
ENDBRANCH  29  30
ENDBRANCH  28  29
ENDBRANCH  19  28
ENDBRANCH   6  15
BRANCH  11  33
ATOM     33  O   UNL     1     -14.752  57.134  50.223  0.00  0.00    +0.000 OA
BRANCH  33  34
ATOM     34  C   UNL     1     -14.863  58.469  50.722  0.00  0.00    +0.000 C 
BRANCH  34  35
ATOM     35  C   UNL     1     -14.094  59.420  49.811  0.00  0.00    +0.000 C 
ATOM     36  O   UNL     1     -13.421  60.355  50.230  0.00  0.00    +0.000 OA
ATOM     37  N   UNL     1     -14.176  59.156  48.473  0.00  0.00    +0.000 N 
ATOM     38  H   UNL     1     -14.721  58.400  48.153  0.00  0.00    +0.000 HD
ATOM     39  H   UNL     1     -13.691  59.720  47.829  0.00  0.00    +0.000 HD
ENDBRANCH  34  35
ENDBRANCH  33  34
ENDBRANCH  11  33
TORSDOF 8
ENDMDL
MODEL 8
REMARK VINA RESULT:      -7.0      4.793      6.252
REMARK  Name = 352769
REMARK  10 active torsions:
REMARK  status: ('A' for Active; 'I' for Inactive)
REMARK    1  A    between atoms: C_6  and  C_10
REMARK    2  A    between atoms: C_12  and  O_16
REMARK    3  A    between atoms: C_14  and  O_19
REMARK    4  A    between atoms: O_16  and  C_21
REMARK    5  A    between atoms: N_18  and  C_23
REMARK    6  A    between atoms: C_21  and  C_25
REMARK    7  A    between atoms: C_23  and  C_27
REMARK    8  A    between atoms: C_27  and  C_32
REMARK    9  A    between atoms: C_32  and  C_33
REMARK   10  A    between atoms: C_32  and  C_34
REMARK                            x       y       z     vdW  Elec       q    Type
REMARK                         _______ _______ _______ _____ _____    ______ ____
ROOT
ATOM      1  S   UNL     1     -11.309  54.687  50.926  0.00  0.00    +0.000 S 
ATOM      2  O   UNL     1     -10.453  55.597  51.662  0.00  0.00    +0.000 OA
ATOM      3  O   UNL     1     -12.263  53.850  51.628  0.00  0.00    +0.000 OA
ATOM      4  N   UNL     1     -10.362  53.726  50.033  0.00  0.00    +0.000 N 
ATOM      5  C   UNL     1     -12.255  55.685  49.840  0.00  0.00    +0.000 A 
ATOM      6  C   UNL     1     -10.306  53.848  48.740  0.00  0.00    +0.000 C 
ATOM      7  C   UNL     1     -11.982  55.609  48.484  0.00  0.00    +0.000 A 
ATOM      8  C   UNL     1     -13.254  56.515  50.355  0.00  0.00    +0.000 A 
ATOM      9  N   UNL     1     -10.970  54.792  47.991  0.00  0.00    +0.000 N 
ATOM     10  C   UNL     1     -12.699  56.433  47.617  0.00  0.00    +0.000 A 
ATOM     11  C   UNL     1     -13.964  57.327  49.478  0.00  0.00    +0.000 A 
ATOM     12  C   UNL     1     -13.696  57.274  48.110  0.00  0.00    +0.000 A 
ATOM     13  H   UNL     1      -9.818  53.038  50.478  0.00  0.00    +0.000 HD
ATOM     14  H   UNL     1     -10.712  54.896  47.047  0.00  0.00    +0.000 HD
ENDROOT
BRANCH   6  15
ATOM     15  C   UNL     1      -9.457  52.831  48.010  0.00  0.00    +0.000 A 
ATOM     16  C   UNL     1     -10.098  51.922  47.009  0.00  0.00    +0.000 A 
ATOM     17  C   UNL     1      -8.134  52.751  48.239  0.00  0.00    +0.000 A 
ATOM     18  O   UNL     1     -11.292  52.088  46.741  0.00  0.00    +0.000 OA
ATOM     19  N   UNL     1      -9.325  50.943  46.422  0.00  0.00    +0.000 N 
ATOM     20  C   UNL     1      -7.338  51.714  47.582  0.00  0.00    +0.000 A 
ATOM     21  C   UNL     1      -7.944  50.805  46.710  0.00  0.00    +0.000 A 
ATOM     22  C   UNL     1      -5.969  51.566  47.839  0.00  0.00    +0.000 A 
ATOM     23  N   UNL     1      -7.261  49.794  46.121  0.00  0.00    +0.000 NA
ATOM     24  C   UNL     1      -5.260  50.529  47.246  0.00  0.00    +0.000 A 
ATOM     25  C   UNL     1      -5.946  49.675  46.404  0.00  0.00    +0.000 A 
BRANCH  17  26
ATOM     26  O   UNL     1      -7.428  53.578  49.095  0.00  0.00    +0.000 OA
ATOM     27  H   UNL     1      -7.362  54.494  48.913  0.00  0.00    +0.000 HD
ENDBRANCH  17  26
BRANCH  19  28
ATOM     28  C   UNL     1      -9.947  49.982  45.506  0.00  0.00    +0.000 C 
BRANCH  28  29
ATOM     29  C   UNL     1     -10.166  50.585  44.113  0.00  0.00    +0.000 C 
BRANCH  29  30
ATOM     30  C   UNL     1      -9.068  51.569  43.665  0.00  0.00    +0.000 C 
ATOM     31  C   UNL     1      -8.044  50.927  42.729  0.00  0.00    +0.000 C 
ATOM     32  C   UNL     1      -9.712  52.771  42.966  0.00  0.00    +0.000 C 
ENDBRANCH  29  30
ENDBRANCH  28  29
ENDBRANCH  19  28
ENDBRANCH   6  15
BRANCH  11  33
ATOM     33  O   UNL     1     -14.955  58.190  49.841  0.00  0.00    +0.000 OA
BRANCH  33  34
ATOM     34  C   UNL     1     -14.533  59.329  50.596  0.00  0.00    +0.000 C 
BRANCH  34  35
ATOM     35  C   UNL     1     -13.868  60.339  49.666  0.00  0.00    +0.000 C 
ATOM     36  O   UNL     1     -12.689  60.664  49.761  0.00  0.00    +0.000 OA
ATOM     37  N   UNL     1     -14.665  60.858  48.686  0.00  0.00    +0.000 N 
ATOM     38  H   UNL     1     -15.609  60.586  48.624  0.00  0.00    +0.000 HD
ATOM     39  H   UNL     1     -14.295  61.503  48.041  0.00  0.00    +0.000 HD
ENDBRANCH  34  35
ENDBRANCH  33  34
ENDBRANCH  11  33
TORSDOF 8
ENDMDL
MODEL 9
REMARK VINA RESULT:      -6.9      3.123      9.602
REMARK  Name = 352769
REMARK  10 active torsions:
REMARK  status: ('A' for Active; 'I' for Inactive)
REMARK    1  A    between atoms: C_6  and  C_10
REMARK    2  A    between atoms: C_12  and  O_16
REMARK    3  A    between atoms: C_14  and  O_19
REMARK    4  A    between atoms: O_16  and  C_21
REMARK    5  A    between atoms: N_18  and  C_23
REMARK    6  A    between atoms: C_21  and  C_25
REMARK    7  A    between atoms: C_23  and  C_27
REMARK    8  A    between atoms: C_27  and  C_32
REMARK    9  A    between atoms: C_32  and  C_33
REMARK   10  A    between atoms: C_32  and  C_34
REMARK                            x       y       z     vdW  Elec       q    Type
REMARK                         _______ _______ _______ _____ _____    ______ ____
ROOT
ATOM      1  S   UNL     1      -6.668  54.911  51.484  0.00  0.00    +0.000 S 
ATOM      2  O   UNL     1      -6.398  55.363  52.834  0.00  0.00    +0.000 OA
ATOM      3  O   UNL     1      -5.747  55.224  50.408  0.00  0.00    +0.000 OA
ATOM      4  N   UNL     1      -8.133  55.454  51.062  0.00  0.00    +0.000 N 
ATOM      5  C   UNL     1      -6.735  53.161  51.563  0.00  0.00    +0.000 A 
ATOM      6  C   UNL     1      -9.144  54.645  50.949  0.00  0.00    +0.000 C 
ATOM      7  C   UNL     1      -7.967  52.551  51.399  0.00  0.00    +0.000 A 
ATOM      8  C   UNL     1      -5.563  52.433  51.779  0.00  0.00    +0.000 A 
ATOM      9  N   UNL     1      -9.128  53.294  51.205  0.00  0.00    +0.000 N 
ATOM     10  C   UNL     1      -8.038  51.162  51.505  0.00  0.00    +0.000 A 
ATOM     11  C   UNL     1      -5.648  51.049  51.878  0.00  0.00    +0.000 A 
ATOM     12  C   UNL     1      -6.881  50.415  51.727  0.00  0.00    +0.000 A 
ATOM     13  H   UNL     1      -8.260  56.414  50.889  0.00  0.00    +0.000 HD
ATOM     14  H   UNL     1      -9.991  52.823  51.255  0.00  0.00    +0.000 HD
ENDROOT
BRANCH   6  15
ATOM     15  C   UNL     1     -10.437  55.259  50.458  0.00  0.00    +0.000 A 
ATOM     16  C   UNL     1     -11.545  55.515  51.432  0.00  0.00    +0.000 A 
ATOM     17  C   UNL     1     -10.591  55.593  49.165  0.00  0.00    +0.000 A 
ATOM     18  O   UNL     1     -11.338  55.298  52.630  0.00  0.00    +0.000 OA
ATOM     19  N   UNL     1     -12.745  55.990  50.951  0.00  0.00    +0.000 N 
ATOM     20  C   UNL     1     -11.873  56.116  48.690  0.00  0.00    +0.000 A 
ATOM     21  C   UNL     1     -12.941  56.279  49.577  0.00  0.00    +0.000 A 
ATOM     22  C   UNL     1     -12.086  56.422  47.340  0.00  0.00    +0.000 A 
ATOM     23  N   UNL     1     -14.162  56.706  49.176  0.00  0.00    +0.000 NA
ATOM     24  C   UNL     1     -13.335  56.856  46.916  0.00  0.00    +0.000 A 
ATOM     25  C   UNL     1     -14.333  56.978  47.864  0.00  0.00    +0.000 A 
BRANCH  17  26
ATOM     26  O   UNL     1      -9.616  55.458  48.192  0.00  0.00    +0.000 OA
ATOM     27  H   UNL     1      -8.753  55.184  48.429  0.00  0.00    +0.000 HD
ENDBRANCH  17  26
BRANCH  19  28
ATOM     28  C   UNL     1     -13.876  56.164  51.868  0.00  0.00    +0.000 C 
BRANCH  28  29
ATOM     29  C   UNL     1     -13.819  57.517  52.589  0.00  0.00    +0.000 C 
BRANCH  29  30
ATOM     30  C   UNL     1     -14.944  58.494  52.196  0.00  0.00    +0.000 C 
ATOM     31  C   UNL     1     -15.492  59.276  53.390  0.00  0.00    +0.000 C 
ATOM     32  C   UNL     1     -14.425  59.476  51.142  0.00  0.00    +0.000 C 
ENDBRANCH  29  30
ENDBRANCH  28  29
ENDBRANCH  19  28
ENDBRANCH   6  15
BRANCH  11  33
ATOM     33  O   UNL     1      -4.592  50.215  52.097  0.00  0.00    +0.000 OA
BRANCH  33  34
ATOM     34  C   UNL     1      -3.404  50.520  51.361  0.00  0.00    +0.000 C 
BRANCH  34  35
ATOM     35  C   UNL     1      -3.623  50.202  49.886  0.00  0.00    +0.000 C 
ATOM     36  O   UNL     1      -4.010  49.110  49.484  0.00  0.00    +0.000 OA
ATOM     37  N   UNL     1      -3.383  51.227  49.016  0.00  0.00    +0.000 N 
ATOM     38  H   UNL     1      -3.072  52.098  49.355  0.00  0.00    +0.000 HD
ATOM     39  H   UNL     1      -3.520  51.095  48.050  0.00  0.00    +0.000 HD
ENDBRANCH  34  35
ENDBRANCH  33  34
ENDBRANCH  11  33
TORSDOF 8
ENDMDL
