MODEL 1
REMARK VINA RESULT:      -8.9      0.000      0.000
REMARK  Name = 353028
REMARK  6 active torsions:
REMARK  status: ('A' for Active; 'I' for Inactive)
REMARK    1  A    between atoms: C_6  and  C_10
REMARK    2  A    between atoms: C_14  and  O_18
REMARK    3  A    between atoms: C_15  and  O_20
REMARK    4  A    between atoms: N_17  and  C_22
REMARK    5  A    between atoms: O_20  and  C_24
REMARK    6  A    between atoms: C_22  and  C_26
REMARK                            x       y       z     vdW  Elec       q    Type
REMARK                         _______ _______ _______ _____ _____    ______ ____
ROOT
ATOM      1  C   UNL     1     -10.326  55.317  50.516  0.00  0.00    +0.000 A 
ATOM      2  C   UNL     1      -9.976  55.236  49.062  0.00  0.00    +0.000 A 
ATOM      3  C   UNL     1     -11.533  55.777  50.883  0.00  0.00    +0.000 A 
ATOM      4  O   UNL     1      -8.845  54.846  48.757  0.00  0.00    +0.000 OA
ATOM      5  N   UNL     1     -10.939  55.574  48.131  0.00  0.00    +0.000 N 
ATOM      6  C   UNL     1     -12.483  56.249  49.874  0.00  0.00    +0.000 A 
ATOM      7  C   UNL     1     -12.189  56.119  48.513  0.00  0.00    +0.000 A 
ATOM      8  C   UNL     1     -13.682  56.874  50.237  0.00  0.00    +0.000 A 
ATOM      9  N   UNL     1     -13.032  56.554  47.546  0.00  0.00    +0.000 NA
ATOM     10  C   UNL     1     -14.533  57.360  49.254  0.00  0.00    +0.000 A 
ATOM     11  C   UNL     1     -14.170  57.172  47.935  0.00  0.00    +0.000 A 
ENDROOT
BRANCH   1  17
ATOM     12  S   UNL     1      -7.015  55.096  52.608  0.00  0.00    +0.000 S 
ATOM     13  O   UNL     1      -6.936  56.115  53.636  0.00  0.00    +0.000 OA
ATOM     14  O   UNL     1      -5.846  54.766  51.818  0.00  0.00    +0.000 OA
ATOM     15  N   UNL     1      -8.201  55.514  51.592  0.00  0.00    +0.000 N 
ATOM     16  C   UNL     1      -7.485  53.618  53.422  0.00  0.00    +0.000 A 
ATOM     17  C   UNL     1      -9.322  54.853  51.555  0.00  0.00    +0.000 C 
ATOM     18  C   UNL     1      -8.756  53.125  53.191  0.00  0.00    +0.000 A 
ATOM     19  C   UNL     1      -6.574  52.970  54.259  0.00  0.00    +0.000 A 
ATOM     20  N   UNL     1      -9.652  53.786  52.356  0.00  0.00    +0.000 N 
ATOM     21  C   UNL     1      -9.148  51.977  53.889  0.00  0.00    +0.000 A 
ATOM     22  C   UNL     1      -6.968  51.803  54.918  0.00  0.00    +0.000 A 
ATOM     23  C   UNL     1      -8.264  51.311  54.744  0.00  0.00    +0.000 A 
ATOM     24  H   UNL     1      -8.073  56.283  50.991  0.00  0.00    +0.000 HD
ATOM     25  H   UNL     1     -10.584  53.467  52.337  0.00  0.00    +0.000 HD
BRANCH  23  26
ATOM     26  O   UNL     1      -8.784  50.197  55.343  0.00  0.00    +0.000 OA
ATOM     27  C   UNL     1      -8.216  49.819  56.589  0.00  0.00    +0.000 C 
ENDBRANCH  23  26
ENDBRANCH   1  17
BRANCH   3  28
ATOM     28  O   UNL     1     -11.986  55.859  52.190  0.00  0.00    +0.000 OA
ATOM     29  H   UNL     1     -11.372  55.892  52.897  0.00  0.00    +0.000 HD
ENDBRANCH   3  28
BRANCH   5  30
ATOM     30  C   UNL     1     -10.655  55.376  46.709  0.00  0.00    +0.000 C 
BRANCH  30  31
ATOM     31  C   UNL     1     -11.036  53.983  46.248  0.00  0.00    +0.000 A 
ATOM     32  C   UNL     1     -10.647  53.516  44.986  0.00  0.00    +0.000 A 
ATOM     33  C   UNL     1     -11.850  53.163  47.048  0.00  0.00    +0.000 A 
ATOM     34  C   UNL     1     -11.098  52.280  44.516  0.00  0.00    +0.000 A 
ATOM     35  C   UNL     1     -12.309  51.934  46.573  0.00  0.00    +0.000 A 
ATOM     36  C   UNL     1     -11.944  51.499  45.303  0.00  0.00    +0.000 A 
ENDBRANCH  30  31
ENDBRANCH   5  30
TORSDOF 5
ENDMDL
MODEL 2
REMARK VINA RESULT:      -8.8      1.485      2.757
REMARK  Name = 353028
REMARK  6 active torsions:
REMARK  status: ('A' for Active; 'I' for Inactive)
REMARK    1  A    between atoms: C_6  and  C_10
REMARK    2  A    between atoms: C_14  and  O_18
REMARK    3  A    between atoms: C_15  and  O_20
REMARK    4  A    between atoms: N_17  and  C_22
REMARK    5  A    between atoms: O_20  and  C_24
REMARK    6  A    between atoms: C_22  and  C_26
REMARK                            x       y       z     vdW  Elec       q    Type
REMARK                         _______ _______ _______ _____ _____    ______ ____
ROOT
ATOM      1  C   UNL     1     -10.480  54.702  50.448  0.00  0.00    +0.000 A 
ATOM      2  C   UNL     1      -9.975  54.916  49.055  0.00  0.00    +0.000 A 
ATOM      3  C   UNL     1     -11.722  55.097  50.771  0.00  0.00    +0.000 A 
ATOM      4  O   UNL     1      -8.815  54.578  48.798  0.00  0.00    +0.000 OA
ATOM      5  N   UNL     1     -10.834  55.453  48.116  0.00  0.00    +0.000 N 
ATOM      6  C   UNL     1     -12.561  55.780  49.786  0.00  0.00    +0.000 A 
ATOM      7  C   UNL     1     -12.122  55.929  48.467  0.00  0.00    +0.000 A 
ATOM      8  C   UNL     1     -13.796  56.337  50.140  0.00  0.00    +0.000 A 
ATOM      9  N   UNL     1     -12.859  56.566  47.526  0.00  0.00    +0.000 NA
ATOM     10  C   UNL     1     -14.539  57.028  49.193  0.00  0.00    +0.000 A 
ATOM     11  C   UNL     1     -14.036  57.109  47.910  0.00  0.00    +0.000 A 
ENDROOT
BRANCH   1  17
ATOM     12  S   UNL     1      -9.242  52.101  53.110  0.00  0.00    +0.000 S 
ATOM     13  O   UNL     1      -8.717  50.892  52.507  0.00  0.00    +0.000 OA
ATOM     14  O   UNL     1     -10.084  52.022  54.285  0.00  0.00    +0.000 OA
ATOM     15  N   UNL     1     -10.052  52.908  51.969  0.00  0.00    +0.000 N 
ATOM     16  C   UNL     1      -7.849  53.057  53.575  0.00  0.00    +0.000 A 
ATOM     17  C   UNL     1      -9.590  54.018  51.471  0.00  0.00    +0.000 C 
ATOM     18  C   UNL     1      -7.591  54.217  52.867  0.00  0.00    +0.000 A 
ATOM     19  C   UNL     1      -7.051  52.643  54.644  0.00  0.00    +0.000 A 
ATOM     20  N   UNL     1      -8.395  54.612  51.802  0.00  0.00    +0.000 N 
ATOM     21  C   UNL     1      -6.445  54.945  53.202  0.00  0.00    +0.000 A 
ATOM     22  C   UNL     1      -5.932  53.403  54.991  0.00  0.00    +0.000 A 
ATOM     23  C   UNL     1      -5.619  54.552  54.260  0.00  0.00    +0.000 A 
ATOM     24  H   UNL     1     -10.911  52.553  51.644  0.00  0.00    +0.000 HD
ATOM     25  H   UNL     1      -8.088  55.367  51.249  0.00  0.00    +0.000 HD
BRANCH  23  26
ATOM     26  O   UNL     1      -4.546  55.372  54.478  0.00  0.00    +0.000 OA
ATOM     27  C   UNL     1      -3.301  54.948  53.941  0.00  0.00    +0.000 C 
ENDBRANCH  23  26
ENDBRANCH   1  17
BRANCH   3  28
ATOM     28  O   UNL     1     -12.314  54.916  52.012  0.00  0.00    +0.000 OA
ATOM     29  H   UNL     1     -13.188  55.218  52.161  0.00  0.00    +0.000 HD
ENDBRANCH   3  28
BRANCH   5  30
ATOM     30  C   UNL     1     -10.398  55.548  46.722  0.00  0.00    +0.000 C 
BRANCH  30  31
ATOM     31  C   UNL     1     -10.541  54.223  45.998  0.00  0.00    +0.000 A 
ATOM     32  C   UNL     1      -9.411  53.539  45.530  0.00  0.00    +0.000 A 
ATOM     33  C   UNL     1     -11.812  53.696  45.716  0.00  0.00    +0.000 A 
ATOM     34  C   UNL     1      -9.551  52.381  44.761  0.00  0.00    +0.000 A 
ATOM     35  C   UNL     1     -11.951  52.546  44.938  0.00  0.00    +0.000 A 
ATOM     36  C   UNL     1     -10.821  51.897  44.450  0.00  0.00    +0.000 A 
ENDBRANCH  30  31
ENDBRANCH   5  30
TORSDOF 5
ENDMDL
MODEL 3
REMARK VINA RESULT:      -8.6      1.656      4.339
REMARK  Name = 353028
REMARK  6 active torsions:
REMARK  status: ('A' for Active; 'I' for Inactive)
REMARK    1  A    between atoms: C_6  and  C_10
REMARK    2  A    between atoms: C_14  and  O_18
REMARK    3  A    between atoms: C_15  and  O_20
REMARK    4  A    between atoms: N_17  and  C_22
REMARK    5  A    between atoms: O_20  and  C_24
REMARK    6  A    between atoms: C_22  and  C_26
REMARK                            x       y       z     vdW  Elec       q    Type
REMARK                         _______ _______ _______ _____ _____    ______ ____
ROOT
ATOM      1  C   UNL     1      -9.802  54.754  50.734  0.00  0.00    +0.000 A 
ATOM      2  C   UNL     1     -11.252  54.813  51.104  0.00  0.00    +0.000 A 
ATOM      3  C   UNL     1      -9.431  54.997  49.467  0.00  0.00    +0.000 A 
ATOM      4  O   UNL     1     -11.566  54.546  52.268  0.00  0.00    +0.000 OA
ATOM      5  N   UNL     1     -12.165  55.187  50.138  0.00  0.00    +0.000 N 
ATOM      6  C   UNL     1     -10.438  55.264  48.439  0.00  0.00    +0.000 A 
ATOM      7  C   UNL     1     -11.787  55.381  48.786  0.00  0.00    +0.000 A 
ATOM      8  C   UNL     1     -10.091  55.367  47.086  0.00  0.00    +0.000 A 
ATOM      9  N   UNL     1     -12.754  55.613  47.867  0.00  0.00    +0.000 NA
ATOM     10  C   UNL     1     -11.079  55.564  46.132  0.00  0.00    +0.000 A 
ATOM     11  C   UNL     1     -12.383  55.685  46.568  0.00  0.00    +0.000 A 
ENDROOT
BRANCH   1  17
ATOM     12  S   UNL     1      -6.490  54.946  52.827  0.00  0.00    +0.000 S 
ATOM     13  O   UNL     1      -6.493  56.040  53.777  0.00  0.00    +0.000 OA
ATOM     14  O   UNL     1      -5.297  54.649  52.061  0.00  0.00    +0.000 OA
ATOM     15  N   UNL     1      -7.701  55.194  51.787  0.00  0.00    +0.000 N 
ATOM     16  C   UNL     1      -6.846  53.499  53.749  0.00  0.00    +0.000 A 
ATOM     17  C   UNL     1      -8.768  54.448  51.802  0.00  0.00    +0.000 C 
ATOM     18  C   UNL     1      -8.075  52.893  53.559  0.00  0.00    +0.000 A 
ATOM     19  C   UNL     1      -5.891  52.987  54.630  0.00  0.00    +0.000 A 
ATOM     20  N   UNL     1      -9.017  53.420  52.680  0.00  0.00    +0.000 N 
ATOM     21  C   UNL     1      -8.379  51.774  54.341  0.00  0.00    +0.000 A 
ATOM     22  C   UNL     1      -6.196  51.845  55.374  0.00  0.00    +0.000 A 
ATOM     23  C   UNL     1      -7.448  51.242  55.240  0.00  0.00    +0.000 A 
ATOM     24  H   UNL     1      -7.632  55.924  51.130  0.00  0.00    +0.000 HD
ATOM     25  H   UNL     1      -9.921  53.030  52.687  0.00  0.00    +0.000 HD
BRANCH  23  26
ATOM     26  O   UNL     1      -7.883  50.139  55.921  0.00  0.00    +0.000 OA
ATOM     27  C   UNL     1      -9.269  49.838  55.829  0.00  0.00    +0.000 C 
ENDBRANCH  23  26
ENDBRANCH   1  17
BRANCH   3  28
ATOM     28  O   UNL     1      -8.121  55.014  49.013  0.00  0.00    +0.000 OA
ATOM     29  H   UNL     1      -7.537  54.318  49.243  0.00  0.00    +0.000 HD
ENDBRANCH   3  28
BRANCH   5  30
ATOM     30  C   UNL     1     -13.567  55.373  50.517  0.00  0.00    +0.000 C 
BRANCH  30  31
ATOM     31  C   UNL     1     -13.816  56.757  51.083  0.00  0.00    +0.000 A 
ATOM     32  C   UNL     1     -14.046  56.938  52.453  0.00  0.00    +0.000 A 
ATOM     33  C   UNL     1     -13.897  57.873  50.234  0.00  0.00    +0.000 A 
ATOM     34  C   UNL     1     -14.392  58.195  52.955  0.00  0.00    +0.000 A 
ATOM     35  C   UNL     1     -14.254  59.126  50.734  0.00  0.00    +0.000 A 
ATOM     36  C   UNL     1     -14.514  59.283  52.092  0.00  0.00    +0.000 A 
ENDBRANCH  30  31
ENDBRANCH   5  30
TORSDOF 5
ENDMDL
MODEL 4
REMARK VINA RESULT:      -8.4      3.675      6.848
REMARK  Name = 353028
REMARK  6 active torsions:
REMARK  status: ('A' for Active; 'I' for Inactive)
REMARK    1  A    between atoms: C_6  and  C_10
REMARK    2  A    between atoms: C_14  and  O_18
REMARK    3  A    between atoms: C_15  and  O_20
REMARK    4  A    between atoms: N_17  and  C_22
REMARK    5  A    between atoms: O_20  and  C_24
REMARK    6  A    between atoms: C_22  and  C_26
REMARK                            x       y       z     vdW  Elec       q    Type
REMARK                         _______ _______ _______ _____ _____    ______ ____
ROOT
ATOM      1  C   UNL     1     -10.220  54.614  47.719  0.00  0.00    +0.000 A 
ATOM      2  C   UNL     1      -8.739  54.777  47.568  0.00  0.00    +0.000 A 
ATOM      3  C   UNL     1     -10.921  54.000  46.753  0.00  0.00    +0.000 A 
ATOM      4  O   UNL     1      -8.127  55.381  48.454  0.00  0.00    +0.000 OA
ATOM      5  N   UNL     1      -8.123  54.223  46.463  0.00  0.00    +0.000 N 
ATOM      6  C   UNL     1     -10.255  53.538  45.534  0.00  0.00    +0.000 A 
ATOM      7  C   UNL     1      -8.866  53.630  45.411  0.00  0.00    +0.000 A 
ATOM      8  C   UNL     1     -10.984  53.035  44.449  0.00  0.00    +0.000 A 
ATOM      9  N   UNL     1      -8.209  53.229  44.297  0.00  0.00    +0.000 NA
ATOM     10  C   UNL     1     -10.324  52.660  43.288  0.00  0.00    +0.000 A 
ATOM     11  C   UNL     1      -8.948  52.769  43.262  0.00  0.00    +0.000 A 
ENDROOT
BRANCH   1  17
ATOM     12  S   UNL     1     -11.422  54.806  51.448  0.00  0.00    +0.000 S 
ATOM     13  O   UNL     1     -10.399  55.317  52.338  0.00  0.00    +0.000 OA
ATOM     14  O   UNL     1     -12.247  53.687  51.854  0.00  0.00    +0.000 OA
ATOM     15  N   UNL     1     -10.709  54.418  50.050  0.00  0.00    +0.000 N 
ATOM     16  C   UNL     1     -12.520  56.138  51.152  0.00  0.00    +0.000 A 
ATOM     17  C   UNL     1     -10.906  55.123  48.974  0.00  0.00    +0.000 C 
ATOM     18  C   UNL     1     -12.529  56.707  49.891  0.00  0.00    +0.000 A 
ATOM     19  C   UNL     1     -13.363  56.580  52.175  0.00  0.00    +0.000 A 
ATOM     20  N   UNL     1     -11.679  56.256  48.886  0.00  0.00    +0.000 N 
ATOM     21  C   UNL     1     -13.364  57.808  49.678  0.00  0.00    +0.000 A 
ATOM     22  C   UNL     1     -14.219  57.656  51.932  0.00  0.00    +0.000 A 
ATOM     23  C   UNL     1     -14.212  58.282  50.684  0.00  0.00    +0.000 A 
ATOM     24  H   UNL     1     -10.114  53.634  50.013  0.00  0.00    +0.000 HD
ATOM     25  H   UNL     1     -11.628  56.784  48.055  0.00  0.00    +0.000 HD
BRANCH  23  26
ATOM     26  O   UNL     1     -14.979  59.355  50.321  0.00  0.00    +0.000 OA
ATOM     27  C   UNL     1     -14.351  60.345  49.519  0.00  0.00    +0.000 C 
ENDBRANCH  23  26
ENDBRANCH   1  17
BRANCH   3  28
ATOM     28  O   UNL     1     -12.285  53.753  46.798  0.00  0.00    +0.000 OA
ATOM     29  H   UNL     1     -12.822  54.202  47.421  0.00  0.00    +0.000 HD
ENDBRANCH   3  28
BRANCH   5  30
ATOM     30  C   UNL     1      -6.663  54.261  46.367  0.00  0.00    +0.000 C 
BRANCH  30  31
ATOM     31  C   UNL     1      -6.013  53.240  47.280  0.00  0.00    +0.000 A 
ATOM     32  C   UNL     1      -5.050  53.632  48.219  0.00  0.00    +0.000 A 
ATOM     33  C   UNL     1      -6.309  51.873  47.149  0.00  0.00    +0.000 A 
ATOM     34  C   UNL     1      -4.368  52.677  48.976  0.00  0.00    +0.000 A 
ATOM     35  C   UNL     1      -5.619  50.919  47.898  0.00  0.00    +0.000 A 
ATOM     36  C   UNL     1      -4.639  51.320  48.801  0.00  0.00    +0.000 A 
ENDBRANCH  30  31
ENDBRANCH   5  30
TORSDOF 5
ENDMDL
MODEL 5
REMARK VINA RESULT:      -8.3      3.264      7.701
REMARK  Name = 353028
REMARK  6 active torsions:
REMARK  status: ('A' for Active; 'I' for Inactive)
REMARK    1  A    between atoms: C_6  and  C_10
REMARK    2  A    between atoms: C_14  and  O_18
REMARK    3  A    between atoms: C_15  and  O_20
REMARK    4  A    between atoms: N_17  and  C_22
REMARK    5  A    between atoms: O_20  and  C_24
REMARK    6  A    between atoms: C_22  and  C_26
REMARK                            x       y       z     vdW  Elec       q    Type
REMARK                         _______ _______ _______ _____ _____    ______ ____
ROOT
ATOM      1  C   UNL     1      -9.858  53.723  52.258  0.00  0.00    +0.000 A 
ATOM      2  C   UNL     1      -8.423  54.094  52.050  0.00  0.00    +0.000 A 
ATOM      3  C   UNL     1     -10.184  52.854  53.229  0.00  0.00    +0.000 A 
ATOM      4  O   UNL     1      -8.150  54.865  51.124  0.00  0.00    +0.000 OA
ATOM      5  N   UNL     1      -7.476  53.582  52.915  0.00  0.00    +0.000 N 
ATOM      6  C   UNL     1      -9.141  52.231  54.045  0.00  0.00    +0.000 A 
ATOM      7  C   UNL     1      -7.806  52.618  53.899  0.00  0.00    +0.000 A 
ATOM      8  C   UNL     1      -9.440  51.210  54.956  0.00  0.00    +0.000 A 
ATOM      9  N   UNL     1      -6.807  52.058  54.623  0.00  0.00    +0.000 NA
ATOM     10  C   UNL     1      -8.418  50.603  55.672  0.00  0.00    +0.000 A 
ATOM     11  C   UNL     1      -7.131  51.061  55.477  0.00  0.00    +0.000 A 
ENDROOT
BRANCH   1  17
ATOM     12  S   UNL     1     -11.795  54.882  49.050  0.00  0.00    +0.000 S 
ATOM     13  O   UNL     1     -12.562  53.812  48.445  0.00  0.00    +0.000 OA
ATOM     14  O   UNL     1     -11.049  55.804  48.219  0.00  0.00    +0.000 OA
ATOM     15  N   UNL     1     -10.766  54.215  50.102  0.00  0.00    +0.000 N 
ATOM     16  C   UNL     1     -12.942  55.857  49.947  0.00  0.00    +0.000 A 
ATOM     17  C   UNL     1     -10.929  54.353  51.386  0.00  0.00    +0.000 C 
ATOM     18  C   UNL     1     -12.886  55.820  51.329  0.00  0.00    +0.000 A 
ATOM     19  C   UNL     1     -13.862  56.651  49.260  0.00  0.00    +0.000 A 
ATOM     20  N   UNL     1     -11.964  55.020  51.998  0.00  0.00    +0.000 N 
ATOM     21  C   UNL     1     -13.841  56.553  52.040  0.00  0.00    +0.000 A 
ATOM     22  C   UNL     1     -14.784  57.407  49.986  0.00  0.00    +0.000 A 
ATOM     23  C   UNL     1     -14.784  57.349  51.382  0.00  0.00    +0.000 A 
ATOM     24  H   UNL     1     -10.001  53.694  49.765  0.00  0.00    +0.000 HD
ATOM     25  H   UNL     1     -12.059  54.926  52.974  0.00  0.00    +0.000 HD
BRANCH  23  26
ATOM     26  O   UNL     1     -15.641  58.018  52.211  0.00  0.00    +0.000 OA
ATOM     27  C   UNL     1     -15.144  59.200  52.823  0.00  0.00    +0.000 C 
ENDBRANCH  23  26
ENDBRANCH   1  17
BRANCH   3  28
ATOM     28  O   UNL     1     -11.477  52.466  53.544  0.00  0.00    +0.000 OA
ATOM     29  H   UNL     1     -11.999  52.018  52.909  0.00  0.00    +0.000 HD
ENDBRANCH   3  28
BRANCH   5  30
ATOM     30  C   UNL     1      -6.089  54.038  52.804  0.00  0.00    +0.000 C 
BRANCH  30  31
ATOM     31  C   UNL     1      -5.409  53.473  51.572  0.00  0.00    +0.000 A 
ATOM     32  C   UNL     1      -4.926  54.323  50.569  0.00  0.00    +0.000 A 
ATOM     33  C   UNL     1      -5.319  52.084  51.380  0.00  0.00    +0.000 A 
ATOM     34  C   UNL     1      -4.407  53.798  49.383  0.00  0.00    +0.000 A 
ATOM     35  C   UNL     1      -4.811  51.561  50.190  0.00  0.00    +0.000 A 
ATOM     36  C   UNL     1      -4.368  52.418  49.187  0.00  0.00    +0.000 A 
ENDBRANCH  30  31
ENDBRANCH   5  30
TORSDOF 5
ENDMDL
MODEL 6
REMARK VINA RESULT:      -8.2      2.152      5.103
REMARK  Name = 353028
REMARK  6 active torsions:
REMARK  status: ('A' for Active; 'I' for Inactive)
REMARK    1  A    between atoms: C_6  and  C_10
REMARK    2  A    between atoms: C_14  and  O_18
REMARK    3  A    between atoms: C_15  and  O_20
REMARK    4  A    between atoms: N_17  and  C_22
REMARK    5  A    between atoms: O_20  and  C_24
REMARK    6  A    between atoms: C_22  and  C_26
REMARK                            x       y       z     vdW  Elec       q    Type
REMARK                         _______ _______ _______ _____ _____    ______ ____
ROOT
ATOM      1  C   UNL     1     -10.393  54.162  50.568  0.00  0.00    +0.000 A 
ATOM      2  C   UNL     1     -11.833  54.413  50.893  0.00  0.00    +0.000 A 
ATOM      3  C   UNL     1      -9.916  54.508  49.361  0.00  0.00    +0.000 A 
ATOM      4  O   UNL     1     -12.251  54.049  51.997  0.00  0.00    +0.000 OA
ATOM      5  N   UNL     1     -12.618  55.062  49.960  0.00  0.00    +0.000 N 
ATOM      6  C   UNL     1     -10.808  55.076  48.348  0.00  0.00    +0.000 A 
ATOM      7  C   UNL     1     -12.137  55.370  48.664  0.00  0.00    +0.000 A 
ATOM      8  C   UNL     1     -10.372  55.301  47.036  0.00  0.00    +0.000 A 
ATOM      9  N   UNL     1     -13.000  55.883  47.755  0.00  0.00    +0.000 NA
ATOM     10  C   UNL     1     -11.261  55.788  46.088  0.00  0.00    +0.000 A 
ATOM     11  C   UNL     1     -12.550  56.067  46.493  0.00  0.00    +0.000 A 
ENDROOT
BRANCH   1  17
ATOM     12  S   UNL     1      -9.083  51.708  53.333  0.00  0.00    +0.000 S 
ATOM     13  O   UNL     1      -8.530  50.488  52.780  0.00  0.00    +0.000 OA
ATOM     14  O   UNL     1      -9.921  51.659  54.514  0.00  0.00    +0.000 OA
ATOM     15  N   UNL     1      -9.917  52.446  52.162  0.00  0.00    +0.000 N 
ATOM     16  C   UNL     1      -7.714  52.718  53.752  0.00  0.00    +0.000 A 
ATOM     17  C   UNL     1      -9.484  53.545  51.615  0.00  0.00    +0.000 C 
ATOM     18  C   UNL     1      -7.487  53.852  52.994  0.00  0.00    +0.000 A 
ATOM     19  C   UNL     1      -6.903  52.370  54.834  0.00  0.00    +0.000 A 
ATOM     20  N   UNL     1      -8.303  54.182  51.916  0.00  0.00    +0.000 N 
ATOM     21  C   UNL     1      -6.359  54.623  53.294  0.00  0.00    +0.000 A 
ATOM     22  C   UNL     1      -5.803  53.172  55.144  0.00  0.00    +0.000 A 
ATOM     23  C   UNL     1      -5.520  54.295  54.365  0.00  0.00    +0.000 A 
ATOM     24  H   UNL     1     -10.767  52.056  51.855  0.00  0.00    +0.000 HD
ATOM     25  H   UNL     1      -8.016  54.920  51.330  0.00  0.00    +0.000 HD
BRANCH  23  26
ATOM     26  O   UNL     1      -4.467  55.150  54.544  0.00  0.00    +0.000 OA
ATOM     27  C   UNL     1      -3.303  54.896  53.770  0.00  0.00    +0.000 C 
ENDBRANCH  23  26
ENDBRANCH   1  17
BRANCH   3  28
ATOM     28  O   UNL     1      -8.597  54.366  48.959  0.00  0.00    +0.000 OA
ATOM     29  H   UNL     1      -8.154  55.081  48.546  0.00  0.00    +0.000 HD
ENDBRANCH   3  28
BRANCH   5  30
ATOM     30  C   UNL     1     -13.990  55.428  50.315  0.00  0.00    +0.000 C 
BRANCH  30  31
ATOM     31  C   UNL     1     -14.048  56.765  51.027  0.00  0.00    +0.000 A 
ATOM     32  C   UNL     1     -14.196  56.828  52.418  0.00  0.00    +0.000 A 
ATOM     33  C   UNL     1     -14.031  57.965  50.296  0.00  0.00    +0.000 A 
ATOM     34  C   UNL     1     -14.368  58.058  53.059  0.00  0.00    +0.000 A 
ATOM     35  C   UNL     1     -14.215  59.192  50.936  0.00  0.00    +0.000 A 
ATOM     36  C   UNL     1     -14.396  59.236  52.315  0.00  0.00    +0.000 A 
ENDBRANCH  30  31
ENDBRANCH   5  30
TORSDOF 5
ENDMDL
MODEL 7
REMARK VINA RESULT:      -7.9      2.911      8.282
REMARK  Name = 353028
REMARK  6 active torsions:
REMARK  status: ('A' for Active; 'I' for Inactive)
REMARK    1  A    between atoms: C_6  and  C_10
REMARK    2  A    between atoms: C_14  and  O_18
REMARK    3  A    between atoms: C_15  and  O_20
REMARK    4  A    between atoms: N_17  and  C_22
REMARK    5  A    between atoms: O_20  and  C_24
REMARK    6  A    between atoms: C_22  and  C_26
REMARK                            x       y       z     vdW  Elec       q    Type
REMARK                         _______ _______ _______ _____ _____    ______ ____
ROOT
ATOM      1  C   UNL     1      -9.776  53.392  51.161  0.00  0.00    +0.000 A 
ATOM      2  C   UNL     1      -8.316  53.213  50.883  0.00  0.00    +0.000 A 
ATOM      3  C   UNL     1     -10.284  52.975  52.332  0.00  0.00    +0.000 A 
ATOM      4  O   UNL     1      -7.885  53.571  49.782  0.00  0.00    +0.000 OA
ATOM      5  N   UNL     1      -7.514  52.684  51.875  0.00  0.00    +0.000 N 
ATOM      6  C   UNL     1      -9.429  52.300  53.310  0.00  0.00    +0.000 A 
ATOM      7  C   UNL     1      -8.054  52.184  53.086  0.00  0.00    +0.000 A 
ATOM      8  C   UNL     1      -9.963  51.720  54.468  0.00  0.00    +0.000 A 
ATOM      9  N   UNL     1      -7.229  51.556  53.957  0.00  0.00    +0.000 NA
ATOM     10  C   UNL     1      -9.131  51.039  55.345  0.00  0.00    +0.000 A 
ATOM     11  C   UNL     1      -7.784  50.990  55.052  0.00  0.00    +0.000 A 
ENDROOT
BRANCH   1  17
ATOM     12  S   UNL     1     -11.328  54.333  47.684  0.00  0.00    +0.000 S 
ATOM     13  O   UNL     1     -12.300  53.360  47.225  0.00  0.00    +0.000 OA
ATOM     14  O   UNL     1     -10.376  54.906  46.755  0.00  0.00    +0.000 OA
ATOM     15  N   UNL     1     -10.499  53.665  48.899  0.00  0.00    +0.000 N 
ATOM     16  C   UNL     1     -12.251  55.678  48.323  0.00  0.00    +0.000 A 
ATOM     17  C   UNL     1     -10.659  54.067  50.127  0.00  0.00    +0.000 C 
ATOM     18  C   UNL     1     -12.238  55.883  49.691  0.00  0.00    +0.000 A 
ATOM     19  C   UNL     1     -12.955  56.511  47.452  0.00  0.00    +0.000 A 
ATOM     20  N   UNL     1     -11.534  55.040  50.546  0.00  0.00    +0.000 N 
ATOM     21  C   UNL     1     -13.024  56.921  50.203  0.00  0.00    +0.000 A 
ATOM     22  C   UNL     1     -13.704  57.567  47.976  0.00  0.00    +0.000 A 
ATOM     23  C   UNL     1     -13.750  57.767  49.358  0.00  0.00    +0.000 A 
ATOM     24  H   UNL     1      -9.862  52.939  48.707  0.00  0.00    +0.000 HD
ATOM     25  H   UNL     1     -11.671  55.149  51.515  0.00  0.00    +0.000 HD
BRANCH  23  26
ATOM     26  O   UNL     1     -14.457  58.744  50.003  0.00  0.00    +0.000 OA
ATOM     27  C   UNL     1     -14.054  60.085  49.763  0.00  0.00    +0.000 C 
ENDBRANCH  23  26
ENDBRANCH   1  17
BRANCH   3  28
ATOM     28  O   UNL     1     -11.606  53.123  52.721  0.00  0.00    +0.000 OA
ATOM     29  H   UNL     1     -12.291  52.741  52.207  0.00  0.00    +0.000 HD
ENDBRANCH   3  28
BRANCH   5  30
ATOM     30  C   UNL     1      -6.067  52.623  51.665  0.00  0.00    +0.000 C 
BRANCH  30  31
ATOM     31  C   UNL     1      -5.333  53.641  52.517  0.00  0.00    +0.000 A 
ATOM     32  C   UNL     1      -3.956  53.522  52.745  0.00  0.00    +0.000 A 
ATOM     33  C   UNL     1      -6.033  54.679  53.154  0.00  0.00    +0.000 A 
ATOM     34  C   UNL     1      -3.304  54.391  53.624  0.00  0.00    +0.000 A 
ATOM     35  C   UNL     1      -5.384  55.539  54.040  0.00  0.00    +0.000 A 
ATOM     36  C   UNL     1      -4.023  55.386  54.285  0.00  0.00    +0.000 A 
ENDBRANCH  30  31
ENDBRANCH   5  30
TORSDOF 5
ENDMDL
MODEL 8
REMARK VINA RESULT:      -7.6      2.651      8.268
REMARK  Name = 353028
REMARK  6 active torsions:
REMARK  status: ('A' for Active; 'I' for Inactive)
REMARK    1  A    between atoms: C_6  and  C_10
REMARK    2  A    between atoms: C_14  and  O_18
REMARK    3  A    between atoms: C_15  and  O_20
REMARK    4  A    between atoms: N_17  and  C_22
REMARK    5  A    between atoms: O_20  and  C_24
REMARK    6  A    between atoms: C_22  and  C_26
REMARK                            x       y       z     vdW  Elec       q    Type
REMARK                         _______ _______ _______ _____ _____    ______ ____
ROOT
ATOM      1  C   UNL     1      -9.513  53.136  51.591  0.00  0.00    +0.000 A 
ATOM      2  C   UNL     1      -8.055  52.797  51.565  0.00  0.00    +0.000 A 
ATOM      3  C   UNL     1     -10.250  52.812  52.665  0.00  0.00    +0.000 A 
ATOM      4  O   UNL     1      -7.412  53.072  50.547  0.00  0.00    +0.000 OA
ATOM      5  N   UNL     1      -7.491  52.219  52.685  0.00  0.00    +0.000 N 
ATOM      6  C   UNL     1      -9.648  52.084  53.783  0.00  0.00    +0.000 A 
ATOM      7  C   UNL     1      -8.276  51.817  53.795  0.00  0.00    +0.000 A 
ATOM      8  C   UNL     1     -10.426  51.600  54.842  0.00  0.00    +0.000 A 
ATOM      9  N   UNL     1      -7.680  51.134  54.801  0.00  0.00    +0.000 NA
ATOM     10  C   UNL     1      -9.830  50.864  55.857  0.00  0.00    +0.000 A 
ATOM     11  C   UNL     1      -8.466  50.665  55.795  0.00  0.00    +0.000 A 
ENDROOT
BRANCH   1  17
ATOM     12  S   UNL     1     -11.727  55.665  49.567  0.00  0.00    +0.000 S 
ATOM     13  O   UNL     1     -11.147  56.992  49.510  0.00  0.00    +0.000 OA
ATOM     14  O   UNL     1     -13.149  55.499  49.785  0.00  0.00    +0.000 OA
ATOM     15  N   UNL     1     -10.947  54.836  50.716  0.00  0.00    +0.000 N 
ATOM     16  C   UNL     1     -11.382  54.916  48.021  0.00  0.00    +0.000 A 
ATOM     17  C   UNL     1     -10.134  53.866  50.414  0.00  0.00    +0.000 C 
ATOM     18  C   UNL     1     -10.465  53.881  47.990  0.00  0.00    +0.000 A 
ATOM     19  C   UNL     1     -12.043  55.361  46.874  0.00  0.00    +0.000 A 
ATOM     20  N   UNL     1      -9.813  53.453  49.142  0.00  0.00    +0.000 N 
ATOM     21  C   UNL     1     -10.148  53.327  46.745  0.00  0.00    +0.000 A 
ATOM     22  C   UNL     1     -11.744  54.770  45.645  0.00  0.00    +0.000 A 
ATOM     23  C   UNL     1     -10.784  53.757  45.576  0.00  0.00    +0.000 A 
ATOM     24  H   UNL     1     -11.090  55.071  51.661  0.00  0.00    +0.000 HD
ATOM     25  H   UNL     1      -9.073  52.811  49.041  0.00  0.00    +0.000 HD
BRANCH  23  26
ATOM     26  O   UNL     1     -10.381  53.111  44.440  0.00  0.00    +0.000 OA
ATOM     27  C   UNL     1      -9.007  52.761  44.359  0.00  0.00    +0.000 C 
ENDBRANCH  23  26
ENDBRANCH   1  17
BRANCH   3  28
ATOM     28  O   UNL     1     -11.595  53.110  52.824  0.00  0.00    +0.000 OA
ATOM     29  H   UNL     1     -11.919  53.380  53.661  0.00  0.00    +0.000 HD
ENDBRANCH   3  28
BRANCH   5  30
ATOM     30  C   UNL     1      -6.044  52.000  52.723  0.00  0.00    +0.000 C 
BRANCH  30  31
ATOM     31  C   UNL     1      -5.301  53.239  53.185  0.00  0.00    +0.000 A 
ATOM     32  C   UNL     1      -4.032  53.542  52.675  0.00  0.00    +0.000 A 
ATOM     33  C   UNL     1      -5.838  54.062  54.188  0.00  0.00    +0.000 A 
ATOM     34  C   UNL     1      -3.300  54.616  53.186  0.00  0.00    +0.000 A 
ATOM     35  C   UNL     1      -5.101  55.127  54.707  0.00  0.00    +0.000 A 
ATOM     36  C   UNL     1      -3.828  55.396  54.215  0.00  0.00    +0.000 A 
ENDBRANCH  30  31
ENDBRANCH   5  30
TORSDOF 5
ENDMDL
MODEL 9
REMARK VINA RESULT:      -7.6      3.121      7.844
REMARK  Name = 353028
REMARK  6 active torsions:
REMARK  status: ('A' for Active; 'I' for Inactive)
REMARK    1  A    between atoms: C_6  and  C_10
REMARK    2  A    between atoms: C_14  and  O_18
REMARK    3  A    between atoms: C_15  and  O_20
REMARK    4  A    between atoms: N_17  and  C_22
REMARK    5  A    between atoms: O_20  and  C_24
REMARK    6  A    between atoms: C_22  and  C_26
REMARK                            x       y       z     vdW  Elec       q    Type
REMARK                         _______ _______ _______ _____ _____    ______ ____
ROOT
ATOM      1  C   UNL     1      -9.166  54.242  50.999  0.00  0.00    +0.000 A 
ATOM      2  C   UNL     1      -9.024  52.793  51.350  0.00  0.00    +0.000 A 
ATOM      3  C   UNL     1      -8.362  55.147  51.581  0.00  0.00    +0.000 A 
ATOM      4  O   UNL     1      -9.804  51.990  50.828  0.00  0.00    +0.000 OA
ATOM      5  N   UNL     1      -8.016  52.419  52.215  0.00  0.00    +0.000 N 
ATOM      6  C   UNL     1      -7.389  54.730  52.592  0.00  0.00    +0.000 A 
ATOM      7  C   UNL     1      -7.207  53.374  52.880  0.00  0.00    +0.000 A 
ATOM      8  C   UNL     1      -6.649  55.668  53.323  0.00  0.00    +0.000 A 
ATOM      9  N   UNL     1      -6.329  52.945  53.817  0.00  0.00    +0.000 NA
ATOM     10  C   UNL     1      -5.777  55.239  54.313  0.00  0.00    +0.000 A 
ATOM     11  C   UNL     1      -5.648  53.880  54.517  0.00  0.00    +0.000 A 
ENDROOT
BRANCH   1  17
ATOM     12  S   UNL     1     -11.113  54.473  47.602  0.00  0.00    +0.000 S 
ATOM     13  O   UNL     1     -12.030  53.367  47.409  0.00  0.00    +0.000 OA
ATOM     14  O   UNL     1     -10.308  54.953  46.499  0.00  0.00    +0.000 OA
ATOM     15  N   UNL     1     -10.117  54.080  48.813  0.00  0.00    +0.000 N 
ATOM     16  C   UNL     1     -12.092  55.832  48.116  0.00  0.00    +0.000 A 
ATOM     17  C   UNL     1     -10.199  54.667  49.972  0.00  0.00    +0.000 C 
ATOM     18  C   UNL     1     -11.972  56.262  49.425  0.00  0.00    +0.000 A 
ATOM     19  C   UNL     1     -12.948  56.453  47.204  0.00  0.00    +0.000 A 
ATOM     20  N   UNL     1     -11.117  55.628  50.323  0.00  0.00    +0.000 N 
ATOM     21  C   UNL     1     -12.798  57.308  49.847  0.00  0.00    +0.000 A 
ATOM     22  C   UNL     1     -13.737  57.522  47.631  0.00  0.00    +0.000 A 
ATOM     23  C   UNL     1     -13.674  57.945  48.961  0.00  0.00    +0.000 A 
ATOM     24  H   UNL     1      -9.437  53.382  48.671  0.00  0.00    +0.000 HD
ATOM     25  H   UNL     1     -11.173  55.886  51.271  0.00  0.00    +0.000 HD
BRANCH  23  26
ATOM     26  O   UNL     1     -14.405  58.959  49.515  0.00  0.00    +0.000 OA
ATOM     27  C   UNL     1     -13.694  60.139  49.866  0.00  0.00    +0.000 C 
ENDBRANCH  23  26
ENDBRANCH   1  17
BRANCH   3  28
ATOM     28  O   UNL     1      -8.370  56.506  51.308  0.00  0.00    +0.000 OA
ATOM     29  H   UNL     1      -9.120  56.899  50.908  0.00  0.00    +0.000 HD
ENDBRANCH   3  28
BRANCH   5  30
ATOM     30  C   UNL     1      -7.783  50.995  52.466  0.00  0.00    +0.000 C 
BRANCH  30  31
ATOM     31  C   UNL     1      -6.773  50.412  51.497  0.00  0.00    +0.000 A 
ATOM     32  C   UNL     1      -7.188  49.853  50.282  0.00  0.00    +0.000 A 
ATOM     33  C   UNL     1      -5.410  50.354  51.835  0.00  0.00    +0.000 A 
ATOM     34  C   UNL     1      -6.271  49.212  49.446  0.00  0.00    +0.000 A 
ATOM     35  C   UNL     1      -4.497  49.703  51.005  0.00  0.00    +0.000 A 
ATOM     36  C   UNL     1      -4.930  49.121  49.817  0.00  0.00    +0.000 A 
ENDBRANCH  30  31
ENDBRANCH   5  30
TORSDOF 5
ENDMDL
