MODEL 1
REMARK VINA RESULT:      -8.5      0.000      0.000
REMARK  Name = 353127
REMARK  4 active torsions:
REMARK  status: ('A' for Active; 'I' for Inactive)
REMARK    1  A    between atoms: C_13  and  C_14
REMARK    2  A    between atoms: C_16  and  O_19
REMARK    3  A    between atoms: N_18  and  C_22
REMARK    4  A    between atoms: C_22  and  C_25
REMARK                            x       y       z     vdW  Elec       q    Type
REMARK                         _______ _______ _______ _____ _____    ______ ____
ROOT
ATOM      1  C   UNL     1     -10.536  55.818  50.714  0.00  0.00    +0.000 A 
ATOM      2  C   UNL     1     -10.085  56.078  49.320  0.00  0.00    +0.000 A 
ATOM      3  C   UNL     1     -11.841  56.030  50.958  0.00  0.00    +0.000 A 
ATOM      4  O   UNL     1      -8.984  56.578  49.092  0.00  0.00    +0.000 OA
ATOM      5  N   UNL     1     -10.984  55.591  48.361  0.00  0.00    +0.000 N 
ATOM      6  C   UNL     1     -12.661  56.541  49.856  0.00  0.00    +0.000 A 
ATOM      7  C   UNL     1     -12.275  56.205  48.541  0.00  0.00    +0.000 A 
ATOM      8  C   UNL     1     -13.753  57.379  50.050  0.00  0.00    +0.000 A 
ATOM      9  N   UNL     1     -12.924  56.664  47.452  0.00  0.00    +0.000 NA
ATOM     10  C   UNL     1     -14.387  57.913  48.935  0.00  0.00    +0.000 A 
ATOM     11  C   UNL     1     -13.947  57.524  47.675  0.00  0.00    +0.000 A 
ENDROOT
BRANCH   1  24
ATOM     12 BR   UNL     1      -6.727  50.607  56.092  0.00  0.00    +0.000 Br
ATOM     13  C   UNL     1      -7.809  51.650  54.951  0.00  0.00    +0.000 A 
ATOM     14  C   UNL     1      -7.273  52.785  54.354  0.00  0.00    +0.000 A 
ATOM     15  C   UNL     1      -9.125  51.282  54.694  0.00  0.00    +0.000 A 
ATOM     16  C   UNL     1      -8.089  53.532  53.505  0.00  0.00    +0.000 A 
ATOM     17  C   UNL     1      -9.929  52.064  53.838  0.00  0.00    +0.000 A 
ATOM     18  S   UNL     1      -7.400  54.946  52.738  0.00  0.00    +0.000 S 
ATOM     19  C   UNL     1      -9.413  53.217  53.238  0.00  0.00    +0.000 A 
ATOM     20  O   UNL     1      -6.244  54.485  51.994  0.00  0.00    +0.000 OA
ATOM     21  O   UNL     1      -7.259  55.942  53.783  0.00  0.00    +0.000 OA
ATOM     22  N   UNL     1      -8.465  55.490  51.669  0.00  0.00    +0.000 N 
ATOM     23  N   UNL     1     -10.182  53.965  52.345  0.00  0.00    +0.000 N 
ATOM     24  C   UNL     1      -9.673  55.018  51.623  0.00  0.00    +0.000 C 
ATOM     25  H   UNL     1      -8.197  56.196  51.036  0.00  0.00    +0.000 HD
ATOM     26  H   UNL     1     -11.130  53.728  52.226  0.00  0.00    +0.000 HD
ENDBRANCH   1  24
BRANCH   3  27
ATOM     27  O   UNL     1     -12.518  55.676  52.103  0.00  0.00    +0.000 OA
ATOM     28  H   UNL     1     -12.441  54.806  52.443  0.00  0.00    +0.000 HD
ENDBRANCH   3  27
BRANCH   5  29
ATOM     29  C   UNL     1     -11.022  54.111  48.392  0.00  0.00    +0.000 C 
BRANCH  29  30
ATOM     30  C   UNL     1     -11.364  53.413  47.106  0.00  0.00    +0.000 A 
ATOM     31  C   UNL     1     -10.915  53.927  45.883  0.00  0.00    +0.000 A 
ATOM     32  C   UNL     1     -12.037  52.181  47.122  0.00  0.00    +0.000 A 
ATOM     33  C   UNL     1     -11.177  53.248  44.693  0.00  0.00    +0.000 A 
ATOM     34  C   UNL     1     -12.301  51.506  45.929  0.00  0.00    +0.000 A 
ATOM     35  C   UNL     1     -11.882  52.045  44.715  0.00  0.00    +0.000 A 
ENDBRANCH  29  30
ENDBRANCH   5  29
TORSDOF 4
ENDMDL
MODEL 2
REMARK VINA RESULT:      -8.5      3.489      6.596
REMARK  Name = 353127
REMARK  4 active torsions:
REMARK  status: ('A' for Active; 'I' for Inactive)
REMARK    1  A    between atoms: C_13  and  C_14
REMARK    2  A    between atoms: C_16  and  O_19
REMARK    3  A    between atoms: N_18  and  C_22
REMARK    4  A    between atoms: C_22  and  C_25
REMARK                            x       y       z     vdW  Elec       q    Type
REMARK                         _______ _______ _______ _____ _____    ______ ____
ROOT
ATOM      1  C   UNL     1     -12.427  54.423  49.478  0.00  0.00    +0.000 A 
ATOM      2  C   UNL     1     -12.242  54.122  50.924  0.00  0.00    +0.000 A 
ATOM      3  C   UNL     1     -13.124  55.537  49.195  0.00  0.00    +0.000 A 
ATOM      4  O   UNL     1     -12.272  52.964  51.341  0.00  0.00    +0.000 OA
ATOM      5  N   UNL     1     -11.926  55.262  51.677  0.00  0.00    +0.000 N 
ATOM      6  C   UNL     1     -13.669  56.298  50.322  0.00  0.00    +0.000 A 
ATOM      7  C   UNL     1     -12.974  56.241  51.550  0.00  0.00    +0.000 A 
ATOM      8  C   UNL     1     -14.857  57.018  50.247  0.00  0.00    +0.000 A 
ATOM      9  N   UNL     1     -13.414  56.859  52.665  0.00  0.00    +0.000 NA
ATOM     10  C   UNL     1     -15.354  57.600  51.406  0.00  0.00    +0.000 A 
ATOM     11  C   UNL     1     -14.603  57.501  52.571  0.00  0.00    +0.000 A 
ENDROOT
BRANCH   1  24
ATOM     12 BR   UNL     1      -8.357  51.089  42.929  0.00  0.00    +0.000 Br
ATOM     13  C   UNL     1      -9.450  51.924  44.219  0.00  0.00    +0.000 A 
ATOM     14  C   UNL     1      -9.210  51.691  45.569  0.00  0.00    +0.000 A 
ATOM     15  C   UNL     1     -10.478  52.777  43.831  0.00  0.00    +0.000 A 
ATOM     16  C   UNL     1     -10.024  52.330  46.503  0.00  0.00    +0.000 A 
ATOM     17  C   UNL     1     -11.291  53.401  44.800  0.00  0.00    +0.000 A 
ATOM     18  S   UNL     1      -9.700  52.052  48.201  0.00  0.00    +0.000 S 
ATOM     19  C   UNL     1     -11.074  53.170  46.163  0.00  0.00    +0.000 A 
ATOM     20  O   UNL     1      -8.324  52.450  48.425  0.00  0.00    +0.000 OA
ATOM     21  O   UNL     1     -10.133  50.695  48.475  0.00  0.00    +0.000 OA
ATOM     22  N   UNL     1     -10.626  53.052  49.046  0.00  0.00    +0.000 N 
ATOM     23  N   UNL     1     -11.836  53.827  47.131  0.00  0.00    +0.000 N 
ATOM     24  C   UNL     1     -11.565  53.743  48.476  0.00  0.00    +0.000 C 
ATOM     25  H   UNL     1     -10.479  53.143  50.016  0.00  0.00    +0.000 HD
ATOM     26  H   UNL     1     -12.599  54.374  46.837  0.00  0.00    +0.000 HD
ENDBRANCH   1  24
BRANCH   3  27
ATOM     27  O   UNL     1     -13.254  56.116  47.954  0.00  0.00    +0.000 OA
ATOM     28  H   UNL     1     -12.834  55.729  47.210  0.00  0.00    +0.000 HD
ENDBRANCH   3  27
BRANCH   5  29
ATOM     29  C   UNL     1     -10.587  55.774  51.305  0.00  0.00    +0.000 C 
BRANCH  29  30
ATOM     30  C   UNL     1      -9.400  55.037  51.854  0.00  0.00    +0.000 A 
ATOM     31  C   UNL     1      -8.270  54.822  51.054  0.00  0.00    +0.000 A 
ATOM     32  C   UNL     1      -9.361  54.654  53.203  0.00  0.00    +0.000 A 
ATOM     33  C   UNL     1      -7.142  54.192  51.578  0.00  0.00    +0.000 A 
ATOM     34  C   UNL     1      -8.232  54.021  53.725  0.00  0.00    +0.000 A 
ATOM     35  C   UNL     1      -7.129  53.780  52.910  0.00  0.00    +0.000 A 
ENDBRANCH  29  30
ENDBRANCH   5  29
TORSDOF 4
ENDMDL
MODEL 3
REMARK VINA RESULT:      -8.4      2.202      2.694
REMARK  Name = 353127
REMARK  4 active torsions:
REMARK  status: ('A' for Active; 'I' for Inactive)
REMARK    1  A    between atoms: C_13  and  C_14
REMARK    2  A    between atoms: C_16  and  O_19
REMARK    3  A    between atoms: N_18  and  C_22
REMARK    4  A    between atoms: C_22  and  C_25
REMARK                            x       y       z     vdW  Elec       q    Type
REMARK                         _______ _______ _______ _____ _____    ______ ____
ROOT
ATOM      1  C   UNL     1     -10.210  55.481  50.942  0.00  0.00    +0.000 A 
ATOM      2  C   UNL     1     -10.100  56.254  49.674  0.00  0.00    +0.000 A 
ATOM      3  C   UNL     1     -11.459  55.249  51.382  0.00  0.00    +0.000 A 
ATOM      4  O   UNL     1      -9.201  57.078  49.509  0.00  0.00    +0.000 OA
ATOM      5  N   UNL     1     -11.033  55.846  48.711  0.00  0.00    +0.000 N 
ATOM      6  C   UNL     1     -12.565  55.821  50.609  0.00  0.00    +0.000 A 
ATOM      7  C   UNL     1     -12.370  56.006  49.223  0.00  0.00    +0.000 A 
ATOM      8  C   UNL     1     -13.759  56.235  51.188  0.00  0.00    +0.000 A 
ATOM      9  N   UNL     1     -13.299  56.572  48.427  0.00  0.00    +0.000 NA
ATOM     10  C   UNL     1     -14.695  56.881  50.389  0.00  0.00    +0.000 A 
ATOM     11  C   UNL     1     -14.426  57.016  49.033  0.00  0.00    +0.000 A 
ENDROOT
BRANCH   1  24
ATOM     12 BR   UNL     1      -3.301  50.951  52.466  0.00  0.00    +0.000 Br
ATOM     13  C   UNL     1      -4.811  51.909  51.865  0.00  0.00    +0.000 A 
ATOM     14  C   UNL     1      -5.732  52.380  52.793  0.00  0.00    +0.000 A 
ATOM     15  C   UNL     1      -4.998  52.158  50.510  0.00  0.00    +0.000 A 
ATOM     16  C   UNL     1      -6.833  53.096  52.326  0.00  0.00    +0.000 A 
ATOM     17  C   UNL     1      -6.127  52.877  50.066  0.00  0.00    +0.000 A 
ATOM     18  S   UNL     1      -7.976  53.707  53.502  0.00  0.00    +0.000 S 
ATOM     19  C   UNL     1      -7.072  53.349  50.983  0.00  0.00    +0.000 A 
ATOM     20  O   UNL     1      -7.218  54.548  54.409  0.00  0.00    +0.000 OA
ATOM     21  O   UNL     1      -8.702  52.552  53.995  0.00  0.00    +0.000 OA
ATOM     22  N   UNL     1      -9.012  54.657  52.730  0.00  0.00    +0.000 N 
ATOM     23  N   UNL     1      -8.163  54.110  50.559  0.00  0.00    +0.000 N 
ATOM     24  C   UNL     1      -9.035  54.714  51.433  0.00  0.00    +0.000 C 
ATOM     25  H   UNL     1      -9.643  55.207  53.249  0.00  0.00    +0.000 HD
ATOM     26  H   UNL     1      -8.314  54.220  49.593  0.00  0.00    +0.000 HD
ENDBRANCH   1  24
BRANCH   3  27
ATOM     27  O   UNL     1     -11.811  54.404  52.409  0.00  0.00    +0.000 OA
ATOM     28  H   UNL     1     -11.542  54.594  53.286  0.00  0.00    +0.000 HD
ENDBRANCH   3  27
BRANCH   5  29
ATOM     29  C   UNL     1     -10.735  54.471  48.250  0.00  0.00    +0.000 C 
BRANCH  29  30
ATOM     30  C   UNL     1      -9.945  54.336  46.979  0.00  0.00    +0.000 A 
ATOM     31  C   UNL     1      -8.687  54.942  46.863  0.00  0.00    +0.000 A 
ATOM     32  C   UNL     1     -10.402  53.512  45.940  0.00  0.00    +0.000 A 
ATOM     33  C   UNL     1      -7.924  54.769  45.709  0.00  0.00    +0.000 A 
ATOM     34  C   UNL     1      -9.638  53.342  44.785  0.00  0.00    +0.000 A 
ATOM     35  C   UNL     1      -8.406  53.979  44.665  0.00  0.00    +0.000 A 
ENDBRANCH  29  30
ENDBRANCH   5  29
TORSDOF 4
ENDMDL
MODEL 4
REMARK VINA RESULT:      -8.4      1.875      2.373
REMARK  Name = 353127
REMARK  4 active torsions:
REMARK  status: ('A' for Active; 'I' for Inactive)
REMARK    1  A    between atoms: C_13  and  C_14
REMARK    2  A    between atoms: C_16  and  O_19
REMARK    3  A    between atoms: N_18  and  C_22
REMARK    4  A    between atoms: C_22  and  C_25
REMARK                            x       y       z     vdW  Elec       q    Type
REMARK                         _______ _______ _______ _____ _____    ______ ____
ROOT
ATOM      1  C   UNL     1     -10.326  55.463  50.999  0.00  0.00    +0.000 A 
ATOM      2  C   UNL     1     -10.660  55.937  49.628  0.00  0.00    +0.000 A 
ATOM      3  C   UNL     1     -11.334  55.484  51.889  0.00  0.00    +0.000 A 
ATOM      4  O   UNL     1      -9.852  56.591  48.968  0.00  0.00    +0.000 OA
ATOM      5  N   UNL     1     -11.898  55.458  49.178  0.00  0.00    +0.000 N 
ATOM      6  C   UNL     1     -12.622  56.017  51.439  0.00  0.00    +0.000 A 
ATOM      7  C   UNL     1     -12.945  55.885  50.071  0.00  0.00    +0.000 A 
ATOM      8  C   UNL     1     -13.502  56.687  52.282  0.00  0.00    +0.000 A 
ATOM      9  N   UNL     1     -14.078  56.385  49.539  0.00  0.00    +0.000 NA
ATOM     10  C   UNL     1     -14.638  57.266  51.732  0.00  0.00    +0.000 A 
ATOM     11  C   UNL     1     -14.883  57.082  50.376  0.00  0.00    +0.000 A 
ENDROOT
BRANCH   1  24
ATOM     12 BR   UNL     1      -3.587  51.107  53.487  0.00  0.00    +0.000 Br
ATOM     13  C   UNL     1      -5.146  52.126  53.189  0.00  0.00    +0.000 A 
ATOM     14  C   UNL     1      -5.454  52.539  51.899  0.00  0.00    +0.000 A 
ATOM     15  C   UNL     1      -5.991  52.451  54.245  0.00  0.00    +0.000 A 
ATOM     16  C   UNL     1      -6.618  53.281  51.703  0.00  0.00    +0.000 A 
ATOM     17  C   UNL     1      -7.157  53.211  54.017  0.00  0.00    +0.000 A 
ATOM     18  S   UNL     1      -7.012  53.777  50.071  0.00  0.00    +0.000 S 
ATOM     19  C   UNL     1      -7.478  53.648  52.727  0.00  0.00    +0.000 A 
ATOM     20  O   UNL     1      -7.089  52.562  49.282  0.00  0.00    +0.000 OA
ATOM     21  O   UNL     1      -6.066  54.822  49.729  0.00  0.00    +0.000 OA
ATOM     22  N   UNL     1      -8.480  54.420  50.096  0.00  0.00    +0.000 N 
ATOM     23  N   UNL     1      -8.658  54.352  52.482  0.00  0.00    +0.000 N 
ATOM     24  C   UNL     1      -9.085  54.674  51.216  0.00  0.00    +0.000 C 
ATOM     25  H   UNL     1      -8.932  54.626  49.245  0.00  0.00    +0.000 HD
ATOM     26  H   UNL     1      -9.209  54.629  53.249  0.00  0.00    +0.000 HD
ENDBRANCH   1  24
BRANCH   3  27
ATOM     27  O   UNL     1     -11.316  54.920  53.144  0.00  0.00    +0.000 OA
ATOM     28  H   UNL     1     -11.403  55.462  53.903  0.00  0.00    +0.000 HD
ENDBRANCH   3  27
BRANCH   5  29
ATOM     29  C   UNL     1     -11.847  53.991  48.982  0.00  0.00    +0.000 C 
BRANCH  29  30
ATOM     30  C   UNL     1     -11.835  53.494  47.565  0.00  0.00    +0.000 A 
ATOM     31  C   UNL     1     -12.276  52.198  47.268  0.00  0.00    +0.000 A 
ATOM     32  C   UNL     1     -11.491  54.355  46.512  0.00  0.00    +0.000 A 
ATOM     33  C   UNL     1     -12.325  51.754  45.947  0.00  0.00    +0.000 A 
ATOM     34  C   UNL     1     -11.537  53.907  45.191  0.00  0.00    +0.000 A 
ATOM     35  C   UNL     1     -11.943  52.604  44.910  0.00  0.00    +0.000 A 
ENDBRANCH  29  30
ENDBRANCH   5  29
TORSDOF 4
ENDMDL
MODEL 5
REMARK VINA RESULT:      -8.2      3.821      6.729
REMARK  Name = 353127
REMARK  4 active torsions:
REMARK  status: ('A' for Active; 'I' for Inactive)
REMARK    1  A    between atoms: C_13  and  C_14
REMARK    2  A    between atoms: C_16  and  O_19
REMARK    3  A    between atoms: N_18  and  C_22
REMARK    4  A    between atoms: C_22  and  C_25
REMARK                            x       y       z     vdW  Elec       q    Type
REMARK                         _______ _______ _______ _____ _____    ______ ____
ROOT
ATOM      1  C   UNL     1     -11.037  53.935  46.812  0.00  0.00    +0.000 A 
ATOM      2  C   UNL     1      -9.732  54.479  46.343  0.00  0.00    +0.000 A 
ATOM      3  C   UNL     1     -11.410  52.760  46.276  0.00  0.00    +0.000 A 
ATOM      4  O   UNL     1      -9.573  55.686  46.171  0.00  0.00    +0.000 OA
ATOM      5  N   UNL     1      -8.739  53.493  46.251  0.00  0.00    +0.000 N 
ATOM      6  C   UNL     1     -10.533  52.172  45.259  0.00  0.00    +0.000 A 
ATOM      7  C   UNL     1      -9.154  52.461  45.336  0.00  0.00    +0.000 A 
ATOM      8  C   UNL     1     -11.007  51.398  44.206  0.00  0.00    +0.000 A 
ATOM      9  N   UNL     1      -8.265  52.017  44.424  0.00  0.00    +0.000 NA
ATOM     10  C   UNL     1     -10.112  50.993  43.224  0.00  0.00    +0.000 A 
ATOM     11  C   UNL     1      -8.769  51.316  43.380  0.00  0.00    +0.000 A 
ENDROOT
BRANCH   1  24
ATOM     12 BR   UNL     1     -15.016  57.905  53.055  0.00  0.00    +0.000 Br
ATOM     13  C   UNL     1     -14.210  57.213  51.497  0.00  0.00    +0.000 A 
ATOM     14  C   UNL     1     -13.310  56.159  51.605  0.00  0.00    +0.000 A 
ATOM     15  C   UNL     1     -14.521  57.738  50.247  0.00  0.00    +0.000 A 
ATOM     16  C   UNL     1     -12.738  55.657  50.438  0.00  0.00    +0.000 A 
ATOM     17  C   UNL     1     -13.918  57.215  49.084  0.00  0.00    +0.000 A 
ATOM     18  S   UNL     1     -11.624  54.314  50.580  0.00  0.00    +0.000 S 
ATOM     19  C   UNL     1     -13.000  56.163  49.173  0.00  0.00    +0.000 A 
ATOM     20  O   UNL     1     -12.352  53.249  51.243  0.00  0.00    +0.000 OA
ATOM     21  O   UNL     1     -10.412  54.857  51.162  0.00  0.00    +0.000 OA
ATOM     22  N   UNL     1     -11.282  53.803  49.099  0.00  0.00    +0.000 N 
ATOM     23  N   UNL     1     -12.441  55.601  48.024  0.00  0.00    +0.000 N 
ATOM     24  C   UNL     1     -11.649  54.478  48.053  0.00  0.00    +0.000 C 
ATOM     25  H   UNL     1     -10.783  52.962  48.981  0.00  0.00    +0.000 HD
ATOM     26  H   UNL     1     -12.621  56.028  47.156  0.00  0.00    +0.000 HD
ENDBRANCH   1  24
BRANCH   3  27
ATOM     27  O   UNL     1     -12.464  51.980  46.692  0.00  0.00    +0.000 OA
ATOM     28  H   UNL     1     -12.350  51.055  46.798  0.00  0.00    +0.000 HD
ENDBRANCH   3  27
BRANCH   5  29
ATOM     29  C   UNL     1      -8.386  52.986  47.597  0.00  0.00    +0.000 C 
BRANCH  29  30
ATOM     30  C   UNL     1      -7.235  53.653  48.294  0.00  0.00    +0.000 A 
ATOM     31  C   UNL     1      -5.917  53.303  47.974  0.00  0.00    +0.000 A 
ATOM     32  C   UNL     1      -7.461  54.711  49.189  0.00  0.00    +0.000 A 
ATOM     33  C   UNL     1      -4.845  53.964  48.574  0.00  0.00    +0.000 A 
ATOM     34  C   UNL     1      -6.386  55.368  49.791  0.00  0.00    +0.000 A 
ATOM     35  C   UNL     1      -5.081  54.986  49.492  0.00  0.00    +0.000 A 
ENDBRANCH  29  30
ENDBRANCH   5  29
TORSDOF 4
ENDMDL
MODEL 6
REMARK VINA RESULT:      -8.1      3.089      5.427
REMARK  Name = 353127
REMARK  4 active torsions:
REMARK  status: ('A' for Active; 'I' for Inactive)
REMARK    1  A    between atoms: C_13  and  C_14
REMARK    2  A    between atoms: C_16  and  O_19
REMARK    3  A    between atoms: N_18  and  C_22
REMARK    4  A    between atoms: C_22  and  C_25
REMARK                            x       y       z     vdW  Elec       q    Type
REMARK                         _______ _______ _______ _____ _____    ______ ____
ROOT
ATOM      1  C   UNL     1      -8.539  52.870  47.751  0.00  0.00    +0.000 A 
ATOM      2  C   UNL     1     -10.024  52.819  47.647  0.00  0.00    +0.000 A 
ATOM      3  C   UNL     1      -7.867  52.792  46.589  0.00  0.00    +0.000 A 
ATOM      4  O   UNL     1     -10.699  52.229  48.490  0.00  0.00    +0.000 OA
ATOM      5  N   UNL     1     -10.518  53.594  46.588  0.00  0.00    +0.000 N 
ATOM      6  C   UNL     1      -8.651  52.611  45.365  0.00  0.00    +0.000 A 
ATOM      7  C   UNL     1      -9.962  53.135  45.342  0.00  0.00    +0.000 A 
ATOM      8  C   UNL     1      -8.183  51.904  44.262  0.00  0.00    +0.000 A 
ATOM      9  N   UNL     1     -10.789  52.980  44.289  0.00  0.00    +0.000 NA
ATOM     10  C   UNL     1      -9.050  51.680  43.201  0.00  0.00    +0.000 A 
ATOM     11  C   UNL     1     -10.322  52.237  43.257  0.00  0.00    +0.000 A 
ENDROOT
BRANCH   1  24
ATOM     12 BR   UNL     1      -3.893  55.167  54.363  0.00  0.00    +0.000 Br
ATOM     13  C   UNL     1      -4.715  54.531  52.788  0.00  0.00    +0.000 A 
ATOM     14  C   UNL     1      -6.095  54.625  52.654  0.00  0.00    +0.000 A 
ATOM     15  C   UNL     1      -3.950  53.985  51.762  0.00  0.00    +0.000 A 
ATOM     16  C   UNL     1      -6.677  54.159  51.476  0.00  0.00    +0.000 A 
ATOM     17  C   UNL     1      -4.569  53.513  50.586  0.00  0.00    +0.000 A 
ATOM     18  S   UNL     1      -8.412  54.304  51.303  0.00  0.00    +0.000 S 
ATOM     19  C   UNL     1      -5.957  53.588  50.437  0.00  0.00    +0.000 A 
ATOM     20  O   UNL     1      -8.722  55.713  51.456  0.00  0.00    +0.000 OA
ATOM     21  O   UNL     1      -8.989  53.318  52.197  0.00  0.00    +0.000 OA
ATOM     22  N   UNL     1      -8.790  53.896  49.799  0.00  0.00    +0.000 N 
ATOM     23  N   UNL     1      -6.573  53.176  49.253  0.00  0.00    +0.000 N 
ATOM     24  C   UNL     1      -7.912  53.362  49.005  0.00  0.00    +0.000 C 
ATOM     25  H   UNL     1      -9.706  54.054  49.471  0.00  0.00    +0.000 HD
ATOM     26  H   UNL     1      -6.025  52.733  48.567  0.00  0.00    +0.000 HD
ENDBRANCH   1  24
BRANCH   3  27
ATOM     27  O   UNL     1      -6.519  53.011  46.419  0.00  0.00    +0.000 OA
ATOM     28  H   UNL     1      -6.046  52.536  45.764  0.00  0.00    +0.000 HD
ENDBRANCH   3  27
BRANCH   5  29
ATOM     29  C   UNL     1     -10.285  55.034  46.847  0.00  0.00    +0.000 C 
BRANCH  29  30
ATOM     30  C   UNL     1     -11.372  55.779  47.567  0.00  0.00    +0.000 A 
ATOM     31  C   UNL     1     -11.194  56.173  48.900  0.00  0.00    +0.000 A 
ATOM     32  C   UNL     1     -12.527  56.190  46.885  0.00  0.00    +0.000 A 
ATOM     33  C   UNL     1     -12.175  56.918  49.553  0.00  0.00    +0.000 A 
ATOM     34  C   UNL     1     -13.509  56.933  47.542  0.00  0.00    +0.000 A 
ATOM     35  C   UNL     1     -13.337  57.287  48.878  0.00  0.00    +0.000 A 
ENDBRANCH  29  30
ENDBRANCH   5  29
TORSDOF 4
ENDMDL
MODEL 7
REMARK VINA RESULT:      -8.0      3.761      6.884
REMARK  Name = 353127
REMARK  4 active torsions:
REMARK  status: ('A' for Active; 'I' for Inactive)
REMARK    1  A    between atoms: C_13  and  C_14
REMARK    2  A    between atoms: C_16  and  O_19
REMARK    3  A    between atoms: N_18  and  C_22
REMARK    4  A    between atoms: C_22  and  C_25
REMARK                            x       y       z     vdW  Elec       q    Type
REMARK                         _______ _______ _______ _____ _____    ______ ____
ROOT
ATOM      1  C   UNL     1     -11.704  56.322  48.548  0.00  0.00    +0.000 A 
ATOM      2  C   UNL     1     -10.440  55.731  49.066  0.00  0.00    +0.000 A 
ATOM      3  C   UNL     1     -12.203  55.757  47.435  0.00  0.00    +0.000 A 
ATOM      4  O   UNL     1      -9.563  56.439  49.559  0.00  0.00    +0.000 OA
ATOM      5  N   UNL     1     -10.444  54.329  49.028  0.00  0.00    +0.000 N 
ATOM      6  C   UNL     1     -11.433  54.670  46.825  0.00  0.00    +0.000 A 
ATOM      7  C   UNL     1     -10.634  53.875  47.674  0.00  0.00    +0.000 A 
ATOM      8  C   UNL     1     -11.415  54.430  45.455  0.00  0.00    +0.000 A 
ATOM      9  N   UNL     1      -9.845  52.883  47.214  0.00  0.00    +0.000 NA
ATOM     10  C   UNL     1     -10.554  53.457  44.963  0.00  0.00    +0.000 A 
ATOM     11  C   UNL     1      -9.807  52.715  45.870  0.00  0.00    +0.000 A 
ENDROOT
BRANCH   1  24
ATOM     12 BR   UNL     1     -16.428  60.220  54.298  0.00  0.00    +0.000 Br
ATOM     13  C   UNL     1     -15.413  59.122  53.149  0.00  0.00    +0.000 A 
ATOM     14  C   UNL     1     -14.978  59.629  51.930  0.00  0.00    +0.000 A 
ATOM     15  C   UNL     1     -15.087  57.822  53.519  0.00  0.00    +0.000 A 
ATOM     16  C   UNL     1     -14.219  58.802  51.104  0.00  0.00    +0.000 A 
ATOM     17  C   UNL     1     -14.325  57.005  52.657  0.00  0.00    +0.000 A 
ATOM     18  S   UNL     1     -13.654  59.456  49.581  0.00  0.00    +0.000 S 
ATOM     19  C   UNL     1     -13.889  57.493  51.421  0.00  0.00    +0.000 A 
ATOM     20  O   UNL     1     -12.877  60.637  49.907  0.00  0.00    +0.000 OA
ATOM     21  O   UNL     1     -14.822  59.550  48.726  0.00  0.00    +0.000 OA
ATOM     22  N   UNL     1     -12.646  58.389  48.935  0.00  0.00    +0.000 N 
ATOM     23  N   UNL     1     -13.086  56.712  50.586  0.00  0.00    +0.000 N 
ATOM     24  C   UNL     1     -12.517  57.197  49.433  0.00  0.00    +0.000 C 
ATOM     25  H   UNL     1     -12.115  58.643  48.145  0.00  0.00    +0.000 HD
ATOM     26  H   UNL     1     -12.921  55.775  50.834  0.00  0.00    +0.000 HD
ENDBRANCH   1  24
BRANCH   3  27
ATOM     27  O   UNL     1     -13.443  56.001  46.890  0.00  0.00    +0.000 OA
ATOM     28  H   UNL     1     -14.120  55.356  46.957  0.00  0.00    +0.000 HD
ENDBRANCH   3  27
BRANCH   5  29
ATOM     29  C   UNL     1     -11.441  53.788  49.981  0.00  0.00    +0.000 C 
BRANCH  29  30
ATOM     30  C   UNL     1     -10.926  53.326  51.314  0.00  0.00    +0.000 A 
ATOM     31  C   UNL     1     -10.512  52.000  51.490  0.00  0.00    +0.000 A 
ATOM     32  C   UNL     1     -10.745  54.241  52.363  0.00  0.00    +0.000 A 
ATOM     33  C   UNL     1      -9.976  51.583  52.708  0.00  0.00    +0.000 A 
ATOM     34  C   UNL     1     -10.212  53.820  53.582  0.00  0.00    +0.000 A 
ATOM     35  C   UNL     1      -9.838  52.490  53.758  0.00  0.00    +0.000 A 
ENDBRANCH  29  30
ENDBRANCH   5  29
TORSDOF 4
ENDMDL
MODEL 8
REMARK VINA RESULT:      -7.8      3.518      6.558
REMARK  Name = 353127
REMARK  4 active torsions:
REMARK  status: ('A' for Active; 'I' for Inactive)
REMARK    1  A    between atoms: C_13  and  C_14
REMARK    2  A    between atoms: C_16  and  O_19
REMARK    3  A    between atoms: N_18  and  C_22
REMARK    4  A    between atoms: C_22  and  C_25
REMARK                            x       y       z     vdW  Elec       q    Type
REMARK                         _______ _______ _______ _____ _____    ______ ____
ROOT
ATOM      1  C   UNL     1     -10.381  54.440  47.057  0.00  0.00    +0.000 A 
ATOM      2  C   UNL     1      -8.893  54.407  47.053  0.00  0.00    +0.000 A 
ATOM      3  C   UNL     1     -10.987  53.712  46.103  0.00  0.00    +0.000 A 
ATOM      4  O   UNL     1      -8.235  55.412  47.321  0.00  0.00    +0.000 OA
ATOM      5  N   UNL     1      -8.382  53.120  46.833  0.00  0.00    +0.000 N 
ATOM      6  C   UNL     1     -10.132  53.016  45.137  0.00  0.00    +0.000 A 
ATOM      7  C   UNL     1      -8.849  52.614  45.568  0.00  0.00    +0.000 A 
ATOM      8  C   UNL     1     -10.507  52.790  43.818  0.00  0.00    +0.000 A 
ATOM      9  N   UNL     1      -7.961  52.016  44.749  0.00  0.00    +0.000 NA
ATOM     10  C   UNL     1      -9.576  52.237  42.949  0.00  0.00    +0.000 A 
ATOM     11  C   UNL     1      -8.337  51.864  43.457  0.00  0.00    +0.000 A 
ENDROOT
BRANCH   1  24
ATOM     12 BR   UNL     1     -15.084  57.949  53.069  0.00  0.00    +0.000 Br
ATOM     13  C   UNL     1     -14.148  57.333  51.552  0.00  0.00    +0.000 A 
ATOM     14  C   UNL     1     -13.075  56.465  51.719  0.00  0.00    +0.000 A 
ATOM     15  C   UNL     1     -14.532  57.728  50.275  0.00  0.00    +0.000 A 
ATOM     16  C   UNL     1     -12.407  56.014  50.582  0.00  0.00    +0.000 A 
ATOM     17  C   UNL     1     -13.830  57.263  49.143  0.00  0.00    +0.000 A 
ATOM     18  S   UNL     1     -11.074  54.901  50.798  0.00  0.00    +0.000 S 
ATOM     19  C   UNL     1     -12.740  56.399  49.291  0.00  0.00    +0.000 A 
ATOM     20  O   UNL     1     -11.607  53.759  51.515  0.00  0.00    +0.000 OA
ATOM     21  O   UNL     1      -9.985  55.682  51.355  0.00  0.00    +0.000 OA
ATOM     22  N   UNL     1     -10.627  54.385  49.347  0.00  0.00    +0.000 N 
ATOM     23  N   UNL     1     -12.076  55.888  48.175  0.00  0.00    +0.000 N 
ATOM     24  C   UNL     1     -11.096  54.927  48.265  0.00  0.00    +0.000 C 
ATOM     25  H   UNL     1      -9.984  53.641  49.276  0.00  0.00    +0.000 HD
ATOM     26  H   UNL     1     -12.318  56.229  47.285  0.00  0.00    +0.000 HD
ENDBRANCH   1  24
BRANCH   3  27
ATOM     27  O   UNL     1     -12.333  53.436  46.030  0.00  0.00    +0.000 OA
ATOM     28  H   UNL     1     -12.909  53.725  46.710  0.00  0.00    +0.000 HD
ENDBRANCH   3  27
BRANCH   5  29
ATOM     29  C   UNL     1      -8.697  52.235  47.979  0.00  0.00    +0.000 C 
BRANCH  29  30
ATOM     30  C   UNL     1      -7.691  52.179  49.092  0.00  0.00    +0.000 A 
ATOM     31  C   UNL     1      -6.324  52.316  48.815  0.00  0.00    +0.000 A 
ATOM     32  C   UNL     1      -8.111  52.104  50.428  0.00  0.00    +0.000 A 
ATOM     33  C   UNL     1      -5.392  52.326  49.852  0.00  0.00    +0.000 A 
ATOM     34  C   UNL     1      -7.175  52.111  51.464  0.00  0.00    +0.000 A 
ATOM     35  C   UNL     1      -5.816  52.211  51.175  0.00  0.00    +0.000 A 
ENDBRANCH  29  30
ENDBRANCH   5  29
TORSDOF 4
ENDMDL
MODEL 9
REMARK VINA RESULT:      -7.7      3.486      6.220
REMARK  Name = 353127
REMARK  4 active torsions:
REMARK  status: ('A' for Active; 'I' for Inactive)
REMARK    1  A    between atoms: C_13  and  C_14
REMARK    2  A    between atoms: C_16  and  O_19
REMARK    3  A    between atoms: N_18  and  C_22
REMARK    4  A    between atoms: C_22  and  C_25
REMARK                            x       y       z     vdW  Elec       q    Type
REMARK                         _______ _______ _______ _____ _____    ______ ____
ROOT
ATOM      1  C   UNL     1     -12.532  54.467  49.520  0.00  0.00    +0.000 A 
ATOM      2  C   UNL     1     -12.326  54.141  50.958  0.00  0.00    +0.000 A 
ATOM      3  C   UNL     1     -13.199  55.606  49.266  0.00  0.00    +0.000 A 
ATOM      4  O   UNL     1     -12.385  52.980  51.361  0.00  0.00    +0.000 OA
ATOM      5  N   UNL     1     -11.958  55.261  51.718  0.00  0.00    +0.000 N 
ATOM      6  C   UNL     1     -13.696  56.370  50.414  0.00  0.00    +0.000 A 
ATOM      7  C   UNL     1     -12.977  56.275  51.625  0.00  0.00    +0.000 A 
ATOM      8  C   UNL     1     -14.861  57.127  50.373  0.00  0.00    +0.000 A 
ATOM      9  N   UNL     1     -13.373  56.891  52.757  0.00  0.00    +0.000 NA
ATOM     10  C   UNL     1     -15.315  57.710  51.550  0.00  0.00    +0.000 A 
ATOM     11  C   UNL     1     -14.543  57.572  52.697  0.00  0.00    +0.000 A 
ENDROOT
BRANCH   1  24
ATOM     12 BR   UNL     1      -7.741  49.629  44.600  0.00  0.00    +0.000 Br
ATOM     13  C   UNL     1      -8.764  50.537  45.898  0.00  0.00    +0.000 A 
ATOM     14  C   UNL     1      -9.238  51.814  45.621  0.00  0.00    +0.000 A 
ATOM     15  C   UNL     1      -9.057  49.934  47.117  0.00  0.00    +0.000 A 
ATOM     16  C   UNL     1     -10.002  52.460  46.592  0.00  0.00    +0.000 A 
ATOM     17  C   UNL     1      -9.825  50.617  48.084  0.00  0.00    +0.000 A 
ATOM     18  S   UNL     1     -10.616  54.058  46.226  0.00  0.00    +0.000 S 
ATOM     19  C   UNL     1     -10.300  51.907  47.829  0.00  0.00    +0.000 A 
ATOM     20  O   UNL     1     -11.406  53.925  45.017  0.00  0.00    +0.000 OA
ATOM     21  O   UNL     1      -9.471  54.948  46.269  0.00  0.00    +0.000 OA
ATOM     22  N   UNL     1     -11.620  54.477  47.404  0.00  0.00    +0.000 N 
ATOM     23  N   UNL     1     -11.108  52.569  48.756  0.00  0.00    +0.000 N 
ATOM     24  C   UNL     1     -11.715  53.773  48.491  0.00  0.00    +0.000 C 
ATOM     25  H   UNL     1     -12.175  55.285  47.301  0.00  0.00    +0.000 HD
ATOM     26  H   UNL     1     -11.250  52.154  49.637  0.00  0.00    +0.000 HD
ENDBRANCH   1  24
BRANCH   3  27
ATOM     27  O   UNL     1     -13.338  56.205  48.035  0.00  0.00    +0.000 OA
ATOM     28  H   UNL     1     -14.131  56.654  47.818  0.00  0.00    +0.000 HD
ENDBRANCH   3  27
BRANCH   5  29
ATOM     29  C   UNL     1     -10.612  55.735  51.323  0.00  0.00    +0.000 C 
BRANCH  29  30
ATOM     30  C   UNL     1      -9.442  54.902  51.761  0.00  0.00    +0.000 A 
ATOM     31  C   UNL     1      -9.285  54.561  53.111  0.00  0.00    +0.000 A 
ATOM     32  C   UNL     1      -8.558  54.362  50.815  0.00  0.00    +0.000 A 
ATOM     33  C   UNL     1      -8.235  53.737  53.513  0.00  0.00    +0.000 A 
ATOM     34  C   UNL     1      -7.505  53.540  51.221  0.00  0.00    +0.000 A 
ATOM     35  C   UNL     1      -7.338  53.237  52.570  0.00  0.00    +0.000 A 
ENDBRANCH  29  30
ENDBRANCH   5  29
TORSDOF 4
ENDMDL
