MODEL 1
REMARK VINA RESULT:      -8.6      0.000      0.000
REMARK  Name = 352971
REMARK  4 active torsions:
REMARK  status: ('A' for Active; 'I' for Inactive)
REMARK    1  A    between atoms: C_8  and  C_12
REMARK    2  A    between atoms: C_16  and  O_19
REMARK    3  A    between atoms: N_18  and  C_22
REMARK    4  A    between atoms: C_22  and  C_25
REMARK                            x       y       z     vdW  Elec       q    Type
REMARK                         _______ _______ _______ _____ _____    ______ ____
ROOT
ATOM      1  C   UNL     1      -9.309  55.521  51.406  0.00  0.00    +0.000 A 
ATOM      2  C   UNL     1      -9.241  56.280  50.124  0.00  0.00    +0.000 A 
ATOM      3  C   UNL     1     -10.539  55.143  51.802  0.00  0.00    +0.000 A 
ATOM      4  O   UNL     1      -8.434  57.187  49.962  0.00  0.00    +0.000 OA
ATOM      5  N   UNL     1     -10.086  55.738  49.137  0.00  0.00    +0.000 N 
ATOM      6  C   UNL     1     -11.672  55.585  50.984  0.00  0.00    +0.000 A 
ATOM      7  C   UNL     1     -11.451  55.771  49.602  0.00  0.00    +0.000 A 
ATOM      8  C   UNL     1     -12.913  55.903  51.524  0.00  0.00    +0.000 A 
ATOM      9  N   UNL     1     -12.394  56.259  48.773  0.00  0.00    +0.000 NA
ATOM     10  C   UNL     1     -13.873  56.461  50.692  0.00  0.00    +0.000 A 
ATOM     11  C   UNL     1     -13.574  56.608  49.342  0.00  0.00    +0.000 A 
ENDROOT
BRANCH   1  19
ATOM     12 BR   UNL     1      -4.914  54.050  48.837  0.00  0.00    +0.000 Br
ATOM     13  C   UNL     1      -4.827  53.590  50.679  0.00  0.00    +0.000 A 
ATOM     14  C   UNL     1      -5.889  53.889  51.546  0.00  0.00    +0.000 A 
ATOM     15  C   UNL     1      -3.672  52.947  51.141  0.00  0.00    +0.000 A 
ATOM     16  N   UNL     1      -7.041  54.556  51.117  0.00  0.00    +0.000 N 
ATOM     17  C   UNL     1      -5.725  53.529  52.880  0.00  0.00    +0.000 A 
ATOM     18  C   UNL     1      -3.549  52.593  52.484  0.00  0.00    +0.000 A 
ATOM     19  C   UNL     1      -8.063  54.925  51.951  0.00  0.00    +0.000 C 
ATOM     20  S   UNL     1      -7.011  53.881  54.011  0.00  0.00    +0.000 S 
ATOM     21  C   UNL     1      -4.581  52.888  53.364  0.00  0.00    +0.000 A 
ATOM     22  N   UNL     1      -8.133  54.737  53.230  0.00  0.00    +0.000 N 
ATOM     23  O   UNL     1      -6.445  54.739  55.027  0.00  0.00    +0.000 OA
ATOM     24  O   UNL     1      -7.603  52.602  54.364  0.00  0.00    +0.000 OA
ATOM     25  H   UNL     1      -7.122  54.773  50.161  0.00  0.00    +0.000 HD
ATOM     26  H   UNL     1      -8.884  55.123  53.736  0.00  0.00    +0.000 HD
ENDBRANCH   1  19
BRANCH   3  27
ATOM     27  O   UNL     1     -10.828  54.259  52.816  0.00  0.00    +0.000 OA
ATOM     28  H   UNL     1     -11.034  54.579  53.672  0.00  0.00    +0.000 HD
ENDBRANCH   3  27
BRANCH   5  29
ATOM     29  C   UNL     1      -9.615  54.383  48.760  0.00  0.00    +0.000 C 
BRANCH  29  30
ATOM     30  C   UNL     1      -9.197  54.129  47.338  0.00  0.00    +0.000 A 
ATOM     31  C   UNL     1      -9.945  53.318  46.482  0.00  0.00    +0.000 A 
ATOM     32  C   UNL     1      -8.109  54.857  46.811  0.00  0.00    +0.000 A 
ATOM     33  C   UNL     1      -9.576  53.187  45.140  0.00  0.00    +0.000 A 
ATOM     34  C   UNL     1      -7.743  54.723  45.470  0.00  0.00    +0.000 A 
ATOM     35  C   UNL     1      -8.477  53.882  44.638  0.00  0.00    +0.000 A 
ENDBRANCH  29  30
ENDBRANCH   5  29
TORSDOF 4
ENDMDL
MODEL 2
REMARK VINA RESULT:      -8.6      2.489      3.038
REMARK  Name = 352971
REMARK  4 active torsions:
REMARK  status: ('A' for Active; 'I' for Inactive)
REMARK    1  A    between atoms: C_8  and  C_12
REMARK    2  A    between atoms: C_16  and  O_19
REMARK    3  A    between atoms: N_18  and  C_22
REMARK    4  A    between atoms: C_22  and  C_25
REMARK                            x       y       z     vdW  Elec       q    Type
REMARK                         _______ _______ _______ _____ _____    ______ ____
ROOT
ATOM      1  C   UNL     1     -10.531  55.621  50.669  0.00  0.00    +0.000 A 
ATOM      2  C   UNL     1     -10.009  56.261  49.426  0.00  0.00    +0.000 A 
ATOM      3  C   UNL     1     -11.867  55.472  50.737  0.00  0.00    +0.000 A 
ATOM      4  O   UNL     1      -9.045  57.015  49.454  0.00  0.00    +0.000 OA
ATOM      5  N   UNL     1     -10.655  55.783  48.269  0.00  0.00    +0.000 N 
ATOM      6  C   UNL     1     -12.661  56.022  49.636  0.00  0.00    +0.000 A 
ATOM      7  C   UNL     1     -12.066  56.065  48.356  0.00  0.00    +0.000 A 
ATOM      8  C   UNL     1     -13.925  56.571  49.817  0.00  0.00    +0.000 A 
ATOM      9  N   UNL     1     -12.669  56.630  47.292  0.00  0.00    +0.000 NA
ATOM     10  C   UNL     1     -14.531  57.208  48.743  0.00  0.00    +0.000 A 
ATOM     11  C   UNL     1     -13.877  57.202  47.516  0.00  0.00    +0.000 A 
ENDROOT
BRANCH   1  19
ATOM     12 BR   UNL     1     -10.372  50.442  51.775  0.00  0.00    +0.000 Br
ATOM     13  C   UNL     1      -9.082  51.406  52.786  0.00  0.00    +0.000 A 
ATOM     14  C   UNL     1      -8.954  52.797  52.648  0.00  0.00    +0.000 A 
ATOM     15  C   UNL     1      -8.267  50.687  53.668  0.00  0.00    +0.000 A 
ATOM     16  N   UNL     1      -9.735  53.536  51.753  0.00  0.00    +0.000 N 
ATOM     17  C   UNL     1      -7.971  53.412  53.416  0.00  0.00    +0.000 A 
ATOM     18  C   UNL     1      -7.300  51.341  54.429  0.00  0.00    +0.000 A 
ATOM     19  C   UNL     1      -9.586  54.881  51.543  0.00  0.00    +0.000 C 
ATOM     20  S   UNL     1      -7.757  55.142  53.283  0.00  0.00    +0.000 S 
ATOM     21  C   UNL     1      -7.145  52.714  54.302  0.00  0.00    +0.000 A 
ATOM     22  N   UNL     1      -8.725  55.668  52.105  0.00  0.00    +0.000 N 
ATOM     23  O   UNL     1      -6.396  55.359  52.850  0.00  0.00    +0.000 OA
ATOM     24  O   UNL     1      -8.239  55.708  54.532  0.00  0.00    +0.000 OA
ATOM     25  H   UNL     1     -10.432  53.062  51.245  0.00  0.00    +0.000 HD
ATOM     26  H   UNL     1      -8.660  56.605  51.809  0.00  0.00    +0.000 HD
ENDBRANCH   1  19
BRANCH   3  27
ATOM     27  O   UNL     1     -12.552  54.724  51.667  0.00  0.00    +0.000 OA
ATOM     28  H   UNL     1     -13.471  54.577  51.564  0.00  0.00    +0.000 HD
ENDBRANCH   3  27
BRANCH   5  29
ATOM     29  C   UNL     1     -10.342  54.347  48.074  0.00  0.00    +0.000 C 
BRANCH  29  30
ATOM     30  C   UNL     1     -10.982  53.613  46.929  0.00  0.00    +0.000 A 
ATOM     31  C   UNL     1     -10.646  53.878  45.600  0.00  0.00    +0.000 A 
ATOM     32  C   UNL     1     -11.827  52.519  47.213  0.00  0.00    +0.000 A 
ATOM     33  C   UNL     1     -11.190  53.105  44.571  0.00  0.00    +0.000 A 
ATOM     34  C   UNL     1     -12.370  51.749  46.183  0.00  0.00    +0.000 A 
ATOM     35  C   UNL     1     -12.053  52.050  44.861  0.00  0.00    +0.000 A 
ENDBRANCH  29  30
ENDBRANCH   5  29
TORSDOF 4
ENDMDL
MODEL 3
REMARK VINA RESULT:      -8.5      1.248      1.679
REMARK  Name = 352971
REMARK  4 active torsions:
REMARK  status: ('A' for Active; 'I' for Inactive)
REMARK    1  A    between atoms: C_8  and  C_12
REMARK    2  A    between atoms: C_16  and  O_19
REMARK    3  A    between atoms: N_18  and  C_22
REMARK    4  A    between atoms: C_22  and  C_25
REMARK                            x       y       z     vdW  Elec       q    Type
REMARK                         _______ _______ _______ _____ _____    ______ ____
ROOT
ATOM      1  C   UNL     1     -10.007  55.558  51.089  0.00  0.00    +0.000 A 
ATOM      2  C   UNL     1      -9.998  56.313  49.802  0.00  0.00    +0.000 A 
ATOM      3  C   UNL     1     -11.217  55.184  51.543  0.00  0.00    +0.000 A 
ATOM      4  O   UNL     1      -9.199  57.217  49.599  0.00  0.00    +0.000 OA
ATOM      5  N   UNL     1     -10.890  55.767  48.858  0.00  0.00    +0.000 N 
ATOM      6  C   UNL     1     -12.387  55.624  50.779  0.00  0.00    +0.000 A 
ATOM      7  C   UNL     1     -12.231  55.804  49.387  0.00  0.00    +0.000 A 
ATOM      8  C   UNL     1     -13.601  55.946  51.375  0.00  0.00    +0.000 A 
ATOM      9  N   UNL     1     -13.212  56.290  48.602  0.00  0.00    +0.000 NA
ATOM     10  C   UNL     1     -14.599  56.502  50.587  0.00  0.00    +0.000 A 
ATOM     11  C   UNL     1     -14.364  56.644  49.224  0.00  0.00    +0.000 A 
ENDROOT
BRANCH   1  19
ATOM     12 BR   UNL     1      -5.802  53.928  48.307  0.00  0.00    +0.000 Br
ATOM     13  C   UNL     1      -5.605  53.533  50.155  0.00  0.00    +0.000 A 
ATOM     14  C   UNL     1      -6.607  53.879  51.076  0.00  0.00    +0.000 A 
ATOM     15  C   UNL     1      -4.433  52.889  50.568  0.00  0.00    +0.000 A 
ATOM     16  N   UNL     1      -7.775  54.548  50.695  0.00  0.00    +0.000 N 
ATOM     17  C   UNL     1      -6.365  53.564  52.409  0.00  0.00    +0.000 A 
ATOM     18  C   UNL     1      -4.231  52.581  51.913  0.00  0.00    +0.000 A 
ATOM     19  C   UNL     1      -8.737  54.963  51.576  0.00  0.00    +0.000 C 
ATOM     20  S   UNL     1      -7.572  53.977  53.604  0.00  0.00    +0.000 S 
ATOM     21  C   UNL     1      -5.201  52.924  52.844  0.00  0.00    +0.000 A 
ATOM     22  N   UNL     1      -8.729  54.822  52.864  0.00  0.00    +0.000 N 
ATOM     23  O   UNL     1      -6.932  54.862  54.551  0.00  0.00    +0.000 OA
ATOM     24  O   UNL     1      -8.158  52.721  54.040  0.00  0.00    +0.000 OA
ATOM     25  H   UNL     1      -7.913  54.732  49.738  0.00  0.00    +0.000 HD
ATOM     26  H   UNL     1      -9.442  55.238  53.401  0.00  0.00    +0.000 HD
ENDBRANCH   1  19
BRANCH   3  27
ATOM     27  O   UNL     1     -11.459  54.304  52.573  0.00  0.00    +0.000 OA
ATOM     28  H   UNL     1     -12.291  53.879  52.640  0.00  0.00    +0.000 HD
ENDBRANCH   3  27
BRANCH   5  29
ATOM     29  C   UNL     1     -10.439  54.411  48.464  0.00  0.00    +0.000 C 
BRANCH  29  30
ATOM     30  C   UNL     1     -11.062  53.759  47.261  0.00  0.00    +0.000 A 
ATOM     31  C   UNL     1     -10.789  54.192  45.961  0.00  0.00    +0.000 A 
ATOM     32  C   UNL     1     -11.814  52.580  47.442  0.00  0.00    +0.000 A 
ATOM     33  C   UNL     1     -11.309  53.497  44.867  0.00  0.00    +0.000 A 
ATOM     34  C   UNL     1     -12.334  51.887  46.347  0.00  0.00    +0.000 A 
ATOM     35  C   UNL     1     -12.083  52.353  45.059  0.00  0.00    +0.000 A 
ENDBRANCH  29  30
ENDBRANCH   5  29
TORSDOF 4
ENDMDL
MODEL 4
REMARK VINA RESULT:      -8.4      2.770      5.309
REMARK  Name = 352971
REMARK  4 active torsions:
REMARK  status: ('A' for Active; 'I' for Inactive)
REMARK    1  A    between atoms: C_8  and  C_12
REMARK    2  A    between atoms: C_16  and  O_19
REMARK    3  A    between atoms: N_18  and  C_22
REMARK    4  A    between atoms: C_22  and  C_25
REMARK                            x       y       z     vdW  Elec       q    Type
REMARK                         _______ _______ _______ _____ _____    ______ ____
ROOT
ATOM      1  C   UNL     1      -8.539  53.121  48.198  0.00  0.00    +0.000 A 
ATOM      2  C   UNL     1     -10.019  52.931  48.205  0.00  0.00    +0.000 A 
ATOM      3  C   UNL     1      -7.979  53.329  46.991  0.00  0.00    +0.000 A 
ATOM      4  O   UNL     1     -10.558  52.152  48.980  0.00  0.00    +0.000 OA
ATOM      5  N   UNL     1     -10.677  53.834  47.346  0.00  0.00    +0.000 N 
ATOM      6  C   UNL     1      -8.859  53.264  45.822  0.00  0.00    +0.000 A 
ATOM      7  C   UNL     1     -10.209  53.639  45.996  0.00  0.00    +0.000 A 
ATOM      8  C   UNL     1      -8.441  52.776  44.589  0.00  0.00    +0.000 A 
ATOM      9  N   UNL     1     -11.126  53.534  45.014  0.00  0.00    +0.000 NA
ATOM     10  C   UNL     1      -9.387  52.609  43.588  0.00  0.00    +0.000 A 
ATOM     11  C   UNL     1     -10.696  53.005  43.842  0.00  0.00    +0.000 A 
ENDROOT
BRANCH   1  19
ATOM     12 BR   UNL     1     -10.579  55.033  52.699  0.00  0.00    +0.000 Br
ATOM     13  C   UNL     1      -8.687  54.885  52.803  0.00  0.00    +0.000 A 
ATOM     14  C   UNL     1      -7.942  54.400  51.717  0.00  0.00    +0.000 A 
ATOM     15  C   UNL     1      -8.063  55.274  53.995  0.00  0.00    +0.000 A 
ATOM     16  N   UNL     1      -8.543  53.977  50.527  0.00  0.00    +0.000 N 
ATOM     17  C   UNL     1      -6.565  54.311  51.895  0.00  0.00    +0.000 A 
ATOM     18  C   UNL     1      -6.678  55.180  54.131  0.00  0.00    +0.000 A 
ATOM     19  C   UNL     1      -7.853  53.433  49.476  0.00  0.00    +0.000 C 
ATOM     20  S   UNL     1      -5.585  53.707  50.581  0.00  0.00    +0.000 S 
ATOM     21  C   UNL     1      -5.922  54.692  53.075  0.00  0.00    +0.000 A 
ATOM     22  N   UNL     1      -6.578  53.214  49.410  0.00  0.00    +0.000 N 
ATOM     23  O   UNL     1      -4.896  52.539  51.080  0.00  0.00    +0.000 OA
ATOM     24  O   UNL     1      -4.840  54.847  50.072  0.00  0.00    +0.000 OA
ATOM     25  H   UNL     1      -9.518  54.078  50.438  0.00  0.00    +0.000 HD
ATOM     26  H   UNL     1      -6.208  52.739  48.631  0.00  0.00    +0.000 HD
ENDBRANCH   1  19
BRANCH   3  27
ATOM     27  O   UNL     1      -6.687  53.742  46.760  0.00  0.00    +0.000 OA
ATOM     28  H   UNL     1      -6.476  54.198  45.969  0.00  0.00    +0.000 HD
ENDBRANCH   3  27
BRANCH   5  29
ATOM     29  C   UNL     1     -10.505  55.219  47.845  0.00  0.00    +0.000 C 
BRANCH  29  30
ATOM     30  C   UNL     1     -11.728  56.025  48.187  0.00  0.00    +0.000 A 
ATOM     31  C   UNL     1     -11.883  56.641  49.430  0.00  0.00    +0.000 A 
ATOM     32  C   UNL     1     -12.667  56.296  47.170  0.00  0.00    +0.000 A 
ATOM     33  C   UNL     1     -12.987  57.462  49.673  0.00  0.00    +0.000 A 
ATOM     34  C   UNL     1     -13.770  57.117  47.415  0.00  0.00    +0.000 A 
ATOM     35  C   UNL     1     -13.929  57.694  48.672  0.00  0.00    +0.000 A 
ENDBRANCH  29  30
ENDBRANCH   5  29
TORSDOF 4
ENDMDL
MODEL 5
REMARK VINA RESULT:      -8.3      2.224      2.838
REMARK  Name = 352971
REMARK  4 active torsions:
REMARK  status: ('A' for Active; 'I' for Inactive)
REMARK    1  A    between atoms: C_8  and  C_12
REMARK    2  A    between atoms: C_16  and  O_19
REMARK    3  A    between atoms: N_18  and  C_22
REMARK    4  A    between atoms: C_22  and  C_25
REMARK                            x       y       z     vdW  Elec       q    Type
REMARK                         _______ _______ _______ _____ _____    ______ ____
ROOT
ATOM      1  C   UNL     1     -10.890  55.470  50.442  0.00  0.00    +0.000 A 
ATOM      2  C   UNL     1     -10.568  55.659  48.997  0.00  0.00    +0.000 A 
ATOM      3  C   UNL     1     -12.071  55.969  50.852  0.00  0.00    +0.000 A 
ATOM      4  O   UNL     1      -9.423  55.875  48.622  0.00  0.00    +0.000 OA
ATOM      5  N   UNL     1     -11.681  55.419  48.168  0.00  0.00    +0.000 N 
ATOM      6  C   UNL     1     -12.866  56.706  49.867  0.00  0.00    +0.000 A 
ATOM      7  C   UNL     1     -12.742  56.333  48.511  0.00  0.00    +0.000 A 
ATOM      8  C   UNL     1     -13.661  57.797  50.203  0.00  0.00    +0.000 A 
ATOM      9  N   UNL     1     -13.356  56.999  47.513  0.00  0.00    +0.000 NA
ATOM     10  C   UNL     1     -14.251  58.526  49.180  0.00  0.00    +0.000 A 
ATOM     11  C   UNL     1     -14.080  58.088  47.871  0.00  0.00    +0.000 A 
ENDROOT
BRANCH   1  19
ATOM     12 BR   UNL     1      -5.656  54.649  50.550  0.00  0.00    +0.000 Br
ATOM     13  C   UNL     1      -6.582  53.352  51.586  0.00  0.00    +0.000 A 
ATOM     14  C   UNL     1      -7.981  53.383  51.694  0.00  0.00    +0.000 A 
ATOM     15  C   UNL     1      -5.827  52.369  52.236  0.00  0.00    +0.000 A 
ATOM     16  N   UNL     1      -8.758  54.371  51.079  0.00  0.00    +0.000 N 
ATOM     17  C   UNL     1      -8.568  52.403  52.488  0.00  0.00    +0.000 A 
ATOM     18  C   UNL     1      -6.452  51.397  53.016  0.00  0.00    +0.000 A 
ATOM     19  C   UNL     1     -10.116  54.471  51.222  0.00  0.00    +0.000 C 
ATOM     20  S   UNL     1     -10.306  52.394  52.667  0.00  0.00    +0.000 S 
ATOM     21  C   UNL     1      -7.834  51.414  53.147  0.00  0.00    +0.000 A 
ATOM     22  N   UNL     1     -10.885  53.707  51.931  0.00  0.00    +0.000 N 
ATOM     23  O   UNL     1     -10.578  52.538  54.079  0.00  0.00    +0.000 OA
ATOM     24  O   UNL     1     -10.784  51.234  51.933  0.00  0.00    +0.000 OA
ATOM     25  H   UNL     1      -8.302  55.032  50.510  0.00  0.00    +0.000 HD
ATOM     26  H   UNL     1     -11.840  53.931  52.022  0.00  0.00    +0.000 HD
ENDBRANCH   1  19
BRANCH   3  27
ATOM     27  O   UNL     1     -12.675  55.728  52.065  0.00  0.00    +0.000 OA
ATOM     28  H   UNL     1     -13.167  54.941  52.195  0.00  0.00    +0.000 HD
ENDBRANCH   3  27
BRANCH   5  29
ATOM     29  C   UNL     1     -12.071  53.991  48.249  0.00  0.00    +0.000 C 
BRANCH  29  30
ATOM     30  C   UNL     1     -11.887  53.117  47.039  0.00  0.00    +0.000 A 
ATOM     31  C   UNL     1     -12.319  51.790  47.014  0.00  0.00    +0.000 A 
ATOM     32  C   UNL     1     -11.410  53.701  45.847  0.00  0.00    +0.000 A 
ATOM     33  C   UNL     1     -12.220  51.042  45.838  0.00  0.00    +0.000 A 
ATOM     34  C   UNL     1     -11.311  52.952  44.674  0.00  0.00    +0.000 A 
ATOM     35  C   UNL     1     -11.712  51.619  44.675  0.00  0.00    +0.000 A 
ENDBRANCH  29  30
ENDBRANCH   5  29
TORSDOF 4
ENDMDL
MODEL 6
REMARK VINA RESULT:      -8.1      2.245      2.621
REMARK  Name = 352971
REMARK  4 active torsions:
REMARK  status: ('A' for Active; 'I' for Inactive)
REMARK    1  A    between atoms: C_8  and  C_12
REMARK    2  A    between atoms: C_16  and  O_19
REMARK    3  A    between atoms: N_18  and  C_22
REMARK    4  A    between atoms: C_22  and  C_25
REMARK                            x       y       z     vdW  Elec       q    Type
REMARK                         _______ _______ _______ _____ _____    ______ ____
ROOT
ATOM      1  C   UNL     1     -10.239  55.437  50.892  0.00  0.00    +0.000 A 
ATOM      2  C   UNL     1     -10.384  56.250  49.649  0.00  0.00    +0.000 A 
ATOM      3  C   UNL     1     -11.350  55.303  51.641  0.00  0.00    +0.000 A 
ATOM      4  O   UNL     1      -9.480  56.973  49.251  0.00  0.00    +0.000 OA
ATOM      5  N   UNL     1     -11.582  55.967  48.964  0.00  0.00    +0.000 N 
ATOM      6  C   UNL     1     -12.544  56.030  51.204  0.00  0.00    +0.000 A 
ATOM      7  C   UNL     1     -12.705  56.258  49.820  0.00  0.00    +0.000 A 
ATOM      8  C   UNL     1     -13.468  56.568  52.095  0.00  0.00    +0.000 A 
ATOM      9  N   UNL     1     -13.717  56.991  49.316  0.00  0.00    +0.000 NA
ATOM     10  C   UNL     1     -14.481  57.372  51.592  0.00  0.00    +0.000 A 
ATOM     11  C   UNL     1     -14.568  57.544  50.215  0.00  0.00    +0.000 A 
ENDROOT
BRANCH   1  19
ATOM     12 BR   UNL     1     -10.014  50.144  50.981  0.00  0.00    +0.000 Br
ATOM     13  C   UNL     1      -8.309  50.915  51.312  0.00  0.00    +0.000 A 
ATOM     14  C   UNL     1      -8.141  52.309  51.334  0.00  0.00    +0.000 A 
ATOM     15  C   UNL     1      -7.228  50.052  51.531  0.00  0.00    +0.000 A 
ATOM     16  N   UNL     1      -9.197  53.193  51.089  0.00  0.00    +0.000 N 
ATOM     17  C   UNL     1      -6.853  52.779  51.567  0.00  0.00    +0.000 A 
ATOM     18  C   UNL     1      -5.953  50.562  51.771  0.00  0.00    +0.000 A 
ATOM     19  C   UNL     1      -9.054  54.554  51.034  0.00  0.00    +0.000 C 
ATOM     20  S   UNL     1      -6.580  54.505  51.599  0.00  0.00    +0.000 S 
ATOM     21  C   UNL     1      -5.760  51.936  51.786  0.00  0.00    +0.000 A 
ATOM     22  N   UNL     1      -7.959  55.230  51.181  0.00  0.00    +0.000 N 
ATOM     23  O   UNL     1      -5.613  54.791  50.564  0.00  0.00    +0.000 OA
ATOM     24  O   UNL     1      -6.308  54.848  52.985  0.00  0.00    +0.000 OA
ATOM     25  H   UNL     1     -10.095  52.816  50.950  0.00  0.00    +0.000 HD
ATOM     26  H   UNL     1      -7.967  56.204  51.035  0.00  0.00    +0.000 HD
ENDBRANCH   1  19
BRANCH   3  27
ATOM     27  O   UNL     1     -11.516  54.434  52.694  0.00  0.00    +0.000 OA
ATOM     28  H   UNL     1     -10.930  53.711  52.802  0.00  0.00    +0.000 HD
ENDBRANCH   3  27
BRANCH   5  29
ATOM     29  C   UNL     1     -11.557  54.573  48.461  0.00  0.00    +0.000 C 
BRANCH  29  30
ATOM     30  C   UNL     1     -10.900  54.289  47.139  0.00  0.00    +0.000 A 
ATOM     31  C   UNL     1      -9.512  54.292  46.988  0.00  0.00    +0.000 A 
ATOM     32  C   UNL     1     -11.702  53.852  46.064  0.00  0.00    +0.000 A 
ATOM     33  C   UNL     1      -8.939  53.925  45.768  0.00  0.00    +0.000 A 
ATOM     34  C   UNL     1     -11.127  53.487  44.845  0.00  0.00    +0.000 A 
ATOM     35  C   UNL     1      -9.743  53.531  44.699  0.00  0.00    +0.000 A 
ENDBRANCH  29  30
ENDBRANCH   5  29
TORSDOF 4
ENDMDL
MODEL 7
REMARK VINA RESULT:      -8.0      1.679      4.471
REMARK  Name = 352971
REMARK  4 active torsions:
REMARK  status: ('A' for Active; 'I' for Inactive)
REMARK    1  A    between atoms: C_8  and  C_12
REMARK    2  A    between atoms: C_16  and  O_19
REMARK    3  A    between atoms: N_18  and  C_22
REMARK    4  A    between atoms: C_22  and  C_25
REMARK                            x       y       z     vdW  Elec       q    Type
REMARK                         _______ _______ _______ _____ _____    ______ ____
ROOT
ATOM      1  C   UNL     1      -8.551  54.078  49.635  0.00  0.00    +0.000 A 
ATOM      2  C   UNL     1      -9.909  53.573  49.988  0.00  0.00    +0.000 A 
ATOM      3  C   UNL     1      -8.399  54.524  48.374  0.00  0.00    +0.000 A 
ATOM      4  O   UNL     1     -10.059  52.620  50.742  0.00  0.00    +0.000 OA
ATOM      5  N   UNL     1     -10.933  54.394  49.477  0.00  0.00    +0.000 N 
ATOM      6  C   UNL     1      -9.545  54.391  47.472  0.00  0.00    +0.000 A 
ATOM      7  C   UNL     1     -10.837  54.444  48.040  0.00  0.00    +0.000 A 
ATOM      8  C   UNL     1      -9.409  54.133  46.112  0.00  0.00    +0.000 A 
ATOM      9  N   UNL     1     -11.957  54.244  47.320  0.00  0.00    +0.000 NA
ATOM     10  C   UNL     1     -10.553  53.868  45.371  0.00  0.00    +0.000 A 
ATOM     11  C   UNL     1     -11.787  53.943  46.009  0.00  0.00    +0.000 A 
ENDROOT
BRANCH   1  19
ATOM     12 BR   UNL     1      -3.660  52.213  50.462  0.00  0.00    +0.000 Br
ATOM     13  C   UNL     1      -4.223  53.339  51.886  0.00  0.00    +0.000 A 
ATOM     14  C   UNL     1      -5.490  53.940  51.870  0.00  0.00    +0.000 A 
ATOM     15  C   UNL     1      -3.334  53.549  52.947  0.00  0.00    +0.000 A 
ATOM     16  N   UNL     1      -6.386  53.771  50.809  0.00  0.00    +0.000 N 
ATOM     17  C   UNL     1      -5.806  54.761  52.949  0.00  0.00    +0.000 A 
ATOM     18  C   UNL     1      -3.690  54.371  54.016  0.00  0.00    +0.000 A 
ATOM     19  C   UNL     1      -7.601  54.399  50.730  0.00  0.00    +0.000 C 
ATOM     20  S   UNL     1      -7.368  55.544  52.982  0.00  0.00    +0.000 S 
ATOM     21  C   UNL     1      -4.934  54.986  54.017  0.00  0.00    +0.000 A 
ATOM     22  N   UNL     1      -8.106  55.233  51.582  0.00  0.00    +0.000 N 
ATOM     23  O   UNL     1      -7.117  56.966  53.029  0.00  0.00    +0.000 OA
ATOM     24  O   UNL     1      -8.128  54.888  54.033  0.00  0.00    +0.000 OA
ATOM     25  H   UNL     1      -6.129  53.165  50.078  0.00  0.00    +0.000 HD
ATOM     26  H   UNL     1      -8.955  55.685  51.373  0.00  0.00    +0.000 HD
ENDBRANCH   1  19
BRANCH   3  27
ATOM     27  O   UNL     1      -7.321  55.229  47.889  0.00  0.00    +0.000 OA
ATOM     28  H   UNL     1      -7.335  55.562  47.014  0.00  0.00    +0.000 HD
ENDBRANCH   3  27
BRANCH   5  29
ATOM     29  C   UNL     1     -10.882  55.726  50.128  0.00  0.00    +0.000 C 
BRANCH  29  30
ATOM     30  C   UNL     1     -12.172  56.418  50.470  0.00  0.00    +0.000 A 
ATOM     31  C   UNL     1     -12.843  57.228  49.552  0.00  0.00    +0.000 A 
ATOM     32  C   UNL     1     -12.800  56.112  51.696  0.00  0.00    +0.000 A 
ATOM     33  C   UNL     1     -14.088  57.772  49.875  0.00  0.00    +0.000 A 
ATOM     34  C   UNL     1     -14.044  56.658  52.017  0.00  0.00    +0.000 A 
ATOM     35  C   UNL     1     -14.683  57.494  51.105  0.00  0.00    +0.000 A 
ENDBRANCH  29  30
ENDBRANCH   5  29
TORSDOF 4
ENDMDL
MODEL 8
REMARK VINA RESULT:      -7.9      2.086      4.881
REMARK  Name = 352971
REMARK  4 active torsions:
REMARK  status: ('A' for Active; 'I' for Inactive)
REMARK    1  A    between atoms: C_8  and  C_12
REMARK    2  A    between atoms: C_16  and  O_19
REMARK    3  A    between atoms: N_18  and  C_22
REMARK    4  A    between atoms: C_22  and  C_25
REMARK                            x       y       z     vdW  Elec       q    Type
REMARK                         _______ _______ _______ _____ _____    ______ ____
ROOT
ATOM      1  C   UNL     1      -8.389  53.664  48.130  0.00  0.00    +0.000 A 
ATOM      2  C   UNL     1      -9.841  53.326  48.188  0.00  0.00    +0.000 A 
ATOM      3  C   UNL     1      -7.877  53.845  46.898  0.00  0.00    +0.000 A 
ATOM      4  O   UNL     1     -10.282  52.550  49.026  0.00  0.00    +0.000 OA
ATOM      5  N   UNL     1     -10.605  54.096  47.289  0.00  0.00    +0.000 N 
ATOM      6  C   UNL     1      -8.768  53.612  45.759  0.00  0.00    +0.000 A 
ATOM      7  C   UNL     1     -10.146  53.858  45.943  0.00  0.00    +0.000 A 
ATOM      8  C   UNL     1      -8.326  53.086  44.550  0.00  0.00    +0.000 A 
ATOM      9  N   UNL     1     -11.066  53.594  44.995  0.00  0.00    +0.000 NA
ATOM     10  C   UNL     1      -9.270  52.755  43.588  0.00  0.00    +0.000 A 
ATOM     11  C   UNL     1     -10.607  53.032  43.849  0.00  0.00    +0.000 A 
ENDROOT
BRANCH   1  19
ATOM     12 BR   UNL     1      -3.949  51.860  50.390  0.00  0.00    +0.000 Br
ATOM     13  C   UNL     1      -4.775  53.199  51.456  0.00  0.00    +0.000 A 
ATOM     14  C   UNL     1      -5.968  53.813  51.044  0.00  0.00    +0.000 A 
ATOM     15  C   UNL     1      -4.157  53.552  52.662  0.00  0.00    +0.000 A 
ATOM     16  N   UNL     1      -6.590  53.500  49.830  0.00  0.00    +0.000 N 
ATOM     17  C   UNL     1      -6.487  54.794  51.883  0.00  0.00    +0.000 A 
ATOM     18  C   UNL     1      -4.714  54.533  53.481  0.00  0.00    +0.000 A 
ATOM     19  C   UNL     1      -7.714  54.131  49.366  0.00  0.00    +0.000 C 
ATOM     20  S   UNL     1      -7.966  55.601  51.419  0.00  0.00    +0.000 S 
ATOM     21  C   UNL     1      -5.886  55.163  53.089  0.00  0.00    +0.000 A 
ATOM     22  N   UNL     1      -8.363  55.094  49.940  0.00  0.00    +0.000 N 
ATOM     23  O   UNL     1      -7.658  57.009  51.322  0.00  0.00    +0.000 OA
ATOM     24  O   UNL     1      -8.992  55.126  52.334  0.00  0.00    +0.000 OA
ATOM     25  H   UNL     1      -6.198  52.786  49.279  0.00  0.00    +0.000 HD
ATOM     26  H   UNL     1      -9.111  55.524  49.467  0.00  0.00    +0.000 HD
ENDBRANCH   1  19
BRANCH   3  27
ATOM     27  O   UNL     1      -6.639  54.371  46.605  0.00  0.00    +0.000 OA
ATOM     28  H   UNL     1      -5.865  53.951  46.925  0.00  0.00    +0.000 HD
ENDBRANCH   3  27
BRANCH   5  29
ATOM     29  C   UNL     1     -10.568  55.522  47.691  0.00  0.00    +0.000 C 
BRANCH  29  30
ATOM     30  C   UNL     1     -11.811  56.151  48.256  0.00  0.00    +0.000 A 
ATOM     31  C   UNL     1     -12.903  56.483  47.452  0.00  0.00    +0.000 A 
ATOM     32  C   UNL     1     -11.938  56.261  49.657  0.00  0.00    +0.000 A 
ATOM     33  C   UNL     1     -14.077  56.973  48.029  0.00  0.00    +0.000 A 
ATOM     34  C   UNL     1     -13.112  56.752  50.232  0.00  0.00    +0.000 A 
ATOM     35  C   UNL     1     -14.179  57.113  49.413  0.00  0.00    +0.000 A 
ENDBRANCH  29  30
ENDBRANCH   5  29
TORSDOF 4
ENDMDL
MODEL 9
REMARK VINA RESULT:      -7.9      2.818      5.209
REMARK  Name = 352971
REMARK  4 active torsions:
REMARK  status: ('A' for Active; 'I' for Inactive)
REMARK    1  A    between atoms: C_8  and  C_12
REMARK    2  A    between atoms: C_16  and  O_19
REMARK    3  A    between atoms: N_18  and  C_22
REMARK    4  A    between atoms: C_22  and  C_25
REMARK                            x       y       z     vdW  Elec       q    Type
REMARK                         _______ _______ _______ _____ _____    ______ ____
ROOT
ATOM      1  C   UNL     1      -9.556  52.663  48.414  0.00  0.00    +0.000 A 
ATOM      2  C   UNL     1     -10.983  52.809  48.004  0.00  0.00    +0.000 A 
ATOM      3  C   UNL     1      -8.653  52.663  47.415  0.00  0.00    +0.000 A 
ATOM      4  O   UNL     1     -11.879  52.220  48.595  0.00  0.00    +0.000 OA
ATOM      5  N   UNL     1     -11.151  53.778  46.996  0.00  0.00    +0.000 N 
ATOM      6  C   UNL     1      -9.169  52.721  46.045  0.00  0.00    +0.000 A 
ATOM      7  C   UNL     1     -10.390  53.398  45.832  0.00  0.00    +0.000 A 
ATOM      8  C   UNL     1      -8.554  52.074  44.979  0.00  0.00    +0.000 A 
ATOM      9  N   UNL     1     -11.001  53.436  44.632  0.00  0.00    +0.000 NA
ATOM     10  C   UNL     1      -9.202  52.057  43.752  0.00  0.00    +0.000 A 
ATOM     11  C   UNL     1     -10.401  52.751  43.627  0.00  0.00    +0.000 A 
ENDROOT
BRANCH   1  19
ATOM     12 BR   UNL     1      -7.692  57.064  50.702  0.00  0.00    +0.000 Br
ATOM     13  C   UNL     1      -7.743  55.613  51.929  0.00  0.00    +0.000 A 
ATOM     14  C   UNL     1      -8.204  54.349  51.530  0.00  0.00    +0.000 A 
ATOM     15  C   UNL     1      -7.309  55.846  53.240  0.00  0.00    +0.000 A 
ATOM     16  N   UNL     1      -8.671  54.097  50.236  0.00  0.00    +0.000 N 
ATOM     17  C   UNL     1      -8.221  53.355  52.504  0.00  0.00    +0.000 A 
ATOM     18  C   UNL     1      -7.331  54.821  54.185  0.00  0.00    +0.000 A 
ATOM     19  C   UNL     1      -9.193  52.896  49.835  0.00  0.00    +0.000 C 
ATOM     20  S   UNL     1      -8.792  51.762  52.069  0.00  0.00    +0.000 S 
ATOM     21  C   UNL     1      -7.794  53.566  53.817  0.00  0.00    +0.000 A 
ATOM     22  N   UNL     1      -9.349  51.832  50.557  0.00  0.00    +0.000 N 
ATOM     23  O   UNL     1      -9.917  51.476  52.929  0.00  0.00    +0.000 OA
ATOM     24  O   UNL     1      -7.622  50.898  52.065  0.00  0.00    +0.000 OA
ATOM     25  H   UNL     1      -8.621  54.825  49.575  0.00  0.00    +0.000 HD
ATOM     26  H   UNL     1      -9.815  51.053  50.177  0.00  0.00    +0.000 HD
ENDBRANCH   1  19
BRANCH   3  27
ATOM     27  O   UNL     1      -7.288  52.762  47.557  0.00  0.00    +0.000 OA
ATOM     28  H   UNL     1      -6.727  52.151  47.123  0.00  0.00    +0.000 HD
ENDBRANCH   3  27
BRANCH   5  29
ATOM     29  C   UNL     1     -10.807  55.119  47.524  0.00  0.00    +0.000 C 
BRANCH  29  30
ATOM     30  C   UNL     1     -11.900  55.976  48.100  0.00  0.00    +0.000 A 
ATOM     31  C   UNL     1     -12.967  56.434  47.323  0.00  0.00    +0.000 A 
ATOM     32  C   UNL     1     -11.931  56.190  49.494  0.00  0.00    +0.000 A 
ATOM     33  C   UNL     1     -14.013  57.144  47.917  0.00  0.00    +0.000 A 
ATOM     34  C   UNL     1     -12.977  56.901  50.085  0.00  0.00    +0.000 A 
ATOM     35  C   UNL     1     -14.015  57.382  49.291  0.00  0.00    +0.000 A 
ENDBRANCH  29  30
ENDBRANCH   5  29
TORSDOF 4
ENDMDL
