MODEL 1
REMARK VINA RESULT:      -7.0      0.000      0.000
REMARK  Name = 353222
REMARK  12 active torsions:
REMARK  status: ('A' for Active; 'I' for Inactive)
REMARK    1  A    between atoms: C_6  and  C_10
REMARK    2  A    between atoms: C_12  and  O_16
REMARK    3  A    between atoms: C_14  and  O_19
REMARK    4  A    between atoms: O_16  and  C_21
REMARK    5  A    between atoms: N_18  and  C_23
REMARK    6  A    between atoms: C_21  and  C_25
REMARK    7  A    between atoms: C_23  and  C_27
REMARK    8  A    between atoms: C_27  and  C_32
REMARK    9  A    between atoms: N_30  and  C_33
REMARK   10  A    between atoms: N_30  and  C_34
REMARK   11  A    between atoms: C_32  and  C_35
REMARK   12  A    between atoms: C_32  and  C_36
REMARK                            x       y       z     vdW  Elec       q    Type
REMARK                         _______ _______ _______ _____ _____    ______ ____
ROOT
ATOM      1  S   UNL     1      -9.394  52.477  52.860  0.00  0.00    +0.000 S 
ATOM      2  O   UNL     1      -9.309  51.069  52.510  0.00  0.00    +0.000 OA
ATOM      3  O   UNL     1      -9.863  52.874  54.176  0.00  0.00    +0.000 OA
ATOM      4  N   UNL     1     -10.312  53.210  51.754  0.00  0.00    +0.000 N 
ATOM      5  C   UNL     1      -7.767  53.114  52.722  0.00  0.00    +0.000 A 
ATOM      6  C   UNL     1      -9.786  53.999  50.865  0.00  0.00    +0.000 C 
ATOM      7  C   UNL     1      -7.487  53.966  51.669  0.00  0.00    +0.000 A 
ATOM      8  C   UNL     1      -6.806  52.758  53.666  0.00  0.00    +0.000 A 
ATOM      9  N   UNL     1      -8.451  54.283  50.721  0.00  0.00    +0.000 N 
ATOM     10  C   UNL     1      -6.185  54.438  51.521  0.00  0.00    +0.000 A 
ATOM     11  C   UNL     1      -5.518  53.256  53.525  0.00  0.00    +0.000 A 
ATOM     12  C   UNL     1      -5.204  54.082  52.445  0.00  0.00    +0.000 A 
ATOM     13  H   UNL     1     -11.284  53.058  51.754  0.00  0.00    +0.000 HD
ATOM     14  H   UNL     1      -8.160  54.738  49.898  0.00  0.00    +0.000 HD
ENDROOT
BRANCH   6  15
ATOM     15  C   UNL     1     -10.747  54.681  49.929  0.00  0.00    +0.000 A 
ATOM     16  C   UNL     1     -10.605  54.475  48.454  0.00  0.00    +0.000 A 
ATOM     17  C   UNL     1     -11.737  55.447  50.416  0.00  0.00    +0.000 A 
ATOM     18  O   UNL     1      -9.752  53.684  48.045  0.00  0.00    +0.000 OA
ATOM     19  N   UNL     1     -11.450  55.172  47.615  0.00  0.00    +0.000 N 
ATOM     20  C   UNL     1     -12.608  56.178  49.498  0.00  0.00    +0.000 A 
ATOM     21  C   UNL     1     -12.440  56.053  48.115  0.00  0.00    +0.000 A 
ATOM     22  C   UNL     1     -13.580  57.067  49.970  0.00  0.00    +0.000 A 
ATOM     23  N   UNL     1     -13.181  56.758  47.228  0.00  0.00    +0.000 NA
ATOM     24  C   UNL     1     -14.327  57.811  49.070  0.00  0.00    +0.000 A 
ATOM     25  C   UNL     1     -14.094  57.621  47.721  0.00  0.00    +0.000 A 
BRANCH  17  26
ATOM     26  O   UNL     1     -11.997  55.647  51.761  0.00  0.00    +0.000 OA
ATOM     27  H   UNL     1     -11.388  56.123  52.290  0.00  0.00    +0.000 HD
ENDBRANCH  17  26
BRANCH  19  28
ATOM     28  C   UNL     1     -11.279  55.057  46.164  0.00  0.00    +0.000 C 
BRANCH  28  29
ATOM     29  C   UNL     1     -12.070  53.874  45.592  0.00  0.00    +0.000 C 
BRANCH  29  30
ATOM     30  C   UNL     1     -11.215  52.823  44.858  0.00  0.00    +0.000 C 
ATOM     31  C   UNL     1      -9.776  53.288  44.634  0.00  0.00    +0.000 C 
ATOM     32  C   UNL     1     -11.213  51.521  45.666  0.00  0.00    +0.000 C 
ENDBRANCH  29  30
ENDBRANCH  28  29
ENDBRANCH  19  28
ENDBRANCH   6  15
BRANCH  11  33
ATOM     33  O   UNL     1      -4.470  52.959  54.344  0.00  0.00    +0.000 OA
BRANCH  33  34
ATOM     34  C   UNL     1      -3.300  52.481  53.693  0.00  0.00    +0.000 C 
BRANCH  34  35
ATOM     35  C   UNL     1      -3.404  50.974  53.469  0.00  0.00    +0.000 C 
ATOM     36  O   UNL     1      -3.489  50.183  54.411  0.00  0.00    +0.000 OA
ATOM     37  N   UNL     1      -3.379  50.535  52.146  0.00  0.00    +0.000 N 
ATOM     38  C   UNL     1      -3.300  51.395  50.973  0.00  0.00    +0.000 C 
ATOM     39  C   UNL     1      -3.440  49.107  51.887  0.00  0.00    +0.000 C 
ENDBRANCH  34  35
ENDBRANCH  33  34
ENDBRANCH  11  33
TORSDOF 8
ENDMDL
MODEL 2
REMARK VINA RESULT:      -6.9      3.210      9.160
REMARK  Name = 353222
REMARK  12 active torsions:
REMARK  status: ('A' for Active; 'I' for Inactive)
REMARK    1  A    between atoms: C_6  and  C_10
REMARK    2  A    between atoms: C_12  and  O_16
REMARK    3  A    between atoms: C_14  and  O_19
REMARK    4  A    between atoms: O_16  and  C_21
REMARK    5  A    between atoms: N_18  and  C_23
REMARK    6  A    between atoms: C_21  and  C_25
REMARK    7  A    between atoms: C_23  and  C_27
REMARK    8  A    between atoms: C_27  and  C_32
REMARK    9  A    between atoms: N_30  and  C_33
REMARK   10  A    between atoms: N_30  and  C_34
REMARK   11  A    between atoms: C_32  and  C_35
REMARK   12  A    between atoms: C_32  and  C_36
REMARK                            x       y       z     vdW  Elec       q    Type
REMARK                         _______ _______ _______ _____ _____    ______ ____
ROOT
ATOM      1  S   UNL     1     -11.674  53.840  48.189  0.00  0.00    +0.000 S 
ATOM      2  O   UNL     1     -12.519  52.660  48.113  0.00  0.00    +0.000 OA
ATOM      3  O   UNL     1     -11.829  54.910  47.220  0.00  0.00    +0.000 OA
ATOM      4  N   UNL     1     -10.136  53.353  48.162  0.00  0.00    +0.000 N 
ATOM      5  C   UNL     1     -11.987  54.564  49.754  0.00  0.00    +0.000 A 
ATOM      6  C   UNL     1      -9.402  53.397  49.233  0.00  0.00    +0.000 C 
ATOM      7  C   UNL     1     -10.999  54.480  50.720  0.00  0.00    +0.000 A 
ATOM      8  C   UNL     1     -13.201  55.205  49.985  0.00  0.00    +0.000 A 
ATOM      9  N   UNL     1      -9.809  53.808  50.478  0.00  0.00    +0.000 N 
ATOM     10  C   UNL     1     -11.256  55.008  51.983  0.00  0.00    +0.000 A 
ATOM     11  C   UNL     1     -13.436  55.753  51.240  0.00  0.00    +0.000 A 
ATOM     12  C   UNL     1     -12.471  55.640  52.242  0.00  0.00    +0.000 A 
ATOM     13  H   UNL     1      -9.750  53.017  47.321  0.00  0.00    +0.000 HD
ATOM     14  H   UNL     1      -9.221  53.616  51.244  0.00  0.00    +0.000 HD
ENDROOT
BRANCH   6  15
ATOM     15  C   UNL     1      -7.964  52.984  49.072  0.00  0.00    +0.000 A 
ATOM     16  C   UNL     1      -6.894  53.767  49.766  0.00  0.00    +0.000 A 
ATOM     17  C   UNL     1      -7.648  51.908  48.334  0.00  0.00    +0.000 A 
ATOM     18  O   UNL     1      -7.226  54.686  50.518  0.00  0.00    +0.000 OA
ATOM     19  N   UNL     1      -5.580  53.414  49.541  0.00  0.00    +0.000 N 
ATOM     20  C   UNL     1      -6.244  51.568  48.110  0.00  0.00    +0.000 A 
ATOM     21  C   UNL     1      -5.230  52.336  48.691  0.00  0.00    +0.000 A 
ATOM     22  C   UNL     1      -5.876  50.518  47.261  0.00  0.00    +0.000 A 
ATOM     23  N   UNL     1      -3.918  52.097  48.462  0.00  0.00    +0.000 NA
ATOM     24  C   UNL     1      -4.536  50.282  47.000  0.00  0.00    +0.000 A 
ATOM     25  C   UNL     1      -3.602  51.090  47.620  0.00  0.00    +0.000 A 
BRANCH  17  26
ATOM     26  O   UNL     1      -8.563  51.077  47.710  0.00  0.00    +0.000 OA
ATOM     27  H   UNL     1      -9.207  51.438  47.134  0.00  0.00    +0.000 HD
ENDBRANCH  17  26
BRANCH  19  28
ATOM     28  C   UNL     1      -4.508  54.216  50.137  0.00  0.00    +0.000 C 
BRANCH  28  29
ATOM     29  C   UNL     1      -4.007  53.604  51.452  0.00  0.00    +0.000 C 
BRANCH  29  30
ATOM     30  C   UNL     1      -4.527  54.299  52.724  0.00  0.00    +0.000 C 
ATOM     31  C   UNL     1      -5.507  53.428  53.511  0.00  0.00    +0.000 C 
ATOM     32  C   UNL     1      -3.339  54.669  53.619  0.00  0.00    +0.000 C 
ENDBRANCH  29  30
ENDBRANCH  28  29
ENDBRANCH  19  28
ENDBRANCH   6  15
BRANCH  11  33
ATOM     33  O   UNL     1     -14.590  56.369  51.621  0.00  0.00    +0.000 OA
BRANCH  33  34
ATOM     34  C   UNL     1     -15.210  57.178  50.629  0.00  0.00    +0.000 C 
BRANCH  34  35
ATOM     35  C   UNL     1     -14.694  58.612  50.725  0.00  0.00    +0.000 C 
ATOM     36  O   UNL     1     -14.888  59.304  51.727  0.00  0.00    +0.000 OA
ATOM     37  N   UNL     1     -14.008  59.106  49.617  0.00  0.00    +0.000 N 
ATOM     38  C   UNL     1     -13.717  58.356  48.403  0.00  0.00    +0.000 C 
ATOM     39  C   UNL     1     -13.530  60.477  49.650  0.00  0.00    +0.000 C 
ENDBRANCH  34  35
ENDBRANCH  33  34
ENDBRANCH  11  33
TORSDOF 8
ENDMDL
MODEL 3
REMARK VINA RESULT:      -6.7      2.725      9.311
REMARK  Name = 353222
REMARK  12 active torsions:
REMARK  status: ('A' for Active; 'I' for Inactive)
REMARK    1  A    between atoms: C_6  and  C_10
REMARK    2  A    between atoms: C_12  and  O_16
REMARK    3  A    between atoms: C_14  and  O_19
REMARK    4  A    between atoms: O_16  and  C_21
REMARK    5  A    between atoms: N_18  and  C_23
REMARK    6  A    between atoms: C_21  and  C_25
REMARK    7  A    between atoms: C_23  and  C_27
REMARK    8  A    between atoms: C_27  and  C_32
REMARK    9  A    between atoms: N_30  and  C_33
REMARK   10  A    between atoms: N_30  and  C_34
REMARK   11  A    between atoms: C_32  and  C_35
REMARK   12  A    between atoms: C_32  and  C_36
REMARK                            x       y       z     vdW  Elec       q    Type
REMARK                         _______ _______ _______ _____ _____    ______ ____
ROOT
ATOM      1  S   UNL     1     -10.816  54.297  51.411  0.00  0.00    +0.000 S 
ATOM      2  O   UNL     1     -10.625  55.394  52.344  0.00  0.00    +0.000 OA
ATOM      3  O   UNL     1     -11.707  53.200  51.750  0.00  0.00    +0.000 OA
ATOM      4  N   UNL     1      -9.366  53.680  51.065  0.00  0.00    +0.000 N 
ATOM      5  C   UNL     1     -11.468  55.007  49.948  0.00  0.00    +0.000 A 
ATOM      6  C   UNL     1      -8.814  53.881  49.905  0.00  0.00    +0.000 C 
ATOM      7  C   UNL     1     -10.649  55.073  48.835  0.00  0.00    +0.000 A 
ATOM      8  C   UNL     1     -12.780  55.476  49.936  0.00  0.00    +0.000 A 
ATOM      9  N   UNL     1      -9.334  54.629  48.879  0.00  0.00    +0.000 N 
ATOM     10  C   UNL     1     -11.140  55.681  47.681  0.00  0.00    +0.000 A 
ATOM     11  C   UNL     1     -13.268  56.055  48.772  0.00  0.00    +0.000 A 
ATOM     12  C   UNL     1     -12.444  56.172  47.652  0.00  0.00    +0.000 A 
ATOM     13  H   UNL     1      -8.893  53.144  51.741  0.00  0.00    +0.000 HD
ATOM     14  H   UNL     1      -8.740  54.863  48.129  0.00  0.00    +0.000 HD
ENDROOT
BRANCH   6  15
ATOM     15  C   UNL     1      -7.493  53.200  49.670  0.00  0.00    +0.000 A 
ATOM     16  C   UNL     1      -6.320  53.558  50.527  0.00  0.00    +0.000 A 
ATOM     17  C   UNL     1      -7.377  52.262  48.716  0.00  0.00    +0.000 A 
ATOM     18  O   UNL     1      -6.487  54.346  51.460  0.00  0.00    +0.000 OA
ATOM     19  N   UNL     1      -5.103  52.975  50.241  0.00  0.00    +0.000 N 
ATOM     20  C   UNL     1      -6.070  51.671  48.434  0.00  0.00    +0.000 A 
ATOM     21  C   UNL     1      -4.948  52.051  49.178  0.00  0.00    +0.000 A 
ATOM     22  C   UNL     1      -5.890  50.770  47.379  0.00  0.00    +0.000 A 
ATOM     23  N   UNL     1      -3.708  51.579  48.913  0.00  0.00    +0.000 NA
ATOM     24  C   UNL     1      -4.621  50.300  47.083  0.00  0.00    +0.000 A 
ATOM     25  C   UNL     1      -3.571  50.728  47.873  0.00  0.00    +0.000 A 
BRANCH  17  26
ATOM     26  O   UNL     1      -8.413  51.809  47.917  0.00  0.00    +0.000 OA
ATOM     27  H   UNL     1      -8.233  51.478  47.060  0.00  0.00    +0.000 HD
ENDBRANCH  17  26
BRANCH  19  28
ATOM     28  C   UNL     1      -3.918  53.371  51.007  0.00  0.00    +0.000 C 
BRANCH  28  29
ATOM     29  C   UNL     1      -3.624  52.385  52.145  0.00  0.00    +0.000 C 
BRANCH  29  30
ATOM     30  C   UNL     1      -3.858  52.948  53.560  0.00  0.00    +0.000 C 
ATOM     31  C   UNL     1      -3.667  54.463  53.629  0.00  0.00    +0.000 C 
ATOM     32  C   UNL     1      -5.276  52.589  54.017  0.00  0.00    +0.000 C 
ENDBRANCH  29  30
ENDBRANCH  28  29
ENDBRANCH  19  28
ENDBRANCH   6  15
BRANCH  11  33
ATOM     33  O   UNL     1     -14.511  56.594  48.628  0.00  0.00    +0.000 OA
BRANCH  33  34
ATOM     34  C   UNL     1     -15.279  56.689  49.822  0.00  0.00    +0.000 C 
BRANCH  34  35
ATOM     35  C   UNL     1     -14.987  58.011  50.528  0.00  0.00    +0.000 C 
ATOM     36  O   UNL     1     -14.613  59.009  49.908  0.00  0.00    +0.000 OA
ATOM     37  N   UNL     1     -15.149  58.030  51.912  0.00  0.00    +0.000 N 
ATOM     38  C   UNL     1     -15.604  56.908  52.723  0.00  0.00    +0.000 C 
ATOM     39  C   UNL     1     -14.849  59.256  52.631  0.00  0.00    +0.000 C 
ENDBRANCH  34  35
ENDBRANCH  33  34
ENDBRANCH  11  33
TORSDOF 8
ENDMDL
MODEL 4
REMARK VINA RESULT:      -6.7      1.923      4.031
REMARK  Name = 353222
REMARK  12 active torsions:
REMARK  status: ('A' for Active; 'I' for Inactive)
REMARK    1  A    between atoms: C_6  and  C_10
REMARK    2  A    between atoms: C_12  and  O_16
REMARK    3  A    between atoms: C_14  and  O_19
REMARK    4  A    between atoms: O_16  and  C_21
REMARK    5  A    between atoms: N_18  and  C_23
REMARK    6  A    between atoms: C_21  and  C_25
REMARK    7  A    between atoms: C_23  and  C_27
REMARK    8  A    between atoms: C_27  and  C_32
REMARK    9  A    between atoms: N_30  and  C_33
REMARK   10  A    between atoms: N_30  and  C_34
REMARK   11  A    between atoms: C_32  and  C_35
REMARK   12  A    between atoms: C_32  and  C_36
REMARK                            x       y       z     vdW  Elec       q    Type
REMARK                         _______ _______ _______ _____ _____    ______ ____
ROOT
ATOM      1  S   UNL     1      -9.070  51.224  51.082  0.00  0.00    +0.000 S 
ATOM      2  O   UNL     1      -8.447  50.597  49.929  0.00  0.00    +0.000 OA
ATOM      3  O   UNL     1      -9.736  50.409  52.083  0.00  0.00    +0.000 OA
ATOM      4  N   UNL     1     -10.123  52.321  50.543  0.00  0.00    +0.000 N 
ATOM      5  C   UNL     1      -7.791  52.071  51.929  0.00  0.00    +0.000 A 
ATOM      6  C   UNL     1      -9.873  53.593  50.641  0.00  0.00    +0.000 C 
ATOM      7  C   UNL     1      -7.782  53.454  51.882  0.00  0.00    +0.000 A 
ATOM      8  C   UNL     1      -6.828  51.343  52.626  0.00  0.00    +0.000 A 
ATOM      9  N   UNL     1      -8.732  54.157  51.155  0.00  0.00    +0.000 N 
ATOM     10  C   UNL     1      -6.741  54.135  52.510  0.00  0.00    +0.000 A 
ATOM     11  C   UNL     1      -5.811  52.034  53.271  0.00  0.00    +0.000 A 
ATOM     12  C   UNL     1      -5.758  53.427  53.200  0.00  0.00    +0.000 A 
ATOM     13  H   UNL     1     -10.967  52.023  50.134  0.00  0.00    +0.000 HD
ATOM     14  H   UNL     1      -8.580  55.118  50.999  0.00  0.00    +0.000 HD
ENDROOT
BRANCH   6  15
ATOM     15  C   UNL     1     -10.957  54.523  50.168  0.00  0.00    +0.000 A 
ATOM     16  C   UNL     1     -12.049  54.916  51.113  0.00  0.00    +0.000 A 
ATOM     17  C   UNL     1     -10.930  55.015  48.919  0.00  0.00    +0.000 A 
ATOM     18  O   UNL     1     -11.988  54.530  52.283  0.00  0.00    +0.000 OA
ATOM     19  N   UNL     1     -13.071  55.708  50.633  0.00  0.00    +0.000 N 
ATOM     20  C   UNL     1     -12.034  55.845  48.442  0.00  0.00    +0.000 A 
ATOM     21  C   UNL     1     -13.100  56.159  49.291  0.00  0.00    +0.000 A 
ATOM     22  C   UNL     1     -12.092  56.287  47.115  0.00  0.00    +0.000 A 
ATOM     23  N   UNL     1     -14.173  56.871  48.874  0.00  0.00    +0.000 NA
ATOM     24  C   UNL     1     -13.198  56.994  46.672  0.00  0.00    +0.000 A 
ATOM     25  C   UNL     1     -14.203  57.261  47.582  0.00  0.00    +0.000 A 
BRANCH  17  26
ATOM     26  O   UNL     1      -9.932  54.771  47.992  0.00  0.00    +0.000 OA
ATOM     27  H   UNL     1      -9.066  55.096  48.140  0.00  0.00    +0.000 HD
ENDBRANCH  17  26
BRANCH  19  28
ATOM     28  C   UNL     1     -14.198  56.038  51.510  0.00  0.00    +0.000 C 
BRANCH  28  29
ATOM     29  C   UNL     1     -13.928  57.308  52.327  0.00  0.00    +0.000 C 
BRANCH  29  30
ATOM     30  C   UNL     1     -14.936  58.449  52.095  0.00  0.00    +0.000 C 
ATOM     31  C   UNL     1     -15.327  59.161  53.391  0.00  0.00    +0.000 C 
ATOM     32  C   UNL     1     -14.334  59.463  51.116  0.00  0.00    +0.000 C 
ENDBRANCH  29  30
ENDBRANCH  28  29
ENDBRANCH  19  28
ENDBRANCH   6  15
BRANCH  11  33
ATOM     33  O   UNL     1      -4.782  51.455  53.952  0.00  0.00    +0.000 OA
BRANCH  33  34
ATOM     34  C   UNL     1      -3.528  51.457  53.282  0.00  0.00    +0.000 C 
BRANCH  34  35
ATOM     35  C   UNL     1      -3.440  50.266  52.329  0.00  0.00    +0.000 C 
ATOM     36  O   UNL     1      -3.303  49.114  52.745  0.00  0.00    +0.000 OA
ATOM     37  N   UNL     1      -3.505  50.550  50.967  0.00  0.00    +0.000 N 
ATOM     38  C   UNL     1      -3.684  51.874  50.388  0.00  0.00    +0.000 C 
ATOM     39  C   UNL     1      -3.390  49.452  50.022  0.00  0.00    +0.000 C 
ENDBRANCH  34  35
ENDBRANCH  33  34
ENDBRANCH  11  33
TORSDOF 8
ENDMDL
MODEL 5
REMARK VINA RESULT:      -6.6      2.617      4.803
REMARK  Name = 353222
REMARK  12 active torsions:
REMARK  status: ('A' for Active; 'I' for Inactive)
REMARK    1  A    between atoms: C_6  and  C_10
REMARK    2  A    between atoms: C_12  and  O_16
REMARK    3  A    between atoms: C_14  and  O_19
REMARK    4  A    between atoms: O_16  and  C_21
REMARK    5  A    between atoms: N_18  and  C_23
REMARK    6  A    between atoms: C_21  and  C_25
REMARK    7  A    between atoms: C_23  and  C_27
REMARK    8  A    between atoms: C_27  and  C_32
REMARK    9  A    between atoms: N_30  and  C_33
REMARK   10  A    between atoms: N_30  and  C_34
REMARK   11  A    between atoms: C_32  and  C_35
REMARK   12  A    between atoms: C_32  and  C_36
REMARK                            x       y       z     vdW  Elec       q    Type
REMARK                         _______ _______ _______ _____ _____    ______ ____
ROOT
ATOM      1  S   UNL     1      -6.756  54.993  51.326  0.00  0.00    +0.000 S 
ATOM      2  O   UNL     1      -6.412  55.538  52.628  0.00  0.00    +0.000 OA
ATOM      3  O   UNL     1      -5.862  55.185  50.197  0.00  0.00    +0.000 OA
ATOM      4  N   UNL     1      -8.211  55.557  50.919  0.00  0.00    +0.000 N 
ATOM      5  C   UNL     1      -6.887  53.259  51.541  0.00  0.00    +0.000 A 
ATOM      6  C   UNL     1      -9.257  54.786  50.938  0.00  0.00    +0.000 C 
ATOM      7  C   UNL     1      -8.147  52.689  51.492  0.00  0.00    +0.000 A 
ATOM      8  C   UNL     1      -5.736  52.502  51.747  0.00  0.00    +0.000 A 
ATOM      9  N   UNL     1      -9.284  53.467  51.316  0.00  0.00    +0.000 N 
ATOM     10  C   UNL     1      -8.268  51.319  51.711  0.00  0.00    +0.000 A 
ATOM     11  C   UNL     1      -5.865  51.132  51.938  0.00  0.00    +0.000 A 
ATOM     12  C   UNL     1      -7.131  50.544  51.936  0.00  0.00    +0.000 A 
ATOM     13  H   UNL     1      -8.308  56.500  50.652  0.00  0.00    +0.000 HD
ATOM     14  H   UNL     1     -10.161  53.047  51.472  0.00  0.00    +0.000 HD
ENDROOT
BRANCH   6  15
ATOM     15  C   UNL     1     -10.548  55.402  50.472  0.00  0.00    +0.000 A 
ATOM     16  C   UNL     1     -11.651  55.628  51.459  0.00  0.00    +0.000 A 
ATOM     17  C   UNL     1     -10.698  55.769  49.189  0.00  0.00    +0.000 A 
ATOM     18  O   UNL     1     -11.443  55.377  52.647  0.00  0.00    +0.000 OA
ATOM     19  N   UNL     1     -12.850  56.124  50.991  0.00  0.00    +0.000 N 
ATOM     20  C   UNL     1     -11.986  56.283  48.727  0.00  0.00    +0.000 A 
ATOM     21  C   UNL     1     -13.050  56.429  49.623  0.00  0.00    +0.000 A 
ATOM     22  C   UNL     1     -12.211  56.575  47.377  0.00  0.00    +0.000 A 
ATOM     23  N   UNL     1     -14.278  56.842  49.229  0.00  0.00    +0.000 NA
ATOM     24  C   UNL     1     -13.471  56.973  46.960  0.00  0.00    +0.000 A 
ATOM     25  C   UNL     1     -14.463  57.093  47.915  0.00  0.00    +0.000 A 
BRANCH  17  26
ATOM     26  O   UNL     1      -9.720  55.668  48.216  0.00  0.00    +0.000 OA
ATOM     27  H   UNL     1      -9.430  56.435  47.761  0.00  0.00    +0.000 HD
ENDBRANCH  17  26
BRANCH  19  28
ATOM     28  C   UNL     1     -13.976  56.274  51.917  0.00  0.00    +0.000 C 
BRANCH  28  29
ATOM     29  C   UNL     1     -13.934  57.623  52.647  0.00  0.00    +0.000 C 
BRANCH  29  30
ATOM     30  C   UNL     1     -15.108  58.567  52.324  0.00  0.00    +0.000 C 
ATOM     31  C   UNL     1     -15.509  59.435  53.517  0.00  0.00    +0.000 C 
ATOM     32  C   UNL     1     -14.724  59.465  51.143  0.00  0.00    +0.000 C 
ENDBRANCH  29  30
ENDBRANCH  28  29
ENDBRANCH  19  28
ENDBRANCH   6  15
BRANCH  11  33
ATOM     33  O   UNL     1      -4.836  50.277  52.193  0.00  0.00    +0.000 OA
BRANCH  33  34
ATOM     34  C   UNL     1      -4.445  49.447  51.106  0.00  0.00    +0.000 C 
BRANCH  34  35
ATOM     35  C   UNL     1      -4.250  50.290  49.847  0.00  0.00    +0.000 C 
ATOM     36  O   UNL     1      -3.315  51.085  49.738  0.00  0.00    +0.000 OA
ATOM     37  N   UNL     1      -5.193  50.128  48.834  0.00  0.00    +0.000 N 
ATOM     38  C   UNL     1      -6.317  49.201  48.868  0.00  0.00    +0.000 C 
ATOM     39  C   UNL     1      -5.068  50.934  47.632  0.00  0.00    +0.000 C 
ENDBRANCH  34  35
ENDBRANCH  33  34
ENDBRANCH  11  33
TORSDOF 8
ENDMDL
MODEL 6
REMARK VINA RESULT:      -6.5      2.709      9.735
REMARK  Name = 353222
REMARK  12 active torsions:
REMARK  status: ('A' for Active; 'I' for Inactive)
REMARK    1  A    between atoms: C_6  and  C_10
REMARK    2  A    between atoms: C_12  and  O_16
REMARK    3  A    between atoms: C_14  and  O_19
REMARK    4  A    between atoms: O_16  and  C_21
REMARK    5  A    between atoms: N_18  and  C_23
REMARK    6  A    between atoms: C_21  and  C_25
REMARK    7  A    between atoms: C_23  and  C_27
REMARK    8  A    between atoms: C_27  and  C_32
REMARK    9  A    between atoms: N_30  and  C_33
REMARK   10  A    between atoms: N_30  and  C_34
REMARK   11  A    between atoms: C_32  and  C_35
REMARK   12  A    between atoms: C_32  and  C_36
REMARK                            x       y       z     vdW  Elec       q    Type
REMARK                         _______ _______ _______ _____ _____    ______ ____
ROOT
ATOM      1  S   UNL     1      -8.880  54.496  47.088  0.00  0.00    +0.000 S 
ATOM      2  O   UNL     1      -9.252  53.741  45.903  0.00  0.00    +0.000 OA
ATOM      3  O   UNL     1      -8.271  55.808  46.953  0.00  0.00    +0.000 OA
ATOM      4  N   UNL     1      -7.899  53.574  47.977  0.00  0.00    +0.000 N 
ATOM      5  C   UNL     1     -10.359  54.747  47.993  0.00  0.00    +0.000 A 
ATOM      6  C   UNL     1      -8.311  53.037  49.087  0.00  0.00    +0.000 C 
ATOM      7  C   UNL     1     -10.526  54.046  49.175  0.00  0.00    +0.000 A 
ATOM      8  C   UNL     1     -11.317  55.637  47.514  0.00  0.00    +0.000 A 
ATOM      9  N   UNL     1      -9.573  53.140  49.618  0.00  0.00    +0.000 N 
ATOM     10  C   UNL     1     -11.719  54.200  49.878  0.00  0.00    +0.000 A 
ATOM     11  C   UNL     1     -12.491  55.804  48.237  0.00  0.00    +0.000 A 
ATOM     12  C   UNL     1     -12.699  55.074  49.408  0.00  0.00    +0.000 A 
ATOM     13  H   UNL     1      -6.976  53.416  47.675  0.00  0.00    +0.000 HD
ATOM     14  H   UNL     1      -9.815  52.536  50.357  0.00  0.00    +0.000 HD
ENDROOT
BRANCH   6  15
ATOM     15  C   UNL     1      -7.289  52.255  49.867  0.00  0.00    +0.000 A 
ATOM     16  C   UNL     1      -7.106  52.539  51.325  0.00  0.00    +0.000 A 
ATOM     17  C   UNL     1      -6.568  51.295  49.266  0.00  0.00    +0.000 A 
ATOM     18  O   UNL     1      -7.856  53.353  51.869  0.00  0.00    +0.000 OA
ATOM     19  N   UNL     1      -6.111  51.862  52.000  0.00  0.00    +0.000 N 
ATOM     20  C   UNL     1      -5.516  50.605  50.009  0.00  0.00    +0.000 A 
ATOM     21  C   UNL     1      -5.283  50.912  51.354  0.00  0.00    +0.000 A 
ATOM     22  C   UNL     1      -4.675  49.675  49.387  0.00  0.00    +0.000 A 
ATOM     23  N   UNL     1      -4.281  50.344  52.064  0.00  0.00    +0.000 NA
ATOM     24  C   UNL     1      -3.631  49.107  50.098  0.00  0.00    +0.000 A 
ATOM     25  C   UNL     1      -3.477  49.468  51.423  0.00  0.00    +0.000 A 
BRANCH  17  26
ATOM     26  O   UNL     1      -6.708  50.908  47.944  0.00  0.00    +0.000 OA
ATOM     27  H   UNL     1      -6.744  51.555  47.268  0.00  0.00    +0.000 HD
ENDBRANCH  17  26
BRANCH  19  28
ATOM     28  C   UNL     1      -5.851  52.181  53.406  0.00  0.00    +0.000 C 
BRANCH  28  29
ATOM     29  C   UNL     1      -4.720  53.206  53.555  0.00  0.00    +0.000 C 
BRANCH  29  30
ATOM     30  C   UNL     1      -5.190  54.657  53.769  0.00  0.00    +0.000 C 
ATOM     31  C   UNL     1      -6.408  54.751  54.690  0.00  0.00    +0.000 C 
ATOM     32  C   UNL     1      -4.038  55.479  54.358  0.00  0.00    +0.000 C 
ENDBRANCH  29  30
ENDBRANCH  28  29
ENDBRANCH  19  28
ENDBRANCH   6  15
BRANCH  11  33
ATOM     33  O   UNL     1     -13.530  56.604  47.868  0.00  0.00    +0.000 OA
BRANCH  33  34
ATOM     34  C   UNL     1     -14.554  56.766  48.841  0.00  0.00    +0.000 C 
BRANCH  34  35
ATOM     35  C   UNL     1     -14.290  58.017  49.677  0.00  0.00    +0.000 C 
ATOM     36  O   UNL     1     -13.673  58.982  49.220  0.00  0.00    +0.000 OA
ATOM     37  N   UNL     1     -14.766  58.007  50.986  0.00  0.00    +0.000 N 
ATOM     38  C   UNL     1     -15.519  56.922  51.601  0.00  0.00    +0.000 C 
ATOM     39  C   UNL     1     -14.508  59.161  51.829  0.00  0.00    +0.000 C 
ENDBRANCH  34  35
ENDBRANCH  33  34
ENDBRANCH  11  33
TORSDOF 8
ENDMDL
MODEL 7
REMARK VINA RESULT:      -6.2      2.040      4.081
REMARK  Name = 353222
REMARK  12 active torsions:
REMARK  status: ('A' for Active; 'I' for Inactive)
REMARK    1  A    between atoms: C_6  and  C_10
REMARK    2  A    between atoms: C_12  and  O_16
REMARK    3  A    between atoms: C_14  and  O_19
REMARK    4  A    between atoms: O_16  and  C_21
REMARK    5  A    between atoms: N_18  and  C_23
REMARK    6  A    between atoms: C_21  and  C_25
REMARK    7  A    between atoms: C_23  and  C_27
REMARK    8  A    between atoms: C_27  and  C_32
REMARK    9  A    between atoms: N_30  and  C_33
REMARK   10  A    between atoms: N_30  and  C_34
REMARK   11  A    between atoms: C_32  and  C_35
REMARK   12  A    between atoms: C_32  and  C_36
REMARK                            x       y       z     vdW  Elec       q    Type
REMARK                         _______ _______ _______ _____ _____    ______ ____
ROOT
ATOM      1  S   UNL     1      -9.570  51.687  52.360  0.00  0.00    +0.000 S 
ATOM      2  O   UNL     1     -10.184  50.418  52.007  0.00  0.00    +0.000 OA
ATOM      3  O   UNL     1      -9.305  52.005  53.753  0.00  0.00    +0.000 OA
ATOM      4  N   UNL     1     -10.475  52.868  51.737  0.00  0.00    +0.000 N 
ATOM      5  C   UNL     1      -8.012  51.716  51.559  0.00  0.00    +0.000 A 
ATOM      6  C   UNL     1     -10.066  53.551  50.709  0.00  0.00    +0.000 C 
ATOM      7  C   UNL     1      -7.847  52.572  50.485  0.00  0.00    +0.000 A 
ATOM      8  C   UNL     1      -6.986  50.892  52.019  0.00  0.00    +0.000 A 
ATOM      9  N   UNL     1      -8.893  53.360  50.024  0.00  0.00    +0.000 N 
ATOM     10  C   UNL     1      -6.629  52.567  49.809  0.00  0.00    +0.000 A 
ATOM     11  C   UNL     1      -5.767  50.916  51.355  0.00  0.00    +0.000 A 
ATOM     12  C   UNL     1      -5.594  51.740  50.242  0.00  0.00    +0.000 A 
ATOM     13  H   UNL     1     -11.348  53.073  52.141  0.00  0.00    +0.000 HD
ATOM     14  H   UNL     1      -8.786  53.810  49.154  0.00  0.00    +0.000 HD
ENDROOT
BRANCH   6  15
ATOM     15  C   UNL     1     -10.961  54.674  50.258  0.00  0.00    +0.000 A 
ATOM     16  C   UNL     1     -11.557  55.593  51.278  0.00  0.00    +0.000 A 
ATOM     17  C   UNL     1     -11.202  54.863  48.950  0.00  0.00    +0.000 A 
ATOM     18  O   UNL     1     -11.233  55.455  52.460  0.00  0.00    +0.000 OA
ATOM     19  N   UNL     1     -12.433  56.565  50.845  0.00  0.00    +0.000 N 
ATOM     20  C   UNL     1     -12.143  55.898  48.528  0.00  0.00    +0.000 A 
ATOM     21  C   UNL     1     -12.765  56.716  49.476  0.00  0.00    +0.000 A 
ATOM     22  C   UNL     1     -12.498  56.054  47.183  0.00  0.00    +0.000 A 
ATOM     23  N   UNL     1     -13.689  57.645  49.137  0.00  0.00    +0.000 NA
ATOM     24  C   UNL     1     -13.462  56.984  46.829  0.00  0.00    +0.000 A 
ATOM     25  C   UNL     1     -14.022  57.751  47.833  0.00  0.00    +0.000 A 
BRANCH  17  26
ATOM     26  O   UNL     1     -10.647  54.116  47.925  0.00  0.00    +0.000 OA
ATOM     27  H   UNL     1     -10.174  54.542  47.238  0.00  0.00    +0.000 HD
ENDBRANCH  17  26
BRANCH  19  28
ATOM     28  C   UNL     1     -13.099  57.424  51.828  0.00  0.00    +0.000 C 
BRANCH  28  29
ATOM     29  C   UNL     1     -14.310  56.727  52.462  0.00  0.00    +0.000 C 
BRANCH  29  30
ATOM     30  C   UNL     1     -15.671  57.361  52.114  0.00  0.00    +0.000 C 
ATOM     31  C   UNL     1     -15.560  58.851  51.788  0.00  0.00    +0.000 C 
ATOM     32  C   UNL     1     -16.282  56.620  50.920  0.00  0.00    +0.000 C 
ENDBRANCH  29  30
ENDBRANCH  28  29
ENDBRANCH  19  28
ENDBRANCH   6  15
BRANCH  11  33
ATOM     33  O   UNL     1      -4.693  50.136  51.664  0.00  0.00    +0.000 OA
BRANCH  33  34
ATOM     34  C   UNL     1      -3.634  50.796  52.348  0.00  0.00    +0.000 C 
BRANCH  34  35
ATOM     35  C   UNL     1      -4.201  51.731  53.413  0.00  0.00    +0.000 C 
ATOM     36  O   UNL     1      -4.805  51.301  54.398  0.00  0.00    +0.000 OA
ATOM     37  N   UNL     1      -4.016  53.097  53.209  0.00  0.00    +0.000 N 
ATOM     38  C   UNL     1      -3.301  53.693  52.088  0.00  0.00    +0.000 C 
ATOM     39  C   UNL     1      -4.568  54.026  54.179  0.00  0.00    +0.000 C 
ENDBRANCH  34  35
ENDBRANCH  33  34
ENDBRANCH  11  33
TORSDOF 8
ENDMDL
MODEL 8
REMARK VINA RESULT:      -6.1      2.610      4.725
REMARK  Name = 353222
REMARK  12 active torsions:
REMARK  status: ('A' for Active; 'I' for Inactive)
REMARK    1  A    between atoms: C_6  and  C_10
REMARK    2  A    between atoms: C_12  and  O_16
REMARK    3  A    between atoms: C_14  and  O_19
REMARK    4  A    between atoms: O_16  and  C_21
REMARK    5  A    between atoms: N_18  and  C_23
REMARK    6  A    between atoms: C_21  and  C_25
REMARK    7  A    between atoms: C_23  and  C_27
REMARK    8  A    between atoms: C_27  and  C_32
REMARK    9  A    between atoms: N_30  and  C_33
REMARK   10  A    between atoms: N_30  and  C_34
REMARK   11  A    between atoms: C_32  and  C_35
REMARK   12  A    between atoms: C_32  and  C_36
REMARK                            x       y       z     vdW  Elec       q    Type
REMARK                         _______ _______ _______ _____ _____    ______ ____
ROOT
ATOM      1  S   UNL     1      -6.703  54.301  49.560  0.00  0.00    +0.000 S 
ATOM      2  O   UNL     1      -5.927  54.874  50.647  0.00  0.00    +0.000 OA
ATOM      3  O   UNL     1      -6.184  54.327  48.203  0.00  0.00    +0.000 OA
ATOM      4  N   UNL     1      -8.155  55.004  49.559  0.00  0.00    +0.000 N 
ATOM      5  C   UNL     1      -6.920  52.607  49.954  0.00  0.00    +0.000 A 
ATOM      6  C   UNL     1      -9.210  54.359  49.958  0.00  0.00    +0.000 C 
ATOM      7  C   UNL     1      -8.182  52.183  50.334  0.00  0.00    +0.000 A 
ATOM      8  C   UNL     1      -5.836  51.736  49.872  0.00  0.00    +0.000 A 
ATOM      9  N   UNL     1      -9.241  53.074  50.440  0.00  0.00    +0.000 N 
ATOM     10  C   UNL     1      -8.355  50.850  50.698  0.00  0.00    +0.000 A 
ATOM     11  C   UNL     1      -6.026  50.403  50.211  0.00  0.00    +0.000 A 
ATOM     12  C   UNL     1      -7.280  49.964  50.639  0.00  0.00    +0.000 A 
ATOM     13  H   UNL     1      -8.241  55.935  49.253  0.00  0.00    +0.000 HD
ATOM     14  H   UNL     1     -10.063  52.767  50.886  0.00  0.00    +0.000 HD
ENDROOT
BRANCH   6  15
ATOM     15  C   UNL     1     -10.520  55.092  49.847  0.00  0.00    +0.000 A 
ATOM     16  C   UNL     1     -11.367  55.267  51.068  0.00  0.00    +0.000 A 
ATOM     17  C   UNL     1     -10.910  55.606  48.670  0.00  0.00    +0.000 A 
ATOM     18  O   UNL     1     -10.932  54.874  52.153  0.00  0.00    +0.000 OA
ATOM     19  N   UNL     1     -12.597  55.875  50.925  0.00  0.00    +0.000 N 
ATOM     20  C   UNL     1     -12.223  56.237  48.553  0.00  0.00    +0.000 A 
ATOM     21  C   UNL     1     -13.059  56.340  49.669  0.00  0.00    +0.000 A 
ATOM     22  C   UNL     1     -12.706  56.688  47.319  0.00  0.00    +0.000 A 
ATOM     23  N   UNL     1     -14.307  56.859  49.595  0.00  0.00    +0.000 NA
ATOM     24  C   UNL     1     -13.992  57.197  47.228  0.00  0.00    +0.000 A 
ATOM     25  C   UNL     1     -14.746  57.264  48.384  0.00  0.00    +0.000 A 
BRANCH  17  26
ATOM     26  O   UNL     1     -10.171  55.561  47.500  0.00  0.00    +0.000 OA
ATOM     27  H   UNL     1     -10.319  56.196  46.828  0.00  0.00    +0.000 HD
ENDBRANCH  17  26
BRANCH  19  28
ATOM     28  C   UNL     1     -13.486  55.982  52.084  0.00  0.00    +0.000 C 
BRANCH  28  29
ATOM     29  C   UNL     1     -13.531  57.414  52.633  0.00  0.00    +0.000 C 
BRANCH  29  30
ATOM     30  C   UNL     1     -14.938  57.912  53.016  0.00  0.00    +0.000 C 
ATOM     31  C   UNL     1     -15.260  59.282  52.417  0.00  0.00    +0.000 C 
ATOM     32  C   UNL     1     -15.980  56.891  52.548  0.00  0.00    +0.000 C 
ENDBRANCH  29  30
ENDBRANCH  28  29
ENDBRANCH  19  28
ENDBRANCH   6  15
BRANCH  11  33
ATOM     33  O   UNL     1      -5.051  49.451  50.220  0.00  0.00    +0.000 OA
BRANCH  33  34
ATOM     34  C   UNL     1      -3.739  49.921  50.502  0.00  0.00    +0.000 C 
BRANCH  34  35
ATOM     35  C   UNL     1      -3.558  50.099  52.007  0.00  0.00    +0.000 C 
ATOM     36  O   UNL     1      -3.533  49.135  52.775  0.00  0.00    +0.000 OA
ATOM     37  N   UNL     1      -3.440  51.408  52.473  0.00  0.00    +0.000 N 
ATOM     38  C   UNL     1      -3.439  52.602  51.639  0.00  0.00    +0.000 C 
ATOM     39  C   UNL     1      -3.300  51.627  53.902  0.00  0.00    +0.000 C 
ENDBRANCH  34  35
ENDBRANCH  33  34
ENDBRANCH  11  33
TORSDOF 8
ENDMDL
MODEL 9
REMARK VINA RESULT:      -6.0      3.172      9.467
REMARK  Name = 353222
REMARK  12 active torsions:
REMARK  status: ('A' for Active; 'I' for Inactive)
REMARK    1  A    between atoms: C_6  and  C_10
REMARK    2  A    between atoms: C_12  and  O_16
REMARK    3  A    between atoms: C_14  and  O_19
REMARK    4  A    between atoms: O_16  and  C_21
REMARK    5  A    between atoms: N_18  and  C_23
REMARK    6  A    between atoms: C_21  and  C_25
REMARK    7  A    between atoms: C_23  and  C_27
REMARK    8  A    between atoms: C_27  and  C_32
REMARK    9  A    between atoms: N_30  and  C_33
REMARK   10  A    between atoms: N_30  and  C_34
REMARK   11  A    between atoms: C_32  and  C_35
REMARK   12  A    between atoms: C_32  and  C_36
REMARK                            x       y       z     vdW  Elec       q    Type
REMARK                         _______ _______ _______ _____ _____    ______ ____
ROOT
ATOM      1  S   UNL     1     -11.250  53.621  46.973  0.00  0.00    +0.000 S 
ATOM      2  O   UNL     1     -12.242  52.648  47.400  0.00  0.00    +0.000 OA
ATOM      3  O   UNL     1     -11.199  54.048  45.586  0.00  0.00    +0.000 OA
ATOM      4  N   UNL     1      -9.794  53.058  47.381  0.00  0.00    +0.000 N 
ATOM      5  C   UNL     1     -11.553  55.071  47.909  0.00  0.00    +0.000 A 
ATOM      6  C   UNL     1      -9.126  53.584  48.364  0.00  0.00    +0.000 C 
ATOM      7  C   UNL     1     -10.646  55.411  48.897  0.00  0.00    +0.000 A 
ATOM      8  C   UNL     1     -12.680  55.843  47.637  0.00  0.00    +0.000 A 
ATOM      9  N   UNL     1      -9.546  54.610  49.173  0.00  0.00    +0.000 N 
ATOM     10  C   UNL     1     -10.903  56.534  49.680  0.00  0.00    +0.000 A 
ATOM     11  C   UNL     1     -12.913  56.976  48.405  0.00  0.00    +0.000 A 
ATOM     12  C   UNL     1     -12.034  57.312  49.436  0.00  0.00    +0.000 A 
ATOM     13  H   UNL     1      -9.407  52.306  46.878  0.00  0.00    +0.000 HD
ATOM     14  H   UNL     1      -9.036  54.790  49.996  0.00  0.00    +0.000 HD
ENDROOT
BRANCH   6  15
ATOM     15  C   UNL     1      -7.750  53.024  48.609  0.00  0.00    +0.000 A 
ATOM     16  C   UNL     1      -6.924  53.573  49.729  0.00  0.00    +0.000 A 
ATOM     17  C   UNL     1      -7.281  52.024  47.845  0.00  0.00    +0.000 A 
ATOM     18  O   UNL     1      -7.424  54.417  50.475  0.00  0.00    +0.000 OA
ATOM     19  N   UNL     1      -5.639  53.096  49.884  0.00  0.00    +0.000 N 
ATOM     20  C   UNL     1      -5.912  51.549  48.032  0.00  0.00    +0.000 A 
ATOM     21  C   UNL     1      -5.101  52.104  49.027  0.00  0.00    +0.000 A 
ATOM     22  C   UNL     1      -5.355  50.583  47.186  0.00  0.00    +0.000 A 
ATOM     23  N   UNL     1      -3.809  51.740  49.196  0.00  0.00    +0.000 NA
ATOM     24  C   UNL     1      -4.025  50.222  47.335  0.00  0.00    +0.000 A 
ATOM     25  C   UNL     1      -3.300  50.822  48.347  0.00  0.00    +0.000 A 
BRANCH  17  26
ATOM     26  O   UNL     1      -7.989  51.400  46.832  0.00  0.00    +0.000 OA
ATOM     27  H   UNL     1      -8.906  51.237  46.933  0.00  0.00    +0.000 HD
ENDBRANCH  17  26
BRANCH  19  28
ATOM     28  C   UNL     1      -4.776  53.675  50.917  0.00  0.00    +0.000 C 
BRANCH  28  29
ATOM     29  C   UNL     1      -5.228  53.270  52.326  0.00  0.00    +0.000 C 
BRANCH  29  30
ATOM     30  C   UNL     1      -5.113  54.384  53.384  0.00  0.00    +0.000 C 
ATOM     31  C   UNL     1      -5.776  54.007  54.709  0.00  0.00    +0.000 C 
ATOM     32  C   UNL     1      -3.633  54.701  53.624  0.00  0.00    +0.000 C 
ENDBRANCH  29  30
ENDBRANCH  28  29
ENDBRANCH  19  28
ENDBRANCH   6  15
BRANCH  11  33
ATOM     33  O   UNL     1     -13.992  57.797  48.281  0.00  0.00    +0.000 OA
BRANCH  33  34
ATOM     34  C   UNL     1     -14.383  58.478  49.468  0.00  0.00    +0.000 C 
BRANCH  34  35
ATOM     35  C   UNL     1     -15.058  57.505  50.432  0.00  0.00    +0.000 C 
ATOM     36  O   UNL     1     -15.614  56.479  50.034  0.00  0.00    +0.000 OA
ATOM     37  N   UNL     1     -15.030  57.843  51.784  0.00  0.00    +0.000 N 
ATOM     38  C   UNL     1     -14.382  59.022  52.344  0.00  0.00    +0.000 C 
ATOM     39  C   UNL     1     -15.689  56.965  52.734  0.00  0.00    +0.000 C 
ENDBRANCH  34  35
ENDBRANCH  33  34
ENDBRANCH  11  33
TORSDOF 8
ENDMDL
