MODEL 1
REMARK VINA RESULT:      -7.9      0.000      0.000
REMARK  Name = 352944
REMARK  11 active torsions:
REMARK  status: ('A' for Active; 'I' for Inactive)
REMARK    1  A    between atoms: C_6  and  C_10
REMARK    2  A    between atoms: C_12  and  O_16
REMARK    3  A    between atoms: C_14  and  O_19
REMARK    4  A    between atoms: O_16  and  C_21
REMARK    5  A    between atoms: N_18  and  C_23
REMARK    6  A    between atoms: C_21  and  C_25
REMARK    7  A    between atoms: C_23  and  C_27
REMARK    8  A    between atoms: C_25  and  C_29
REMARK    9  A    between atoms: C_27  and  C_31
REMARK   10  A    between atoms: C_31  and  C_32
REMARK   11  A    between atoms: C_31  and  C_33
REMARK                            x       y       z     vdW  Elec       q    Type
REMARK                         _______ _______ _______ _____ _____    ______ ____
ROOT
ATOM      1  S   UNL     1     -13.333  58.666  49.394  0.00  0.00    +0.000 S 
ATOM      2  O   UNL     1     -14.303  58.705  48.333  0.00  0.00    +0.000 OA
ATOM      3  O   UNL     1     -12.412  59.756  49.634  0.00  0.00    +0.000 OA
ATOM      4  N   UNL     1     -12.432  57.297  49.226  0.00  0.00    +0.000 N 
ATOM      5  C   UNL     1     -14.175  58.326  50.880  0.00  0.00    +0.000 A 
ATOM      6  C   UNL     1     -12.908  56.058  49.630  0.00  0.00    +0.000 C 
ATOM      7  C   UNL     1     -14.287  57.000  51.276  0.00  0.00    +0.000 A 
ATOM      8  C   UNL     1     -14.699  59.368  51.632  0.00  0.00    +0.000 A 
ATOM      9  N   UNL     1     -13.810  55.911  50.548  0.00  0.00    +0.000 N 
ATOM     10  C   UNL     1     -14.934  56.721  52.480  0.00  0.00    +0.000 A 
ATOM     11  C   UNL     1     -15.380  59.070  52.808  0.00  0.00    +0.000 A 
ATOM     12  C   UNL     1     -15.476  57.746  53.244  0.00  0.00    +0.000 A 
ATOM     13  H   UNL     1     -11.533  57.359  48.830  0.00  0.00    +0.000 HD
ATOM     14  H   UNL     1     -14.167  55.013  50.736  0.00  0.00    +0.000 HD
ENDROOT
BRANCH   6  15
ATOM     15  C   UNL     1     -12.365  54.879  48.928  0.00  0.00    +0.000 A 
ATOM     16  C   UNL     1     -12.037  54.934  47.486  0.00  0.00    +0.000 A 
ATOM     17  C   UNL     1     -12.226  53.734  49.619  0.00  0.00    +0.000 A 
ATOM     18  O   UNL     1     -12.278  55.975  46.866  0.00  0.00    +0.000 OA
ATOM     19  N   UNL     1     -11.465  53.821  46.905  0.00  0.00    +0.000 N 
ATOM     20  C   UNL     1     -11.761  52.529  48.939  0.00  0.00    +0.000 A 
ATOM     21  C   UNL     1     -11.375  52.583  47.596  0.00  0.00    +0.000 A 
ATOM     22  C   UNL     1     -11.749  51.291  49.593  0.00  0.00    +0.000 A 
ATOM     23  N   UNL     1     -10.975  51.479  46.925  0.00  0.00    +0.000 NA
ATOM     24  C   UNL     1     -11.408  50.147  48.891  0.00  0.00    +0.000 A 
ATOM     25  C   UNL     1     -11.015  50.293  47.575  0.00  0.00    +0.000 A 
BRANCH  17  26
ATOM     26  O   UNL     1     -12.548  53.561  50.955  0.00  0.00    +0.000 OA
ATOM     27  H   UNL     1     -13.294  53.047  51.195  0.00  0.00    +0.000 HD
ENDBRANCH  17  26
BRANCH  19  28
ATOM     28  C   UNL     1     -11.119  53.886  45.487  0.00  0.00    +0.000 C 
BRANCH  28  29
ATOM     29  C   UNL     1      -9.610  54.046  45.226  0.00  0.00    +0.000 C 
BRANCH  29  30
ATOM     30  C   UNL     1      -9.050  53.129  44.127  0.00  0.00    +0.000 C 
ATOM     31  C   UNL     1      -8.231  51.985  44.720  0.00  0.00    +0.000 C 
ATOM     32  C   UNL     1     -10.205  52.569  43.293  0.00  0.00    +0.000 C 
ENDBRANCH  29  30
ENDBRANCH  28  29
ENDBRANCH  19  28
ENDBRANCH   6  15
BRANCH  11  33
ATOM     33  O   UNL     1     -15.964  60.003  53.619  0.00  0.00    +0.000 OA
BRANCH  33  34
ATOM     34  C   UNL     1     -16.084  59.599  54.983  0.00  0.00    +0.000 C 
BRANCH  34  35
ATOM     35  C   UNL     1     -16.808  60.699  55.742  0.00  0.00    +0.000 C 
ATOM     36  C   UNL     1     -17.568  61.599  54.785  0.00  0.00    +0.000 C 
ENDBRANCH  34  35
ENDBRANCH  33  34
ENDBRANCH  11  33
TORSDOF 8
ENDMDL
MODEL 2
REMARK VINA RESULT:      -7.7      1.672      3.540
REMARK  Name = 352944
REMARK  11 active torsions:
REMARK  status: ('A' for Active; 'I' for Inactive)
REMARK    1  A    between atoms: C_6  and  C_10
REMARK    2  A    between atoms: C_12  and  O_16
REMARK    3  A    between atoms: C_14  and  O_19
REMARK    4  A    between atoms: O_16  and  C_21
REMARK    5  A    between atoms: N_18  and  C_23
REMARK    6  A    between atoms: C_21  and  C_25
REMARK    7  A    between atoms: C_23  and  C_27
REMARK    8  A    between atoms: C_25  and  C_29
REMARK    9  A    between atoms: C_27  and  C_31
REMARK   10  A    between atoms: C_31  and  C_32
REMARK   11  A    between atoms: C_31  and  C_33
REMARK                            x       y       z     vdW  Elec       q    Type
REMARK                         _______ _______ _______ _____ _____    ______ ____
ROOT
ATOM      1  S   UNL     1     -13.448  59.102  49.420  0.00  0.00    +0.000 S 
ATOM      2  O   UNL     1     -14.438  58.920  48.394  0.00  0.00    +0.000 OA
ATOM      3  O   UNL     1     -12.753  60.357  49.605  0.00  0.00    +0.000 OA
ATOM      4  N   UNL     1     -12.300  57.932  49.250  0.00  0.00    +0.000 N 
ATOM      5  C   UNL     1     -14.161  58.645  50.942  0.00  0.00    +0.000 A 
ATOM      6  C   UNL     1     -12.511  56.635  49.698  0.00  0.00    +0.000 C 
ATOM      7  C   UNL     1     -13.998  57.334  51.370  0.00  0.00    +0.000 A 
ATOM      8  C   UNL     1     -14.857  59.584  51.689  0.00  0.00    +0.000 A 
ATOM      9  N   UNL     1     -13.338  56.340  50.650  0.00  0.00    +0.000 N 
ATOM     10  C   UNL     1     -14.541  56.968  52.602  0.00  0.00    +0.000 A 
ATOM     11  C   UNL     1     -15.431  59.192  52.895  0.00  0.00    +0.000 A 
ATOM     12  C   UNL     1     -15.251  57.887  53.363  0.00  0.00    +0.000 A 
ATOM     13  H   UNL     1     -11.444  58.158  48.822  0.00  0.00    +0.000 HD
ATOM     14  H   UNL     1     -13.505  55.395  50.869  0.00  0.00    +0.000 HD
ENDROOT
BRANCH   6  15
ATOM     15  C   UNL     1     -11.768  55.566  49.002  0.00  0.00    +0.000 A 
ATOM     16  C   UNL     1     -10.744  54.765  49.710  0.00  0.00    +0.000 A 
ATOM     17  C   UNL     1     -12.006  55.373  47.693  0.00  0.00    +0.000 A 
ATOM     18  O   UNL     1     -10.483  55.045  50.884  0.00  0.00    +0.000 OA
ATOM     19  N   UNL     1     -10.137  53.732  49.024  0.00  0.00    +0.000 N 
ATOM     20  C   UNL     1     -11.238  54.374  46.957  0.00  0.00    +0.000 A 
ATOM     21  C   UNL     1     -10.321  53.557  47.626  0.00  0.00    +0.000 A 
ATOM     22  C   UNL     1     -11.356  54.254  45.567  0.00  0.00    +0.000 A 
ATOM     23  N   UNL     1      -9.566  52.647  46.969  0.00  0.00    +0.000 NA
ATOM     24  C   UNL     1     -10.535  53.375  44.881  0.00  0.00    +0.000 A 
ATOM     25  C   UNL     1      -9.676  52.587  45.622  0.00  0.00    +0.000 A 
BRANCH  17  26
ATOM     26  O   UNL     1     -12.905  56.098  46.928  0.00  0.00    +0.000 OA
ATOM     27  H   UNL     1     -13.820  55.898  46.964  0.00  0.00    +0.000 HD
ENDBRANCH  17  26
BRANCH  19  28
ATOM     28  C   UNL     1      -9.144  52.927  49.731  0.00  0.00    +0.000 C 
BRANCH  28  29
ATOM     29  C   UNL     1      -9.756  51.792  50.573  0.00  0.00    +0.000 C 
BRANCH  29  30
ATOM     30  C   UNL     1      -9.273  51.744  52.031  0.00  0.00    +0.000 C 
ATOM     31  C   UNL     1      -8.015  52.586  52.229  0.00  0.00    +0.000 C 
ATOM     32  C   UNL     1     -10.388  52.243  52.954  0.00  0.00    +0.000 C 
ENDBRANCH  29  30
ENDBRANCH  28  29
ENDBRANCH  19  28
ENDBRANCH   6  15
BRANCH  11  33
ATOM     33  O   UNL     1     -16.162  60.015  53.706  0.00  0.00    +0.000 OA
BRANCH  33  34
ATOM     34  C   UNL     1     -16.027  59.733  55.099  0.00  0.00    +0.000 C 
BRANCH  34  35
ATOM     35  C   UNL     1     -16.921  60.693  55.866  0.00  0.00    +0.000 C 
ATOM     36  C   UNL     1     -17.593  61.671  54.920  0.00  0.00    +0.000 C 
ENDBRANCH  34  35
ENDBRANCH  33  34
ENDBRANCH  11  33
TORSDOF 8
ENDMDL
MODEL 3
REMARK VINA RESULT:      -7.5      4.722      6.040
REMARK  Name = 352944
REMARK  11 active torsions:
REMARK  status: ('A' for Active; 'I' for Inactive)
REMARK    1  A    between atoms: C_6  and  C_10
REMARK    2  A    between atoms: C_12  and  O_16
REMARK    3  A    between atoms: C_14  and  O_19
REMARK    4  A    between atoms: O_16  and  C_21
REMARK    5  A    between atoms: N_18  and  C_23
REMARK    6  A    between atoms: C_21  and  C_25
REMARK    7  A    between atoms: C_23  and  C_27
REMARK    8  A    between atoms: C_25  and  C_29
REMARK    9  A    between atoms: C_27  and  C_31
REMARK   10  A    between atoms: C_31  and  C_32
REMARK   11  A    between atoms: C_31  and  C_33
REMARK                            x       y       z     vdW  Elec       q    Type
REMARK                         _______ _______ _______ _____ _____    ______ ____
ROOT
ATOM      1  S   UNL     1     -11.746  54.950  48.089  0.00  0.00    +0.000 S 
ATOM      2  O   UNL     1     -12.287  53.637  47.865  0.00  0.00    +0.000 OA
ATOM      3  O   UNL     1     -11.900  56.020  47.127  0.00  0.00    +0.000 OA
ATOM      4  N   UNL     1     -10.135  54.804  48.400  0.00  0.00    +0.000 N 
ATOM      5  C   UNL     1     -12.329  55.516  49.630  0.00  0.00    +0.000 A 
ATOM      6  C   UNL     1      -9.666  54.410  49.645  0.00  0.00    +0.000 C 
ATOM      7  C   UNL     1     -11.543  55.277  50.750  0.00  0.00    +0.000 A 
ATOM      8  C   UNL     1     -13.539  56.190  49.707  0.00  0.00    +0.000 A 
ATOM      9  N   UNL     1     -10.337  54.579  50.740  0.00  0.00    +0.000 N 
ATOM     10  C   UNL     1     -11.988  55.753  51.984  0.00  0.00    +0.000 A 
ATOM     11  C   UNL     1     -13.990  56.620  50.951  0.00  0.00    +0.000 A 
ATOM     12  C   UNL     1     -13.201  56.422  52.087  0.00  0.00    +0.000 A 
ATOM     13  H   UNL     1      -9.488  55.002  47.684  0.00  0.00    +0.000 HD
ATOM     14  H   UNL     1      -9.989  54.207  51.582  0.00  0.00    +0.000 HD
ENDROOT
BRANCH   6  15
ATOM     15  C   UNL     1      -8.355  53.734  49.675  0.00  0.00    +0.000 A 
ATOM     16  C   UNL     1      -7.216  54.311  50.425  0.00  0.00    +0.000 A 
ATOM     17  C   UNL     1      -8.203  52.606  48.959  0.00  0.00    +0.000 A 
ATOM     18  O   UNL     1      -7.370  55.402  50.983  0.00  0.00    +0.000 OA
ATOM     19  N   UNL     1      -6.039  53.593  50.474  0.00  0.00    +0.000 N 
ATOM     20  C   UNL     1      -6.900  51.950  48.907  0.00  0.00    +0.000 A 
ATOM     21  C   UNL     1      -5.835  52.439  49.670  0.00  0.00    +0.000 A 
ATOM     22  C   UNL     1      -6.673  50.863  48.054  0.00  0.00    +0.000 A 
ATOM     23  N   UNL     1      -4.605  51.879  49.618  0.00  0.00    +0.000 NA
ATOM     24  C   UNL     1      -5.400  50.332  47.943  0.00  0.00    +0.000 A 
ATOM     25  C   UNL     1      -4.411  50.858  48.752  0.00  0.00    +0.000 A 
BRANCH  17  26
ATOM     26  O   UNL     1      -9.187  52.011  48.186  0.00  0.00    +0.000 OA
ATOM     27  H   UNL     1      -9.332  51.086  48.242  0.00  0.00    +0.000 HD
ENDBRANCH  17  26
BRANCH  19  28
ATOM     28  C   UNL     1      -4.924  54.152  51.235  0.00  0.00    +0.000 C 
BRANCH  28  29
ATOM     29  C   UNL     1      -4.901  53.712  52.711  0.00  0.00    +0.000 C 
BRANCH  29  30
ATOM     30  C   UNL     1      -5.172  54.840  53.719  0.00  0.00    +0.000 C 
ATOM     31  C   UNL     1      -6.109  54.378  54.833  0.00  0.00    +0.000 C 
ATOM     32  C   UNL     1      -3.846  55.320  54.315  0.00  0.00    +0.000 C 
ENDBRANCH  29  30
ENDBRANCH  28  29
ENDBRANCH  19  28
ENDBRANCH   6  15
BRANCH  11  33
ATOM     33  O   UNL     1     -15.176  57.268  51.161  0.00  0.00    +0.000 OA
BRANCH  33  34
ATOM     34  C   UNL     1     -15.037  58.573  51.723  0.00  0.00    +0.000 C 
BRANCH  34  35
ATOM     35  C   UNL     1     -15.185  59.591  50.603  0.00  0.00    +0.000 C 
ATOM     36  C   UNL     1     -13.823  60.041  50.107  0.00  0.00    +0.000 C 
ENDBRANCH  34  35
ENDBRANCH  33  34
ENDBRANCH  11  33
TORSDOF 8
ENDMDL
MODEL 4
REMARK VINA RESULT:      -7.4      2.686      4.766
REMARK  Name = 352944
REMARK  11 active torsions:
REMARK  status: ('A' for Active; 'I' for Inactive)
REMARK    1  A    between atoms: C_6  and  C_10
REMARK    2  A    between atoms: C_12  and  O_16
REMARK    3  A    between atoms: C_14  and  O_19
REMARK    4  A    between atoms: O_16  and  C_21
REMARK    5  A    between atoms: N_18  and  C_23
REMARK    6  A    between atoms: C_21  and  C_25
REMARK    7  A    between atoms: C_23  and  C_27
REMARK    8  A    between atoms: C_25  and  C_29
REMARK    9  A    between atoms: C_27  and  C_31
REMARK   10  A    between atoms: C_31  and  C_32
REMARK   11  A    between atoms: C_31  and  C_33
REMARK                            x       y       z     vdW  Elec       q    Type
REMARK                         _______ _______ _______ _____ _____    ______ ____
ROOT
ATOM      1  S   UNL     1     -11.318  54.971  50.385  0.00  0.00    +0.000 S 
ATOM      2  O   UNL     1     -10.083  55.651  50.668  0.00  0.00    +0.000 OA
ATOM      3  O   UNL     1     -12.084  54.307  51.417  0.00  0.00    +0.000 OA
ATOM      4  N   UNL     1     -11.043  53.864  49.196  0.00  0.00    +0.000 N 
ATOM      5  C   UNL     1     -12.369  56.088  49.560  0.00  0.00    +0.000 A 
ATOM      6  C   UNL     1     -10.955  54.236  47.862  0.00  0.00    +0.000 C 
ATOM      7  C   UNL     1     -12.349  56.095  48.171  0.00  0.00    +0.000 A 
ATOM      8  C   UNL     1     -13.199  56.926  50.291  0.00  0.00    +0.000 A 
ATOM      9  N   UNL     1     -11.516  55.302  47.385  0.00  0.00    +0.000 N 
ATOM     10  C   UNL     1     -13.209  56.966  47.502  0.00  0.00    +0.000 A 
ATOM     11  C   UNL     1     -14.019  57.820  49.609  0.00  0.00    +0.000 A 
ATOM     12  C   UNL     1     -14.041  57.822  48.212  0.00  0.00    +0.000 A 
ATOM     13  H   UNL     1     -10.940  52.916  49.437  0.00  0.00    +0.000 HD
ATOM     14  H   UNL     1     -11.351  55.556  46.448  0.00  0.00    +0.000 HD
ENDROOT
BRANCH   6  15
ATOM     15  C   UNL     1     -10.139  53.372  46.987  0.00  0.00    +0.000 A 
ATOM     16  C   UNL     1      -8.742  53.031  47.339  0.00  0.00    +0.000 A 
ATOM     17  C   UNL     1     -10.678  52.944  45.832  0.00  0.00    +0.000 A 
ATOM     18  O   UNL     1      -8.252  53.530  48.357  0.00  0.00    +0.000 OA
ATOM     19  N   UNL     1      -8.058  52.160  46.517  0.00  0.00    +0.000 N 
ATOM     20  C   UNL     1      -9.876  52.148  44.908  0.00  0.00    +0.000 A 
ATOM     21  C   UNL     1      -8.582  51.754  45.260  0.00  0.00    +0.000 A 
ATOM     22  C   UNL     1     -10.358  51.816  43.636  0.00  0.00    +0.000 A 
ATOM     23  N   UNL     1      -7.797  51.048  44.414  0.00  0.00    +0.000 NA
ATOM     24  C   UNL     1      -9.534  51.156  42.740  0.00  0.00    +0.000 A 
ATOM     25  C   UNL     1      -8.279  50.781  43.178  0.00  0.00    +0.000 A 
BRANCH  17  26
ATOM     26  O   UNL     1     -11.955  53.245  45.385  0.00  0.00    +0.000 OA
ATOM     27  H   UNL     1     -12.442  52.611  44.896  0.00  0.00    +0.000 HD
ENDBRANCH  17  26
BRANCH  19  28
ATOM     28  C   UNL     1      -6.687  51.805  46.879  0.00  0.00    +0.000 C 
BRANCH  28  29
ATOM     29  C   UNL     1      -6.583  50.510  47.706  0.00  0.00    +0.000 C 
BRANCH  29  30
ATOM     30  C   UNL     1      -5.979  50.693  49.108  0.00  0.00    +0.000 C 
ATOM     31  C   UNL     1      -5.162  51.979  49.199  0.00  0.00    +0.000 C 
ATOM     32  C   UNL     1      -7.103  50.712  50.147  0.00  0.00    +0.000 C 
ENDBRANCH  29  30
ENDBRANCH  28  29
ENDBRANCH  19  28
ENDBRANCH   6  15
BRANCH  11  33
ATOM     33  O   UNL     1     -14.858  58.714  50.215  0.00  0.00    +0.000 OA
BRANCH  33  34
ATOM     34  C   UNL     1     -14.295  59.361  51.356  0.00  0.00    +0.000 C 
BRANCH  34  35
ATOM     35  C   UNL     1     -15.272  59.222  52.511  0.00  0.00    +0.000 C 
ATOM     36  C   UNL     1     -15.071  57.897  53.225  0.00  0.00    +0.000 C 
ENDBRANCH  34  35
ENDBRANCH  33  34
ENDBRANCH  11  33
TORSDOF 8
ENDMDL
MODEL 5
REMARK VINA RESULT:      -7.2      4.835      9.700
REMARK  Name = 352944
REMARK  11 active torsions:
REMARK  status: ('A' for Active; 'I' for Inactive)
REMARK    1  A    between atoms: C_6  and  C_10
REMARK    2  A    between atoms: C_12  and  O_16
REMARK    3  A    between atoms: C_14  and  O_19
REMARK    4  A    between atoms: O_16  and  C_21
REMARK    5  A    between atoms: N_18  and  C_23
REMARK    6  A    between atoms: C_21  and  C_25
REMARK    7  A    between atoms: C_23  and  C_27
REMARK    8  A    between atoms: C_25  and  C_29
REMARK    9  A    between atoms: C_27  and  C_31
REMARK   10  A    between atoms: C_31  and  C_32
REMARK   11  A    between atoms: C_31  and  C_33
REMARK                            x       y       z     vdW  Elec       q    Type
REMARK                         _______ _______ _______ _____ _____    ______ ____
ROOT
ATOM      1  S   UNL     1      -7.136  54.253  52.701  0.00  0.00    +0.000 S 
ATOM      2  O   UNL     1      -7.873  53.362  53.554  0.00  0.00    +0.000 OA
ATOM      3  O   UNL     1      -6.139  55.165  53.219  0.00  0.00    +0.000 OA
ATOM      4  N   UNL     1      -8.209  55.150  51.830  0.00  0.00    +0.000 N 
ATOM      5  C   UNL     1      -6.401  53.303  51.440  0.00  0.00    +0.000 A 
ATOM      6  C   UNL     1      -8.854  54.633  50.716  0.00  0.00    +0.000 C 
ATOM      7  C   UNL     1      -7.100  53.150  50.249  0.00  0.00    +0.000 A 
ATOM      8  C   UNL     1      -5.150  52.737  51.639  0.00  0.00    +0.000 A 
ATOM      9  N   UNL     1      -8.370  53.666  50.003  0.00  0.00    +0.000 N 
ATOM     10  C   UNL     1      -6.506  52.415  49.223  0.00  0.00    +0.000 A 
ATOM     11  C   UNL     1      -4.590  51.970  50.621  0.00  0.00    +0.000 A 
ATOM     12  C   UNL     1      -5.259  51.830  49.403  0.00  0.00    +0.000 A 
ATOM     13  H   UNL     1      -8.397  56.075  52.108  0.00  0.00    +0.000 HD
ATOM     14  H   UNL     1      -8.911  53.288  49.272  0.00  0.00    +0.000 HD
ENDROOT
BRANCH   6  15
ATOM     15  C   UNL     1     -10.170  55.213  50.385  0.00  0.00    +0.000 A 
ATOM     16  C   UNL     1     -11.246  55.292  51.399  0.00  0.00    +0.000 A 
ATOM     17  C   UNL     1     -10.388  55.620  49.122  0.00  0.00    +0.000 A 
ATOM     18  O   UNL     1     -11.038  54.811  52.517  0.00  0.00    +0.000 OA
ATOM     19  N   UNL     1     -12.428  55.911  51.047  0.00  0.00    +0.000 N 
ATOM     20  C   UNL     1     -11.701  56.131  48.741  0.00  0.00    +0.000 A 
ATOM     21  C   UNL     1     -12.704  56.283  49.704  0.00  0.00    +0.000 A 
ATOM     22  C   UNL     1     -12.003  56.421  47.405  0.00  0.00    +0.000 A 
ATOM     23  N   UNL     1     -13.943  56.718  49.380  0.00  0.00    +0.000 NA
ATOM     24  C   UNL     1     -13.289  56.798  47.057  0.00  0.00    +0.000 A 
ATOM     25  C   UNL     1     -14.211  56.948  48.074  0.00  0.00    +0.000 A 
BRANCH  17  26
ATOM     26  O   UNL     1      -9.469  55.546  48.088  0.00  0.00    +0.000 OA
ATOM     27  H   UNL     1      -9.765  55.468  47.202  0.00  0.00    +0.000 HD
ENDBRANCH  17  26
BRANCH  19  28
ATOM     28  C   UNL     1     -13.479  56.009  52.057  0.00  0.00    +0.000 C 
BRANCH  28  29
ATOM     29  C   UNL     1     -13.517  57.369  52.779  0.00  0.00    +0.000 C 
BRANCH  29  30
ATOM     30  C   UNL     1     -14.906  58.026  52.833  0.00  0.00    +0.000 C 
ATOM     31  C   UNL     1     -14.992  59.226  51.893  0.00  0.00    +0.000 C 
ATOM     32  C   UNL     1     -15.973  56.993  52.461  0.00  0.00    +0.000 C 
ENDBRANCH  29  30
ENDBRANCH  28  29
ENDBRANCH  19  28
ENDBRANCH   6  15
BRANCH  11  33
ATOM     33  O   UNL     1      -3.380  51.339  50.708  0.00  0.00    +0.000 OA
BRANCH  33  34
ATOM     34  C   UNL     1      -3.398  49.980  50.271  0.00  0.00    +0.000 C 
BRANCH  34  35
ATOM     35  C   UNL     1      -3.854  49.113  51.433  0.00  0.00    +0.000 C 
ATOM     36  C   UNL     1      -3.302  49.643  52.744  0.00  0.00    +0.000 C 
ENDBRANCH  34  35
ENDBRANCH  33  34
ENDBRANCH  11  33
TORSDOF 8
ENDMDL
MODEL 6
REMARK VINA RESULT:      -7.1      4.796      8.298
REMARK  Name = 352944
REMARK  11 active torsions:
REMARK  status: ('A' for Active; 'I' for Inactive)
REMARK    1  A    between atoms: C_6  and  C_10
REMARK    2  A    between atoms: C_12  and  O_16
REMARK    3  A    between atoms: C_14  and  O_19
REMARK    4  A    between atoms: O_16  and  C_21
REMARK    5  A    between atoms: N_18  and  C_23
REMARK    6  A    between atoms: C_21  and  C_25
REMARK    7  A    between atoms: C_23  and  C_27
REMARK    8  A    between atoms: C_25  and  C_29
REMARK    9  A    between atoms: C_27  and  C_31
REMARK   10  A    between atoms: C_31  and  C_32
REMARK   11  A    between atoms: C_31  and  C_33
REMARK                            x       y       z     vdW  Elec       q    Type
REMARK                         _______ _______ _______ _____ _____    ______ ____
ROOT
ATOM      1  S   UNL     1      -9.567  52.182  52.717  0.00  0.00    +0.000 S 
ATOM      2  O   UNL     1      -9.806  50.994  51.944  0.00  0.00    +0.000 OA
ATOM      3  O   UNL     1      -9.921  52.271  54.118  0.00  0.00    +0.000 OA
ATOM      4  N   UNL     1     -10.282  53.455  51.954  0.00  0.00    +0.000 N 
ATOM      5  C   UNL     1      -7.885  52.601  52.553  0.00  0.00    +0.000 A 
ATOM      6  C   UNL     1      -9.697  54.066  50.854  0.00  0.00    +0.000 C 
ATOM      7  C   UNL     1      -7.532  53.492  51.547  0.00  0.00    +0.000 A 
ATOM      8  C   UNL     1      -6.948  52.057  53.419  0.00  0.00    +0.000 A 
ATOM      9  N   UNL     1      -8.422  54.045  50.628  0.00  0.00    +0.000 N 
ATOM     10  C   UNL     1      -6.191  53.856  51.426  0.00  0.00    +0.000 A 
ATOM     11  C   UNL     1      -5.608  52.397  53.258  0.00  0.00    +0.000 A 
ATOM     12  C   UNL     1      -5.233  53.316  52.276  0.00  0.00    +0.000 A 
ATOM     13  H   UNL     1     -11.146  53.790  52.286  0.00  0.00    +0.000 HD
ATOM     14  H   UNL     1      -8.074  54.427  49.790  0.00  0.00    +0.000 HD
ENDROOT
BRANCH   6  15
ATOM     15  C   UNL     1     -10.609  54.726  49.900  0.00  0.00    +0.000 A 
ATOM     16  C   UNL     1     -10.440  54.554  48.440  0.00  0.00    +0.000 A 
ATOM     17  C   UNL     1     -11.567  55.532  50.388  0.00  0.00    +0.000 A 
ATOM     18  O   UNL     1      -9.483  53.889  48.031  0.00  0.00    +0.000 OA
ATOM     19  N   UNL     1     -11.369  55.138  47.603  0.00  0.00    +0.000 N 
ATOM     20  C   UNL     1     -12.441  56.258  49.472  0.00  0.00    +0.000 A 
ATOM     21  C   UNL     1     -12.344  56.049  48.093  0.00  0.00    +0.000 A 
ATOM     22  C   UNL     1     -13.346  57.217  49.944  0.00  0.00    +0.000 A 
ATOM     23  N   UNL     1     -13.111  56.731  47.213  0.00  0.00    +0.000 NA
ATOM     24  C   UNL     1     -14.082  57.969  49.045  0.00  0.00    +0.000 A 
ATOM     25  C   UNL     1     -13.944  57.679  47.701  0.00  0.00    +0.000 A 
BRANCH  17  26
ATOM     26  O   UNL     1     -11.780  55.800  51.732  0.00  0.00    +0.000 OA
ATOM     27  H   UNL     1     -11.823  56.687  52.032  0.00  0.00    +0.000 HD
ENDBRANCH  17  26
BRANCH  19  28
ATOM     28  C   UNL     1     -11.214  54.947  46.163  0.00  0.00    +0.000 C 
BRANCH  28  29
ATOM     29  C   UNL     1     -11.886  53.666  45.634  0.00  0.00    +0.000 C 
BRANCH  29  30
ATOM     30  C   UNL     1     -11.128  52.970  44.493  0.00  0.00    +0.000 C 
ATOM     31  C   UNL     1      -9.626  53.231  44.582  0.00  0.00    +0.000 C 
ATOM     32  C   UNL     1     -11.402  51.465  44.543  0.00  0.00    +0.000 C 
ENDBRANCH  29  30
ENDBRANCH  28  29
ENDBRANCH  19  28
ENDBRANCH   6  15
BRANCH  11  33
ATOM     33  O   UNL     1      -4.590  51.906  54.028  0.00  0.00    +0.000 OA
BRANCH  33  34
ATOM     34  C   UNL     1      -3.399  51.609  53.300  0.00  0.00    +0.000 C 
BRANCH  34  35
ATOM     35  C   UNL     1      -3.328  50.103  53.101  0.00  0.00    +0.000 C 
ATOM     36  C   UNL     1      -3.530  49.748  51.639  0.00  0.00    +0.000 C 
ENDBRANCH  34  35
ENDBRANCH  33  34
ENDBRANCH  11  33
TORSDOF 8
ENDMDL
MODEL 7
REMARK VINA RESULT:      -7.0      2.612      2.890
REMARK  Name = 352944
REMARK  11 active torsions:
REMARK  status: ('A' for Active; 'I' for Inactive)
REMARK    1  A    between atoms: C_6  and  C_10
REMARK    2  A    between atoms: C_12  and  O_16
REMARK    3  A    between atoms: C_14  and  O_19
REMARK    4  A    between atoms: O_16  and  C_21
REMARK    5  A    between atoms: N_18  and  C_23
REMARK    6  A    between atoms: C_21  and  C_25
REMARK    7  A    between atoms: C_23  and  C_27
REMARK    8  A    between atoms: C_25  and  C_29
REMARK    9  A    between atoms: C_27  and  C_31
REMARK   10  A    between atoms: C_31  and  C_32
REMARK   11  A    between atoms: C_31  and  C_33
REMARK                            x       y       z     vdW  Elec       q    Type
REMARK                         _______ _______ _______ _____ _____    ______ ____
ROOT
ATOM      1  S   UNL     1     -13.402  58.869  49.401  0.00  0.00    +0.000 S 
ATOM      2  O   UNL     1     -14.359  58.412  48.430  0.00  0.00    +0.000 OA
ATOM      3  O   UNL     1     -12.906  60.228  49.411  0.00  0.00    +0.000 OA
ATOM      4  N   UNL     1     -12.091  57.873  49.351  0.00  0.00    +0.000 N 
ATOM      5  C   UNL     1     -14.030  58.507  50.984  0.00  0.00    +0.000 A 
ATOM      6  C   UNL     1     -12.100  56.626  49.961  0.00  0.00    +0.000 C 
ATOM      7  C   UNL     1     -13.667  57.300  51.568  0.00  0.00    +0.000 A 
ATOM      8  C   UNL     1     -14.857  59.418  51.625  0.00  0.00    +0.000 A 
ATOM      9  N   UNL     1     -12.868  56.334  50.962  0.00  0.00    +0.000 N 
ATOM     10  C   UNL     1     -14.142  57.015  52.849  0.00  0.00    +0.000 A 
ATOM     11  C   UNL     1     -15.358  59.100  52.884  0.00  0.00    +0.000 A 
ATOM     12  C   UNL     1     -14.980  57.907  53.506  0.00  0.00    +0.000 A 
ATOM     13  H   UNL     1     -11.281  58.169  48.876  0.00  0.00    +0.000 HD
ATOM     14  H   UNL     1     -12.888  55.410  51.301  0.00  0.00    +0.000 HD
ENDROOT
BRANCH   6  15
ATOM     15  C   UNL     1     -11.206  55.602  49.386  0.00  0.00    +0.000 A 
ATOM     16  C   UNL     1      -9.771  55.883  49.158  0.00  0.00    +0.000 A 
ATOM     17  C   UNL     1     -11.739  54.422  49.024  0.00  0.00    +0.000 A 
ATOM     18  O   UNL     1      -9.344  57.015  49.408  0.00  0.00    +0.000 OA
ATOM     19  N   UNL     1      -8.974  54.860  48.686  0.00  0.00    +0.000 N 
ATOM     20  C   UNL     1     -10.900  53.413  48.386  0.00  0.00    +0.000 A 
ATOM     21  C   UNL     1      -9.528  53.633  48.232  0.00  0.00    +0.000 A 
ATOM     22  C   UNL     1     -11.456  52.238  47.864  0.00  0.00    +0.000 A 
ATOM     23  N   UNL     1      -8.727  52.736  47.613  0.00  0.00    +0.000 NA
ATOM     24  C   UNL     1     -10.654  51.350  47.166  0.00  0.00    +0.000 A 
ATOM     25  C   UNL     1      -9.304  51.632  47.084  0.00  0.00    +0.000 A 
BRANCH  17  26
ATOM     26  O   UNL     1     -13.075  54.076  49.149  0.00  0.00    +0.000 OA
ATOM     27  H   UNL     1     -13.681  54.677  49.536  0.00  0.00    +0.000 HD
ENDBRANCH  17  26
BRANCH  19  28
ATOM     28  C   UNL     1      -7.553  55.132  48.485  0.00  0.00    +0.000 C 
BRANCH  28  29
ATOM     29  C   UNL     1      -6.683  54.818  49.717  0.00  0.00    +0.000 C 
BRANCH  29  30
ATOM     30  C   UNL     1      -5.201  54.556  49.403  0.00  0.00    +0.000 C 
ATOM     31  C   UNL     1      -4.497  53.873  50.573  0.00  0.00    +0.000 C 
ATOM     32  C   UNL     1      -5.092  53.688  48.147  0.00  0.00    +0.000 C 
ENDBRANCH  29  30
ENDBRANCH  28  29
ENDBRANCH  19  28
ENDBRANCH   6  15
BRANCH  11  33
ATOM     33  O   UNL     1     -16.203  59.899  53.603  0.00  0.00    +0.000 OA
BRANCH  33  34
ATOM     34  C   UNL     1     -16.184  59.654  55.010  0.00  0.00    +0.000 C 
BRANCH  34  35
ATOM     35  C   UNL     1     -16.908  60.797  55.702  0.00  0.00    +0.000 C 
ATOM     36  C   UNL     1     -17.641  61.657  54.688  0.00  0.00    +0.000 C 
ENDBRANCH  34  35
ENDBRANCH  33  34
ENDBRANCH  11  33
TORSDOF 8
ENDMDL
MODEL 8
REMARK VINA RESULT:      -6.8      2.760      3.643
REMARK  Name = 352944
REMARK  11 active torsions:
REMARK  status: ('A' for Active; 'I' for Inactive)
REMARK    1  A    between atoms: C_6  and  C_10
REMARK    2  A    between atoms: C_12  and  O_16
REMARK    3  A    between atoms: C_14  and  O_19
REMARK    4  A    between atoms: O_16  and  C_21
REMARK    5  A    between atoms: N_18  and  C_23
REMARK    6  A    between atoms: C_21  and  C_25
REMARK    7  A    between atoms: C_23  and  C_27
REMARK    8  A    between atoms: C_25  and  C_29
REMARK    9  A    between atoms: C_27  and  C_31
REMARK   10  A    between atoms: C_31  and  C_32
REMARK   11  A    between atoms: C_31  and  C_33
REMARK                            x       y       z     vdW  Elec       q    Type
REMARK                         _______ _______ _______ _____ _____    ______ ____
ROOT
ATOM      1  S   UNL     1     -13.956  57.857  48.850  0.00  0.00    +0.000 S 
ATOM      2  O   UNL     1     -14.797  56.858  48.249  0.00  0.00    +0.000 OA
ATOM      3  O   UNL     1     -14.110  59.267  48.562  0.00  0.00    +0.000 OA
ATOM      4  N   UNL     1     -12.385  57.468  48.547  0.00  0.00    +0.000 N 
ATOM      5  C   UNL     1     -14.022  57.646  50.578  0.00  0.00    +0.000 A 
ATOM      6  C   UNL     1     -11.724  56.489  49.275  0.00  0.00    +0.000 C 
ATOM      7  C   UNL     1     -13.057  56.840  51.171  0.00  0.00    +0.000 A 
ATOM      8  C   UNL     1     -15.009  58.281  51.316  0.00  0.00    +0.000 A 
ATOM      9  N   UNL     1     -12.063  56.153  50.480  0.00  0.00    +0.000 N 
ATOM     10  C   UNL     1     -13.085  56.689  52.558  0.00  0.00    +0.000 A 
ATOM     11  C   UNL     1     -15.049  58.084  52.694  0.00  0.00    +0.000 A 
ATOM     12  C   UNL     1     -14.070  57.306  53.317  0.00  0.00    +0.000 A 
ATOM     13  H   UNL     1     -11.902  57.941  47.832  0.00  0.00    +0.000 HD
ATOM     14  H   UNL     1     -11.608  55.396  50.915  0.00  0.00    +0.000 HD
ENDROOT
BRANCH   6  15
ATOM     15  C   UNL     1     -10.615  55.793  48.595  0.00  0.00    +0.000 A 
ATOM     16  C   UNL     1      -9.235  55.855  49.127  0.00  0.00    +0.000 A 
ATOM     17  C   UNL     1     -10.878  55.144  47.447  0.00  0.00    +0.000 A 
ATOM     18  O   UNL     1      -9.018  56.548  50.126  0.00  0.00    +0.000 OA
ATOM     19  N   UNL     1      -8.256  55.123  48.485  0.00  0.00    +0.000 N 
ATOM     20  C   UNL     1      -9.792  54.506  46.709  0.00  0.00    +0.000 A 
ATOM     21  C   UNL     1      -8.498  54.490  47.236  0.00  0.00    +0.000 A 
ATOM     22  C   UNL     1     -10.009  53.954  45.440  0.00  0.00    +0.000 A 
ATOM     23  N   UNL     1      -7.461  53.941  46.562  0.00  0.00    +0.000 NA
ATOM     24  C   UNL     1      -8.940  53.455  44.717  0.00  0.00    +0.000 A 
ATOM     25  C   UNL     1      -7.698  53.455  45.323  0.00  0.00    +0.000 A 
BRANCH  17  26
ATOM     26  O   UNL     1     -12.121  55.066  46.839  0.00  0.00    +0.000 OA
ATOM     27  H   UNL     1     -12.199  54.712  45.975  0.00  0.00    +0.000 HD
ENDBRANCH  17  26
BRANCH  19  28
ATOM     28  C   UNL     1      -6.900  55.166  49.026  0.00  0.00    +0.000 C 
BRANCH  28  29
ATOM     29  C   UNL     1      -6.597  54.033  50.024  0.00  0.00    +0.000 C 
BRANCH  29  30
ATOM     30  C   UNL     1      -5.339  53.212  49.698  0.00  0.00    +0.000 C 
ATOM     31  C   UNL     1      -5.700  51.829  49.161  0.00  0.00    +0.000 C 
ATOM     32  C   UNL     1      -4.490  53.967  48.671  0.00  0.00    +0.000 C 
ENDBRANCH  29  30
ENDBRANCH  28  29
ENDBRANCH  19  28
ENDBRANCH   6  15
BRANCH  11  33
ATOM     33  O   UNL     1     -15.987  58.631  53.524  0.00  0.00    +0.000 OA
BRANCH  33  34
ATOM     34  C   UNL     1     -15.729  59.987  53.885  0.00  0.00    +0.000 C 
BRANCH  34  35
ATOM     35  C   UNL     1     -16.475  60.286  55.175  0.00  0.00    +0.000 C 
ATOM     36  C   UNL     1     -17.456  61.427  54.973  0.00  0.00    +0.000 C 
ENDBRANCH  34  35
ENDBRANCH  33  34
ENDBRANCH  11  33
TORSDOF 8
ENDMDL
MODEL 9
REMARK VINA RESULT:      -6.5      3.326      5.064
REMARK  Name = 352944
REMARK  11 active torsions:
REMARK  status: ('A' for Active; 'I' for Inactive)
REMARK    1  A    between atoms: C_6  and  C_10
REMARK    2  A    between atoms: C_12  and  O_16
REMARK    3  A    between atoms: C_14  and  O_19
REMARK    4  A    between atoms: O_16  and  C_21
REMARK    5  A    between atoms: N_18  and  C_23
REMARK    6  A    between atoms: C_21  and  C_25
REMARK    7  A    between atoms: C_23  and  C_27
REMARK    8  A    between atoms: C_25  and  C_29
REMARK    9  A    between atoms: C_27  and  C_31
REMARK   10  A    between atoms: C_31  and  C_32
REMARK   11  A    between atoms: C_31  and  C_33
REMARK                            x       y       z     vdW  Elec       q    Type
REMARK                         _______ _______ _______ _____ _____    ______ ____
ROOT
ATOM      1  S   UNL     1     -10.674  54.818  51.211  0.00  0.00    +0.000 S 
ATOM      2  O   UNL     1      -9.639  55.734  51.605  0.00  0.00    +0.000 OA
ATOM      3  O   UNL     1     -11.539  54.175  52.176  0.00  0.00    +0.000 OA
ATOM      4  N   UNL     1      -9.997  53.627  50.296  0.00  0.00    +0.000 N 
ATOM      5  C   UNL     1     -11.675  55.614  50.029  0.00  0.00    +0.000 A 
ATOM      6  C   UNL     1      -9.681  53.827  48.960  0.00  0.00    +0.000 C 
ATOM      7  C   UNL     1     -11.360  55.439  48.687  0.00  0.00    +0.000 A 
ATOM      8  C   UNL     1     -12.752  56.385  50.440  0.00  0.00    +0.000 A 
ATOM      9  N   UNL     1     -10.274  54.705  48.215  0.00  0.00    +0.000 N 
ATOM     10  C   UNL     1     -12.174  56.050  47.732  0.00  0.00    +0.000 A 
ATOM     11  C   UNL     1     -13.528  57.023  49.476  0.00  0.00    +0.000 A 
ATOM     12  C   UNL     1     -13.252  56.834  48.120  0.00  0.00    +0.000 A 
ATOM     13  H   UNL     1      -9.813  52.752  50.707  0.00  0.00    +0.000 HD
ATOM     14  H   UNL     1      -9.952  54.857  47.297  0.00  0.00    +0.000 HD
ENDROOT
BRANCH   6  15
ATOM     15  C   UNL     1      -8.582  53.009  48.410  0.00  0.00    +0.000 A 
ATOM     16  C   UNL     1      -8.750  52.258  47.145  0.00  0.00    +0.000 A 
ATOM     17  C   UNL     1      -7.441  52.919  49.114  0.00  0.00    +0.000 A 
ATOM     18  O   UNL     1      -9.850  52.285  46.585  0.00  0.00    +0.000 OA
ATOM     19  N   UNL     1      -7.661  51.571  46.647  0.00  0.00    +0.000 N 
ATOM     20  C   UNL     1      -6.360  52.061  48.638  0.00  0.00    +0.000 A 
ATOM     21  C   UNL     1      -6.473  51.405  47.409  0.00  0.00    +0.000 A 
ATOM     22  C   UNL     1      -5.224  51.830  49.422  0.00  0.00    +0.000 A 
ATOM     23  N   UNL     1      -5.508  50.573  46.953  0.00  0.00    +0.000 NA
ATOM     24  C   UNL     1      -4.266  50.925  48.994  0.00  0.00    +0.000 A 
ATOM     25  C   UNL     1      -4.443  50.341  47.755  0.00  0.00    +0.000 A 
BRANCH  17  26
ATOM     26  O   UNL     1      -7.199  53.540  50.329  0.00  0.00    +0.000 OA
ATOM     27  H   UNL     1      -7.914  53.871  50.837  0.00  0.00    +0.000 HD
ENDBRANCH  17  26
BRANCH  19  28
ATOM     28  C   UNL     1      -7.822  50.850  45.387  0.00  0.00    +0.000 C 
BRANCH  28  29
ATOM     29  C   UNL     1      -8.544  49.498  45.536  0.00  0.00    +0.000 C 
BRANCH  29  30
ATOM     30  C   UNL     1      -9.707  49.282  44.554  0.00  0.00    +0.000 C 
ATOM     31  C   UNL     1     -11.045  49.204  45.284  0.00  0.00    +0.000 C 
ATOM     32  C   UNL     1      -9.732  50.425  43.535  0.00  0.00    +0.000 C 
ENDBRANCH  29  30
ENDBRANCH  28  29
ENDBRANCH  19  28
ENDBRANCH   6  15
BRANCH  11  33
ATOM     33  O   UNL     1     -14.596  57.830  49.756  0.00  0.00    +0.000 OA
BRANCH  33  34
ATOM     34  C   UNL     1     -14.334  58.821  50.750  0.00  0.00    +0.000 C 
BRANCH  34  35
ATOM     35  C   UNL     1     -13.666  60.007  50.075  0.00  0.00    +0.000 C 
ATOM     36  C   UNL     1     -14.593  60.629  49.046  0.00  0.00    +0.000 C 
ENDBRANCH  34  35
ENDBRANCH  33  34
ENDBRANCH  11  33
TORSDOF 8
ENDMDL
