MODEL 1
REMARK VINA RESULT:      -7.8      0.000      0.000
REMARK  Name = 353224
REMARK  10 active torsions:
REMARK  status: ('A' for Active; 'I' for Inactive)
REMARK    1  A    between atoms: C_6  and  C_10
REMARK    2  A    between atoms: C_12  and  N_16
REMARK    3  A    between atoms: C_14  and  O_19
REMARK    4  A    between atoms: N_16  and  S_21
REMARK    5  A    between atoms: N_18  and  C_23
REMARK    6  A    between atoms: S_21  and  C_27
REMARK    7  A    between atoms: C_23  and  C_29
REMARK    8  A    between atoms: C_29  and  C_34
REMARK    9  A    between atoms: C_34  and  C_37
REMARK   10  A    between atoms: C_34  and  C_38
REMARK                            x       y       z     vdW  Elec       q    Type
REMARK                         _______ _______ _______ _____ _____    ______ ____
ROOT
ATOM      1  S   UNL     1      -9.172  54.449  47.490  0.00  0.00    +0.000 S 
ATOM      2  O   UNL     1      -9.634  53.716  46.328  0.00  0.00    +0.000 OA
ATOM      3  O   UNL     1      -8.582  55.766  47.349  0.00  0.00    +0.000 OA
ATOM      4  N   UNL     1      -8.110  53.507  48.270  0.00  0.00    +0.000 N 
ATOM      5  C   UNL     1     -10.573  54.661  48.525  0.00  0.00    +0.000 A 
ATOM      6  C   UNL     1      -8.413  52.936  49.399  0.00  0.00    +0.000 C 
ATOM      7  C   UNL     1     -10.624  53.922  49.699  0.00  0.00    +0.000 A 
ATOM      8  C   UNL     1     -11.582  55.557  48.160  0.00  0.00    +0.000 A 
ATOM      9  N   UNL     1      -9.627  53.013  50.036  0.00  0.00    +0.000 N 
ATOM     10  C   UNL     1     -11.750  54.044  50.512  0.00  0.00    +0.000 A 
ATOM     11  C   UNL     1     -12.686  55.677  48.995  0.00  0.00    +0.000 A 
ATOM     12  C   UNL     1     -12.766  54.933  50.173  0.00  0.00    +0.000 A 
ATOM     13  H   UNL     1      -7.216  53.364  47.883  0.00  0.00    +0.000 HD
ATOM     14  H   UNL     1      -9.801  52.387  50.775  0.00  0.00    +0.000 HD
ENDROOT
BRANCH   6  15
ATOM     15  C   UNL     1      -7.308  52.148  50.064  0.00  0.00    +0.000 A 
ATOM     16  C   UNL     1      -7.044  52.341  51.527  0.00  0.00    +0.000 A 
ATOM     17  C   UNL     1      -6.580  51.266  49.361  0.00  0.00    +0.000 A 
ATOM     18  O   UNL     1      -7.807  53.063  52.173  0.00  0.00    +0.000 OA
ATOM     19  N   UNL     1      -5.960  51.696  52.087  0.00  0.00    +0.000 N 
ATOM     20  C   UNL     1      -5.457  50.572  49.996  0.00  0.00    +0.000 A 
ATOM     21  C   UNL     1      -5.139  50.820  51.333  0.00  0.00    +0.000 A 
ATOM     22  C   UNL     1      -4.642  49.691  49.275  0.00  0.00    +0.000 A 
ATOM     23  N   UNL     1      -4.074  50.251  51.945  0.00  0.00    +0.000 NA
ATOM     24  C   UNL     1      -3.543  49.107  49.890  0.00  0.00    +0.000 A 
ATOM     25  C   UNL     1      -3.301  49.418  51.213  0.00  0.00    +0.000 A 
BRANCH  17  26
ATOM     26  O   UNL     1      -6.776  50.963  48.026  0.00  0.00    +0.000 OA
ATOM     27  H   UNL     1      -7.602  51.144  47.621  0.00  0.00    +0.000 HD
ENDBRANCH  17  26
BRANCH  19  28
ATOM     28  C   UNL     1      -5.611  51.948  53.491  0.00  0.00    +0.000 C 
BRANCH  28  29
ATOM     29  C   UNL     1      -4.506  53.005  53.623  0.00  0.00    +0.000 C 
BRANCH  29  30
ATOM     30  C   UNL     1      -5.017  54.443  53.844  0.00  0.00    +0.000 C 
ATOM     31  C   UNL     1      -6.126  54.524  54.894  0.00  0.00    +0.000 C 
ATOM     32  C   UNL     1      -3.848  55.339  54.271  0.00  0.00    +0.000 C 
ENDBRANCH  29  30
ENDBRANCH  28  29
ENDBRANCH  19  28
ENDBRANCH   6  15
BRANCH  11  33
ATOM     33  N   UNL     1     -13.772  56.517  48.669  0.00  0.00    +0.000 N 
ATOM     34  H   UNL     1     -14.549  56.154  48.185  0.00  0.00    +0.000 HD
BRANCH  33  35
ATOM     35  S   UNL     1     -13.734  58.138  49.114  0.00  0.00    +0.000 S 
ATOM     36  O   UNL     1     -12.335  58.479  49.262  0.00  0.00    +0.000 OA
ATOM     37  O   UNL     1     -14.599  58.889  48.231  0.00  0.00    +0.000 OA
BRANCH  35  38
ATOM     38  C   UNL     1     -14.466  58.120  50.735  0.00  0.00    +0.000 A 
ATOM     39  C   UNL     1     -14.304  59.208  51.596  0.00  0.00    +0.000 A 
ATOM     40  C   UNL     1     -15.212  57.002  51.131  0.00  0.00    +0.000 A 
ATOM     41  C   UNL     1     -14.866  59.159  52.873  0.00  0.00    +0.000 A 
ATOM     42  C   UNL     1     -15.757  56.955  52.412  0.00  0.00    +0.000 A 
ATOM     43  C   UNL     1     -15.582  58.031  53.282  0.00  0.00    +0.000 A 
ENDBRANCH  35  38
ENDBRANCH  33  35
ENDBRANCH  11  33
TORSDOF 8
ENDMDL
MODEL 2
REMARK VINA RESULT:      -7.6      2.722      4.088
REMARK  Name = 353224
REMARK  10 active torsions:
REMARK  status: ('A' for Active; 'I' for Inactive)
REMARK    1  A    between atoms: C_6  and  C_10
REMARK    2  A    between atoms: C_12  and  N_16
REMARK    3  A    between atoms: C_14  and  O_19
REMARK    4  A    between atoms: N_16  and  S_21
REMARK    5  A    between atoms: N_18  and  C_23
REMARK    6  A    between atoms: S_21  and  C_27
REMARK    7  A    between atoms: C_23  and  C_29
REMARK    8  A    between atoms: C_29  and  C_34
REMARK    9  A    between atoms: C_34  and  C_37
REMARK   10  A    between atoms: C_34  and  C_38
REMARK                            x       y       z     vdW  Elec       q    Type
REMARK                         _______ _______ _______ _____ _____    ______ ____
ROOT
ATOM      1  S   UNL     1     -11.036  53.609  49.830  0.00  0.00    +0.000 S 
ATOM      2  O   UNL     1     -10.309  54.397  50.806  0.00  0.00    +0.000 OA
ATOM      3  O   UNL     1     -12.139  52.761  50.238  0.00  0.00    +0.000 OA
ATOM      4  N   UNL     1      -9.959  52.686  49.047  0.00  0.00    +0.000 N 
ATOM      5  C   UNL     1     -11.711  54.751  48.682  0.00  0.00    +0.000 A 
ATOM      6  C   UNL     1      -9.618  52.939  47.818  0.00  0.00    +0.000 C 
ATOM      7  C   UNL     1     -11.151  54.793  47.411  0.00  0.00    +0.000 A 
ATOM      8  C   UNL     1     -12.779  55.570  49.056  0.00  0.00    +0.000 A 
ATOM      9  N   UNL     1     -10.070  53.992  47.061  0.00  0.00    +0.000 N 
ATOM     10  C   UNL     1     -11.644  55.724  46.499  0.00  0.00    +0.000 A 
ATOM     11  C   UNL     1     -13.267  56.478  48.124  0.00  0.00    +0.000 A 
ATOM     12  C   UNL     1     -12.712  56.548  46.847  0.00  0.00    +0.000 A 
ATOM     13  H   UNL     1      -9.554  51.918  49.512  0.00  0.00    +0.000 HD
ATOM     14  H   UNL     1      -9.599  54.191  46.220  0.00  0.00    +0.000 HD
ENDROOT
BRANCH   6  15
ATOM     15  C   UNL     1      -8.666  51.957  47.176  0.00  0.00    +0.000 A 
ATOM     16  C   UNL     1      -7.499  51.440  47.962  0.00  0.00    +0.000 A 
ATOM     17  C   UNL     1      -8.869  51.531  45.918  0.00  0.00    +0.000 A 
ATOM     18  O   UNL     1      -7.407  51.750  49.152  0.00  0.00    +0.000 OA
ATOM     19  N   UNL     1      -6.582  50.633  47.319  0.00  0.00    +0.000 N 
ATOM     20  C   UNL     1      -7.894  50.647  45.277  0.00  0.00    +0.000 A 
ATOM     21  C   UNL     1      -6.750  50.240  45.968  0.00  0.00    +0.000 A 
ATOM     22  C   UNL     1      -8.046  50.233  43.949  0.00  0.00    +0.000 A 
ATOM     23  N   UNL     1      -5.789  49.475  45.397  0.00  0.00    +0.000 NA
ATOM     24  C   UNL     1      -7.066  49.455  43.350  0.00  0.00    +0.000 A 
ATOM     25  C   UNL     1      -5.965  49.107  44.108  0.00  0.00    +0.000 A 
BRANCH  17  26
ATOM     26  O   UNL     1      -9.943  51.893  45.124  0.00  0.00    +0.000 OA
ATOM     27  H   UNL     1      -9.935  51.695  44.208  0.00  0.00    +0.000 HD
ENDBRANCH  17  26
BRANCH  19  28
ATOM     28  C   UNL     1      -5.374  50.198  48.030  0.00  0.00    +0.000 C 
BRANCH  28  29
ATOM     29  C   UNL     1      -4.284  51.279  48.017  0.00  0.00    +0.000 C 
BRANCH  29  30
ATOM     30  C   UNL     1      -3.621  51.538  49.384  0.00  0.00    +0.000 C 
ATOM     31  C   UNL     1      -4.306  52.654  50.175  0.00  0.00    +0.000 C 
ATOM     32  C   UNL     1      -3.637  50.247  50.212  0.00  0.00    +0.000 C 
ENDBRANCH  29  30
ENDBRANCH  28  29
ENDBRANCH  19  28
ENDBRANCH   6  15
BRANCH  11  33
ATOM     33  N   UNL     1     -14.306  57.379  48.443  0.00  0.00    +0.000 N 
ATOM     34  H   UNL     1     -15.230  57.185  48.166  0.00  0.00    +0.000 HD
BRANCH  33  35
ATOM     35  S   UNL     1     -13.956  58.785  49.298  0.00  0.00    +0.000 S 
ATOM     36  O   UNL     1     -12.512  58.855  49.377  0.00  0.00    +0.000 OA
ATOM     37  O   UNL     1     -14.731  59.875  48.749  0.00  0.00    +0.000 OA
BRANCH  35  38
ATOM     38  C   UNL     1     -14.575  58.419  50.926  0.00  0.00    +0.000 A 
ATOM     39  C   UNL     1     -14.479  59.368  51.947  0.00  0.00    +0.000 A 
ATOM     40  C   UNL     1     -15.165  57.171  51.163  0.00  0.00    +0.000 A 
ATOM     41  C   UNL     1     -14.949  59.049  53.223  0.00  0.00    +0.000 A 
ATOM     42  C   UNL     1     -15.616  56.855  52.443  0.00  0.00    +0.000 A 
ATOM     43  C   UNL     1     -15.507  57.792  53.471  0.00  0.00    +0.000 A 
ENDBRANCH  35  38
ENDBRANCH  33  35
ENDBRANCH  11  33
TORSDOF 8
ENDMDL
MODEL 3
REMARK VINA RESULT:      -7.5      3.242      4.880
REMARK  Name = 353224
REMARK  10 active torsions:
REMARK  status: ('A' for Active; 'I' for Inactive)
REMARK    1  A    between atoms: C_6  and  C_10
REMARK    2  A    between atoms: C_12  and  N_16
REMARK    3  A    between atoms: C_14  and  O_19
REMARK    4  A    between atoms: N_16  and  S_21
REMARK    5  A    between atoms: N_18  and  C_23
REMARK    6  A    between atoms: S_21  and  C_27
REMARK    7  A    between atoms: C_23  and  C_29
REMARK    8  A    between atoms: C_29  and  C_34
REMARK    9  A    between atoms: C_34  and  C_37
REMARK   10  A    between atoms: C_34  and  C_38
REMARK                            x       y       z     vdW  Elec       q    Type
REMARK                         _______ _______ _______ _____ _____    ______ ____
ROOT
ATOM      1  S   UNL     1     -10.155  54.938  50.252  0.00  0.00    +0.000 S 
ATOM      2  O   UNL     1      -9.465  56.078  50.823  0.00  0.00    +0.000 OA
ATOM      3  O   UNL     1     -11.038  54.125  51.064  0.00  0.00    +0.000 OA
ATOM      4  N   UNL     1      -9.034  53.964  49.604  0.00  0.00    +0.000 N 
ATOM      5  C   UNL     1     -11.147  55.567  48.949  0.00  0.00    +0.000 A 
ATOM      6  C   UNL     1      -8.889  53.862  48.316  0.00  0.00    +0.000 C 
ATOM      7  C   UNL     1     -10.756  55.283  47.647  0.00  0.00    +0.000 A 
ATOM      8  C   UNL     1     -12.289  56.318  49.241  0.00  0.00    +0.000 A 
ATOM      9  N   UNL     1      -9.602  54.559  47.371  0.00  0.00    +0.000 N 
ATOM     10  C   UNL     1     -11.507  55.811  46.598  0.00  0.00    +0.000 A 
ATOM     11  C   UNL     1     -13.034  56.819  48.179  0.00  0.00    +0.000 A 
ATOM     12  C   UNL     1     -12.652  56.558  46.863  0.00  0.00    +0.000 A 
ATOM     13  H   UNL     1      -8.450  53.438  50.198  0.00  0.00    +0.000 HD
ATOM     14  H   UNL     1      -9.275  54.545  46.443  0.00  0.00    +0.000 HD
ENDROOT
BRANCH   6  15
ATOM     15  C   UNL     1      -7.863  52.861  47.838  0.00  0.00    +0.000 A 
ATOM     16  C   UNL     1      -8.321  51.596  47.176  0.00  0.00    +0.000 A 
ATOM     17  C   UNL     1      -6.551  53.105  47.984  0.00  0.00    +0.000 A 
ATOM     18  O   UNL     1      -9.523  51.455  46.943  0.00  0.00    +0.000 OA
ATOM     19  N   UNL     1      -7.372  50.648  46.850  0.00  0.00    +0.000 N 
ATOM     20  C   UNL     1      -5.569  52.091  47.596  0.00  0.00    +0.000 A 
ATOM     21  C   UNL     1      -5.989  50.867  47.070  0.00  0.00    +0.000 A 
ATOM     22  C   UNL     1      -4.197  52.291  47.789  0.00  0.00    +0.000 A 
ATOM     23  N   UNL     1      -5.123  49.874  46.755  0.00  0.00    +0.000 NA
ATOM     24  C   UNL     1      -3.300  51.279  47.477  0.00  0.00    +0.000 A 
ATOM     25  C   UNL     1      -3.807  50.099  46.970  0.00  0.00    +0.000 A 
BRANCH  17  26
ATOM     26  O   UNL     1      -6.016  54.262  48.523  0.00  0.00    +0.000 OA
ATOM     27  H   UNL     1      -6.136  54.454  49.432  0.00  0.00    +0.000 HD
ENDBRANCH  17  26
BRANCH  19  28
ATOM     28  C   UNL     1      -7.797  49.355  46.299  0.00  0.00    +0.000 C 
BRANCH  28  29
ATOM     29  C   UNL     1      -7.365  49.190  44.835  0.00  0.00    +0.000 C 
BRANCH  29  30
ATOM     30  C   UNL     1      -8.428  49.614  43.801  0.00  0.00    +0.000 C 
ATOM     31  C   UNL     1      -9.856  49.326  44.266  0.00  0.00    +0.000 C 
ATOM     32  C   UNL     1      -8.283  51.111  43.505  0.00  0.00    +0.000 C 
ENDBRANCH  29  30
ENDBRANCH  28  29
ENDBRANCH  19  28
ENDBRANCH   6  15
BRANCH  11  33
ATOM     33  N   UNL     1     -14.167  57.632  48.389  0.00  0.00    +0.000 N 
ATOM     34  H   UNL     1     -15.033  57.386  47.991  0.00  0.00    +0.000 HD
BRANCH  33  35
ATOM     35  S   UNL     1     -14.033  59.023  49.325  0.00  0.00    +0.000 S 
ATOM     36  O   UNL     1     -12.614  59.277  49.462  0.00  0.00    +0.000 OA
ATOM     37  O   UNL     1     -14.927  60.031  48.802  0.00  0.00    +0.000 OA
BRANCH  35  38
ATOM     38  C   UNL     1     -14.648  58.494  50.908  0.00  0.00    +0.000 A 
ATOM     39  C   UNL     1     -14.547  59.332  52.022  0.00  0.00    +0.000 A 
ATOM     40  C   UNL     1     -15.240  57.229  51.018  0.00  0.00    +0.000 A 
ATOM     41  C   UNL     1     -15.014  58.884  53.259  0.00  0.00    +0.000 A 
ATOM     42  C   UNL     1     -15.689  56.784  52.260  0.00  0.00    +0.000 A 
ATOM     43  C   UNL     1     -15.575  57.610  53.378  0.00  0.00    +0.000 A 
ENDBRANCH  35  38
ENDBRANCH  33  35
ENDBRANCH  11  33
TORSDOF 8
ENDMDL
MODEL 4
REMARK VINA RESULT:      -7.5      1.645      1.994
REMARK  Name = 353224
REMARK  10 active torsions:
REMARK  status: ('A' for Active; 'I' for Inactive)
REMARK    1  A    between atoms: C_6  and  C_10
REMARK    2  A    between atoms: C_12  and  N_16
REMARK    3  A    between atoms: C_14  and  O_19
REMARK    4  A    between atoms: N_16  and  S_21
REMARK    5  A    between atoms: N_18  and  C_23
REMARK    6  A    between atoms: S_21  and  C_27
REMARK    7  A    between atoms: C_23  and  C_29
REMARK    8  A    between atoms: C_29  and  C_34
REMARK    9  A    between atoms: C_34  and  C_37
REMARK   10  A    between atoms: C_34  and  C_38
REMARK                            x       y       z     vdW  Elec       q    Type
REMARK                         _______ _______ _______ _____ _____    ______ ____
ROOT
ATOM      1  S   UNL     1     -11.105  53.727  46.819  0.00  0.00    +0.000 S 
ATOM      2  O   UNL     1     -12.232  52.824  46.948  0.00  0.00    +0.000 OA
ATOM      3  O   UNL     1     -10.771  54.314  45.536  0.00  0.00    +0.000 OA
ATOM      4  N   UNL     1      -9.794  52.954  47.373  0.00  0.00    +0.000 N 
ATOM      5  C   UNL     1     -11.434  55.077  47.891  0.00  0.00    +0.000 A 
ATOM      6  C   UNL     1      -9.251  53.272  48.511  0.00  0.00    +0.000 C 
ATOM      7  C   UNL     1     -10.674  55.179  49.049  0.00  0.00    +0.000 A 
ATOM      8  C   UNL     1     -12.425  56.006  47.561  0.00  0.00    +0.000 A 
ATOM      9  N   UNL     1      -9.712  54.232  49.378  0.00  0.00    +0.000 N 
ATOM     10  C   UNL     1     -10.951  56.220  49.934  0.00  0.00    +0.000 A 
ATOM     11  C   UNL     1     -12.671  57.046  48.450  0.00  0.00    +0.000 A 
ATOM     12  C   UNL     1     -11.930  57.161  49.626  0.00  0.00    +0.000 A 
ATOM     13  H   UNL     1      -9.400  52.228  46.836  0.00  0.00    +0.000 HD
ATOM     14  H   UNL     1      -9.337  54.250  50.288  0.00  0.00    +0.000 HD
ENDROOT
BRANCH   6  15
ATOM     15  C   UNL     1      -7.986  52.530  48.875  0.00  0.00    +0.000 A 
ATOM     16  C   UNL     1      -7.903  51.820  50.193  0.00  0.00    +0.000 A 
ATOM     17  C   UNL     1      -6.950  52.487  48.023  0.00  0.00    +0.000 A 
ATOM     18  O   UNL     1      -8.911  51.771  50.901  0.00  0.00    +0.000 OA
ATOM     19  N   UNL     1      -6.700  51.245  50.551  0.00  0.00    +0.000 N 
ATOM     20  C   UNL     1      -5.699  51.838  48.421  0.00  0.00    +0.000 A 
ATOM     21  C   UNL     1      -5.577  51.260  49.687  0.00  0.00    +0.000 A 
ATOM     22  C   UNL     1      -4.581  51.827  47.578  0.00  0.00    +0.000 A 
ATOM     23  N   UNL     1      -4.421  50.704  50.124  0.00  0.00    +0.000 NA
ATOM     24  C   UNL     1      -3.390  51.267  48.018  0.00  0.00    +0.000 A 
ATOM     25  C   UNL     1      -3.360  50.726  49.288  0.00  0.00    +0.000 A 
BRANCH  17  26
ATOM     26  O   UNL     1      -6.940  53.053  46.760  0.00  0.00    +0.000 OA
ATOM     27  H   UNL     1      -6.127  53.305  46.367  0.00  0.00    +0.000 HD
ENDBRANCH  17  26
BRANCH  19  28
ATOM     28  C   UNL     1      -6.554  50.634  51.878  0.00  0.00    +0.000 C 
BRANCH  28  29
ATOM     29  C   UNL     1      -5.960  51.618  52.896  0.00  0.00    +0.000 C 
BRANCH  29  30
ATOM     30  C   UNL     1      -7.005  52.393  53.724  0.00  0.00    +0.000 C 
ATOM     31  C   UNL     1      -8.009  51.475  54.423  0.00  0.00    +0.000 C 
ATOM     32  C   UNL     1      -6.289  53.253  54.773  0.00  0.00    +0.000 C 
ENDBRANCH  29  30
ENDBRANCH  28  29
ENDBRANCH  19  28
ENDBRANCH   6  15
BRANCH  11  33
ATOM     33  N   UNL     1     -13.692  57.992  48.217  0.00  0.00    +0.000 N 
ATOM     34  H   UNL     1     -14.273  57.907  47.427  0.00  0.00    +0.000 HD
BRANCH  33  35
ATOM     35  S   UNL     1     -13.911  59.263  49.297  0.00  0.00    +0.000 S 
ATOM     36  O   UNL     1     -12.584  59.720  49.650  0.00  0.00    +0.000 OA
ATOM     37  O   UNL     1     -14.899  60.172  48.760  0.00  0.00    +0.000 OA
BRANCH  35  38
ATOM     38  C   UNL     1     -14.607  58.454  50.721  0.00  0.00    +0.000 A 
ATOM     39  C   UNL     1     -14.315  58.914  52.007  0.00  0.00    +0.000 A 
ATOM     40  C   UNL     1     -15.455  57.356  50.531  0.00  0.00    +0.000 A 
ATOM     41  C   UNL     1     -14.853  58.248  53.110  0.00  0.00    +0.000 A 
ATOM     42  C   UNL     1     -15.975  56.687  51.637  0.00  0.00    +0.000 A 
ATOM     43  C   UNL     1     -15.673  57.131  52.925  0.00  0.00    +0.000 A 
ENDBRANCH  35  38
ENDBRANCH  33  35
ENDBRANCH  11  33
TORSDOF 8
ENDMDL
MODEL 5
REMARK VINA RESULT:      -7.4      1.872      3.728
REMARK  Name = 353224
REMARK  10 active torsions:
REMARK  status: ('A' for Active; 'I' for Inactive)
REMARK    1  A    between atoms: C_6  and  C_10
REMARK    2  A    between atoms: C_12  and  N_16
REMARK    3  A    between atoms: C_14  and  O_19
REMARK    4  A    between atoms: N_16  and  S_21
REMARK    5  A    between atoms: N_18  and  C_23
REMARK    6  A    between atoms: S_21  and  C_27
REMARK    7  A    between atoms: C_23  and  C_29
REMARK    8  A    between atoms: C_29  and  C_34
REMARK    9  A    between atoms: C_34  and  C_37
REMARK   10  A    between atoms: C_34  and  C_38
REMARK                            x       y       z     vdW  Elec       q    Type
REMARK                         _______ _______ _______ _____ _____    ______ ____
ROOT
ATOM      1  S   UNL     1     -10.747  53.965  52.077  0.00  0.00    +0.000 S 
ATOM      2  O   UNL     1     -10.659  55.073  53.009  0.00  0.00    +0.000 OA
ATOM      3  O   UNL     1     -11.824  53.001  52.174  0.00  0.00    +0.000 OA
ATOM      4  N   UNL     1      -9.344  53.158  52.147  0.00  0.00    +0.000 N 
ATOM      5  C   UNL     1     -10.885  54.678  50.480  0.00  0.00    +0.000 A 
ATOM      6  C   UNL     1      -8.477  53.223  51.180  0.00  0.00    +0.000 C 
ATOM      7  C   UNL     1      -9.788  54.581  49.634  0.00  0.00    +0.000 A 
ATOM      8  C   UNL     1     -12.073  55.307  50.095  0.00  0.00    +0.000 A 
ATOM      9  N   UNL     1      -8.603  53.978  50.040  0.00  0.00    +0.000 N 
ATOM     10  C   UNL     1      -9.863  55.179  48.377  0.00  0.00    +0.000 A 
ATOM     11  C   UNL     1     -12.132  55.879  48.831  0.00  0.00    +0.000 A 
ATOM     12  C   UNL     1     -11.038  55.806  47.969  0.00  0.00    +0.000 A 
ATOM     13  H   UNL     1      -9.145  52.605  52.937  0.00  0.00    +0.000 HD
ATOM     14  H   UNL     1      -7.805  54.099  49.476  0.00  0.00    +0.000 HD
ENDROOT
BRANCH   6  15
ATOM     15  C   UNL     1      -7.246  52.360  51.330  0.00  0.00    +0.000 A 
ATOM     16  C   UNL     1      -6.877  51.405  50.236  0.00  0.00    +0.000 A 
ATOM     17  C   UNL     1      -6.473  52.458  52.424  0.00  0.00    +0.000 A 
ATOM     18  O   UNL     1      -7.531  51.424  49.191  0.00  0.00    +0.000 OA
ATOM     19  N   UNL     1      -5.814  50.549  50.445  0.00  0.00    +0.000 N 
ATOM     20  C   UNL     1      -5.331  51.558  52.599  0.00  0.00    +0.000 A 
ATOM     21  C   UNL     1      -5.038  50.595  51.630  0.00  0.00    +0.000 A 
ATOM     22  C   UNL     1      -4.542  51.595  53.754  0.00  0.00    +0.000 A 
ATOM     23  N   UNL     1      -4.032  49.700  51.776  0.00  0.00    +0.000 NA
ATOM     24  C   UNL     1      -3.513  50.679  53.918  0.00  0.00    +0.000 A 
ATOM     25  C   UNL     1      -3.301  49.758  52.911  0.00  0.00    +0.000 A 
BRANCH  17  26
ATOM     26  O   UNL     1      -6.683  53.346  53.465  0.00  0.00    +0.000 OA
ATOM     27  H   UNL     1      -6.102  54.071  53.586  0.00  0.00    +0.000 HD
ENDBRANCH  17  26
BRANCH  19  28
ATOM     28  C   UNL     1      -5.493  49.531  49.437  0.00  0.00    +0.000 C 
BRANCH  28  29
ATOM     29  C   UNL     1      -4.221  49.884  48.654  0.00  0.00    +0.000 C 
BRANCH  29  30
ATOM     30  C   UNL     1      -4.471  50.609  47.317  0.00  0.00    +0.000 C 
ATOM     31  C   UNL     1      -5.790  50.201  46.658  0.00  0.00    +0.000 C 
ATOM     32  C   UNL     1      -4.469  52.124  47.550  0.00  0.00    +0.000 C 
ENDBRANCH  29  30
ENDBRANCH  28  29
ENDBRANCH  19  28
ENDBRANCH   6  15
BRANCH  11  33
ATOM     33  N   UNL     1     -13.275  56.580  48.389  0.00  0.00    +0.000 N 
ATOM     34  H   UNL     1     -13.902  56.156  47.760  0.00  0.00    +0.000 HD
BRANCH  33  35
ATOM     35  S   UNL     1     -13.559  58.143  48.943  0.00  0.00    +0.000 S 
ATOM     36  O   UNL     1     -12.259  58.699  49.254  0.00  0.00    +0.000 OA
ATOM     37  O   UNL     1     -14.460  58.810  48.030  0.00  0.00    +0.000 OA
BRANCH  35  38
ATOM     38  C   UNL     1     -14.416  57.867  50.477  0.00  0.00    +0.000 A 
ATOM     39  C   UNL     1     -14.133  58.654  51.596  0.00  0.00    +0.000 A 
ATOM     40  C   UNL     1     -15.383  56.855  50.542  0.00  0.00    +0.000 A 
ATOM     41  C   UNL     1     -14.801  58.402  52.796  0.00  0.00    +0.000 A 
ATOM     42  C   UNL     1     -16.033  56.600  51.748  0.00  0.00    +0.000 A 
ATOM     43  C   UNL     1     -15.742  57.371  52.873  0.00  0.00    +0.000 A 
ENDBRANCH  35  38
ENDBRANCH  33  35
ENDBRANCH  11  33
TORSDOF 8
ENDMDL
MODEL 6
REMARK VINA RESULT:      -7.0      2.671      9.847
REMARK  Name = 353224
REMARK  10 active torsions:
REMARK  status: ('A' for Active; 'I' for Inactive)
REMARK    1  A    between atoms: C_6  and  C_10
REMARK    2  A    between atoms: C_12  and  N_16
REMARK    3  A    between atoms: C_14  and  O_19
REMARK    4  A    between atoms: N_16  and  S_21
REMARK    5  A    between atoms: N_18  and  C_23
REMARK    6  A    between atoms: S_21  and  C_27
REMARK    7  A    between atoms: C_23  and  C_29
REMARK    8  A    between atoms: C_29  and  C_34
REMARK    9  A    between atoms: C_34  and  C_37
REMARK   10  A    between atoms: C_34  and  C_38
REMARK                            x       y       z     vdW  Elec       q    Type
REMARK                         _______ _______ _______ _____ _____    ______ ____
ROOT
ATOM      1  S   UNL     1      -9.512  51.391  51.050  0.00  0.00    +0.000 S 
ATOM      2  O   UNL     1      -8.811  50.839  49.907  0.00  0.00    +0.000 OA
ATOM      3  O   UNL     1     -10.295  50.536  51.921  0.00  0.00    +0.000 OA
ATOM      4  N   UNL     1     -10.479  52.571  50.507  0.00  0.00    +0.000 N 
ATOM      5  C   UNL     1      -8.286  52.120  52.072  0.00  0.00    +0.000 A 
ATOM      6  C   UNL     1     -10.208  53.824  50.727  0.00  0.00    +0.000 C 
ATOM      7  C   UNL     1      -8.238  53.506  52.132  0.00  0.00    +0.000 A 
ATOM      8  C   UNL     1      -7.407  51.309  52.797  0.00  0.00    +0.000 A 
ATOM      9  N   UNL     1      -9.099  54.301  51.383  0.00  0.00    +0.000 N 
ATOM     10  C   UNL     1      -7.243  54.104  52.903  0.00  0.00    +0.000 A 
ATOM     11  C   UNL     1      -6.435  51.926  53.575  0.00  0.00    +0.000 A 
ATOM     12  C   UNL     1      -6.360  53.318  53.638  0.00  0.00    +0.000 A 
ATOM     13  H   UNL     1     -11.290  52.335  49.999  0.00  0.00    +0.000 HD
ATOM     14  H   UNL     1      -8.904  55.263  51.320  0.00  0.00    +0.000 HD
ENDROOT
BRANCH   6  15
ATOM     15  C   UNL     1     -11.230  54.823  50.237  0.00  0.00    +0.000 A 
ATOM     16  C   UNL     1     -12.188  55.436  51.213  0.00  0.00    +0.000 A 
ATOM     17  C   UNL     1     -11.271  55.178  48.943  0.00  0.00    +0.000 A 
ATOM     18  O   UNL     1     -12.047  55.186  52.413  0.00  0.00    +0.000 OA
ATOM     19  N   UNL     1     -13.183  56.259  50.725  0.00  0.00    +0.000 N 
ATOM     20  C   UNL     1     -12.320  56.082  48.464  0.00  0.00    +0.000 A 
ATOM     21  C   UNL     1     -13.280  56.580  49.348  0.00  0.00    +0.000 A 
ATOM     22  C   UNL     1     -12.426  56.425  47.111  0.00  0.00    +0.000 A 
ATOM     23  N   UNL     1     -14.305  57.366  48.941  0.00  0.00    +0.000 NA
ATOM     24  C   UNL     1     -13.475  57.224  46.681  0.00  0.00    +0.000 A 
ATOM     25  C   UNL     1     -14.382  57.664  47.625  0.00  0.00    +0.000 A 
BRANCH  17  26
ATOM     26  O   UNL     1     -10.400  54.725  47.969  0.00  0.00    +0.000 OA
ATOM     27  H   UNL     1     -10.077  53.845  48.002  0.00  0.00    +0.000 HD
ENDBRANCH  17  26
BRANCH  19  28
ATOM     28  C   UNL     1     -14.201  56.789  51.641  0.00  0.00    +0.000 C 
BRANCH  28  29
ATOM     29  C   UNL     1     -13.668  57.972  52.462  0.00  0.00    +0.000 C 
BRANCH  29  30
ATOM     30  C   UNL     1     -14.575  59.218  52.454  0.00  0.00    +0.000 C 
ATOM     31  C   UNL     1     -15.208  59.484  51.087  0.00  0.00    +0.000 C 
ATOM     32  C   UNL     1     -15.683  59.050  53.500  0.00  0.00    +0.000 C 
ENDBRANCH  29  30
ENDBRANCH  28  29
ENDBRANCH  19  28
ENDBRANCH   6  15
BRANCH  11  33
ATOM     33  N   UNL     1      -5.476  51.179  54.291  0.00  0.00    +0.000 N 
ATOM     34  H   UNL     1      -5.723  50.740  55.137  0.00  0.00    +0.000 HD
BRANCH  33  35
ATOM     35  S   UNL     1      -3.911  51.041  53.692  0.00  0.00    +0.000 S 
ATOM     36  O   UNL     1      -3.300  52.342  53.867  0.00  0.00    +0.000 OA
ATOM     37  O   UNL     1      -3.302  49.848  54.236  0.00  0.00    +0.000 OA
BRANCH  35  38
ATOM     38  C   UNL     1      -4.176  50.793  51.950  0.00  0.00    +0.000 A 
ATOM     39  C   UNL     1      -4.536  49.534  51.463  0.00  0.00    +0.000 A 
ATOM     40  C   UNL     1      -4.024  51.879  51.079  0.00  0.00    +0.000 A 
ATOM     41  C   UNL     1      -4.714  49.358  50.089  0.00  0.00    +0.000 A 
ATOM     42  C   UNL     1      -4.188  51.691  49.708  0.00  0.00    +0.000 A 
ATOM     43  C   UNL     1      -4.530  50.432  49.214  0.00  0.00    +0.000 A 
ENDBRANCH  35  38
ENDBRANCH  33  35
ENDBRANCH  11  33
TORSDOF 8
ENDMDL
MODEL 7
REMARK VINA RESULT:      -6.9      3.023      9.994
REMARK  Name = 353224
REMARK  10 active torsions:
REMARK  status: ('A' for Active; 'I' for Inactive)
REMARK    1  A    between atoms: C_6  and  C_10
REMARK    2  A    between atoms: C_12  and  N_16
REMARK    3  A    between atoms: C_14  and  O_19
REMARK    4  A    between atoms: N_16  and  S_21
REMARK    5  A    between atoms: N_18  and  C_23
REMARK    6  A    between atoms: S_21  and  C_27
REMARK    7  A    between atoms: C_23  and  C_29
REMARK    8  A    between atoms: C_29  and  C_34
REMARK    9  A    between atoms: C_34  and  C_37
REMARK   10  A    between atoms: C_34  and  C_38
REMARK                            x       y       z     vdW  Elec       q    Type
REMARK                         _______ _______ _______ _____ _____    ______ ____
ROOT
ATOM      1  S   UNL     1      -7.971  55.281  52.986  0.00  0.00    +0.000 S 
ATOM      2  O   UNL     1      -8.503  55.566  54.304  0.00  0.00    +0.000 OA
ATOM      3  O   UNL     1      -6.716  55.862  52.553  0.00  0.00    +0.000 OA
ATOM      4  N   UNL     1      -9.108  55.683  51.904  0.00  0.00    +0.000 N 
ATOM      5  C   UNL     1      -7.744  53.543  52.915  0.00  0.00    +0.000 A 
ATOM      6  C   UNL     1      -9.779  54.775  51.259  0.00  0.00    +0.000 C 
ATOM      7  C   UNL     1      -8.614  52.811  52.116  0.00  0.00    +0.000 A 
ATOM      8  C   UNL     1      -6.710  52.943  53.640  0.00  0.00    +0.000 A 
ATOM      9  N   UNL     1      -9.655  53.418  51.424  0.00  0.00    +0.000 N 
ATOM     10  C   UNL     1      -8.476  51.424  52.082  0.00  0.00    +0.000 A 
ATOM     11  C   UNL     1      -6.580  51.561  53.575  0.00  0.00    +0.000 A 
ATOM     12  C   UNL     1      -7.451  50.804  52.790  0.00  0.00    +0.000 A 
ATOM     13  H   UNL     1      -9.294  56.635  51.731  0.00  0.00    +0.000 HD
ATOM     14  H   UNL     1     -10.346  52.839  51.027  0.00  0.00    +0.000 HD
ENDROOT
BRANCH   6  15
ATOM     15  C   UNL     1     -10.754  55.281  50.220  0.00  0.00    +0.000 A 
ATOM     16  C   UNL     1     -10.527  54.951  48.775  0.00  0.00    +0.000 A 
ATOM     17  C   UNL     1     -11.826  56.002  50.583  0.00  0.00    +0.000 A 
ATOM     18  O   UNL     1      -9.606  54.185  48.483  0.00  0.00    +0.000 OA
ATOM     19  N   UNL     1     -11.366  55.516  47.836  0.00  0.00    +0.000 N 
ATOM     20  C   UNL     1     -12.716  56.558  49.562  0.00  0.00    +0.000 A 
ATOM     21  C   UNL     1     -12.457  56.341  48.207  0.00  0.00    +0.000 A 
ATOM     22  C   UNL     1     -13.809  57.363  49.905  0.00  0.00    +0.000 A 
ATOM     23  N   UNL     1     -13.214  56.886  47.225  0.00  0.00    +0.000 NA
ATOM     24  C   UNL     1     -14.588  57.933  48.909  0.00  0.00    +0.000 A 
ATOM     25  C   UNL     1     -14.252  57.670  47.595  0.00  0.00    +0.000 A 
BRANCH  17  26
ATOM     26  O   UNL     1     -12.166  56.312  51.888  0.00  0.00    +0.000 OA
ATOM     27  H   UNL     1     -11.494  56.444  52.528  0.00  0.00    +0.000 HD
ENDBRANCH  17  26
BRANCH  19  28
ATOM     28  C   UNL     1     -11.106  55.299  46.407  0.00  0.00    +0.000 C 
BRANCH  28  29
ATOM     29  C   UNL     1     -11.276  53.825  46.014  0.00  0.00    +0.000 C 
BRANCH  29  30
ATOM     30  C   UNL     1     -10.527  53.413  44.731  0.00  0.00    +0.000 C 
ATOM     31  C   UNL     1      -9.059  53.066  44.985  0.00  0.00    +0.000 C 
ATOM     32  C   UNL     1     -11.230  52.208  44.095  0.00  0.00    +0.000 C 
ENDBRANCH  29  30
ENDBRANCH  28  29
ENDBRANCH  19  28
ENDBRANCH   6  15
BRANCH  11  33
ATOM     33  N   UNL     1      -5.598  50.875  54.321  0.00  0.00    +0.000 N 
ATOM     34  H   UNL     1      -5.850  50.384  55.137  0.00  0.00    +0.000 HD
BRANCH  33  35
ATOM     35  S   UNL     1      -3.996  50.897  53.809  0.00  0.00    +0.000 S 
ATOM     36  O   UNL     1      -3.531  52.253  54.013  0.00  0.00    +0.000 OA
ATOM     37  O   UNL     1      -3.300  49.771  54.390  0.00  0.00    +0.000 OA
BRANCH  35  38
ATOM     38  C   UNL     1      -4.139  50.627  52.056  0.00  0.00    +0.000 A 
ATOM     39  C   UNL     1      -4.011  51.694  51.164  0.00  0.00    +0.000 A 
ATOM     40  C   UNL     1      -4.372  49.328  51.587  0.00  0.00    +0.000 A 
ATOM     41  C   UNL     1      -4.152  51.461  49.795  0.00  0.00    +0.000 A 
ATOM     42  C   UNL     1      -4.527  49.107  50.220  0.00  0.00    +0.000 A 
ATOM     43  C   UNL     1      -4.419  50.172  49.326  0.00  0.00    +0.000 A 
ENDBRANCH  35  38
ENDBRANCH  33  35
ENDBRANCH  11  33
TORSDOF 8
ENDMDL
MODEL 8
REMARK VINA RESULT:      -6.9      3.151      5.163
REMARK  Name = 353224
REMARK  10 active torsions:
REMARK  status: ('A' for Active; 'I' for Inactive)
REMARK    1  A    between atoms: C_6  and  C_10
REMARK    2  A    between atoms: C_12  and  N_16
REMARK    3  A    between atoms: C_14  and  O_19
REMARK    4  A    between atoms: N_16  and  S_21
REMARK    5  A    between atoms: N_18  and  C_23
REMARK    6  A    between atoms: S_21  and  C_27
REMARK    7  A    between atoms: C_23  and  C_29
REMARK    8  A    between atoms: C_29  and  C_34
REMARK    9  A    between atoms: C_34  and  C_37
REMARK   10  A    between atoms: C_34  and  C_38
REMARK                            x       y       z     vdW  Elec       q    Type
REMARK                         _______ _______ _______ _____ _____    ______ ____
ROOT
ATOM      1  S   UNL     1      -9.911  53.683  52.135  0.00  0.00    +0.000 S 
ATOM      2  O   UNL     1      -9.301  54.834  52.773  0.00  0.00    +0.000 OA
ATOM      3  O   UNL     1     -10.469  52.606  52.928  0.00  0.00    +0.000 OA
ATOM      4  N   UNL     1      -8.813  53.046  51.128  0.00  0.00    +0.000 N 
ATOM      5  C   UNL     1     -11.238  54.305  51.169  0.00  0.00    +0.000 A 
ATOM      6  C   UNL     1      -8.926  53.168  49.838  0.00  0.00    +0.000 C 
ATOM      7  C   UNL     1     -11.088  54.297  49.788  0.00  0.00    +0.000 A 
ATOM      8  C   UNL     1     -12.396  54.775  51.794  0.00  0.00    +0.000 A 
ATOM      9  N   UNL     1      -9.919  53.853  49.182  0.00  0.00    +0.000 N 
ATOM     10  C   UNL     1     -12.113  54.827  49.007  0.00  0.00    +0.000 A 
ATOM     11  C   UNL     1     -13.413  55.281  50.994  0.00  0.00    +0.000 A 
ATOM     12  C   UNL     1     -13.279  55.297  49.605  0.00  0.00    +0.000 A 
ATOM     13  H   UNL     1      -8.045  52.555  51.501  0.00  0.00    +0.000 HD
ATOM     14  H   UNL     1      -9.794  54.040  48.223  0.00  0.00    +0.000 HD
ENDROOT
BRANCH   6  15
ATOM     15  C   UNL     1      -7.880  52.460  49.008  0.00  0.00    +0.000 A 
ATOM     16  C   UNL     1      -8.310  51.608  47.852  0.00  0.00    +0.000 A 
ATOM     17  C   UNL     1      -6.575  52.605  49.287  0.00  0.00    +0.000 A 
ATOM     18  O   UNL     1      -9.504  51.592  47.544  0.00  0.00    +0.000 OA
ATOM     19  N   UNL     1      -7.347  50.883  47.180  0.00  0.00    +0.000 N 
ATOM     20  C   UNL     1      -5.576  51.847  48.530  0.00  0.00    +0.000 A 
ATOM     21  C   UNL     1      -5.973  50.973  47.516  0.00  0.00    +0.000 A 
ATOM     22  C   UNL     1      -4.212  51.931  48.834  0.00  0.00    +0.000 A 
ATOM     23  N   UNL     1      -5.092  50.204  46.832  0.00  0.00    +0.000 NA
ATOM     24  C   UNL     1      -3.300  51.144  48.145  0.00  0.00    +0.000 A 
ATOM     25  C   UNL     1      -3.785  50.302  47.164  0.00  0.00    +0.000 A 
BRANCH  17  26
ATOM     26  O   UNL     1      -6.063  53.411  50.288  0.00  0.00    +0.000 OA
ATOM     27  H   UNL     1      -5.173  53.703  50.245  0.00  0.00    +0.000 HD
ENDBRANCH  17  26
BRANCH  19  28
ATOM     28  C   UNL     1      -7.747  49.958  46.112  0.00  0.00    +0.000 C 
BRANCH  28  29
ATOM     29  C   UNL     1      -7.825  50.660  44.749  0.00  0.00    +0.000 C 
BRANCH  29  30
ATOM     30  C   UNL     1      -9.196  50.556  44.051  0.00  0.00    +0.000 C 
ATOM     31  C   UNL     1     -10.138  49.567  44.738  0.00  0.00    +0.000 C 
ATOM     32  C   UNL     1      -9.855  51.940  44.011  0.00  0.00    +0.000 C 
ENDBRANCH  29  30
ENDBRANCH  28  29
ENDBRANCH  19  28
ENDBRANCH   6  15
BRANCH  11  33
ATOM     33  N   UNL     1     -14.590  55.827  51.550  0.00  0.00    +0.000 N 
ATOM     34  H   UNL     1     -15.459  55.391  51.393  0.00  0.00    +0.000 HD
BRANCH  33  35
ATOM     35  S   UNL     1     -14.501  57.224  52.482  0.00  0.00    +0.000 S 
ATOM     36  O   UNL     1     -15.770  57.324  53.172  0.00  0.00    +0.000 OA
ATOM     37  O   UNL     1     -13.251  57.227  53.209  0.00  0.00    +0.000 OA
BRANCH  35  38
ATOM     38  C   UNL     1     -14.442  58.512  51.257  0.00  0.00    +0.000 A 
ATOM     39  C   UNL     1     -15.539  59.356  51.066  0.00  0.00    +0.000 A 
ATOM     40  C   UNL     1     -13.278  58.671  50.495  0.00  0.00    +0.000 A 
ATOM     41  C   UNL     1     -15.479  60.344  50.081  0.00  0.00    +0.000 A 
ATOM     42  C   UNL     1     -13.232  59.650  49.503  0.00  0.00    +0.000 A 
ATOM     43  C   UNL     1     -14.331  60.483  49.296  0.00  0.00    +0.000 A 
ENDBRANCH  35  38
ENDBRANCH  33  35
ENDBRANCH  11  33
TORSDOF 8
ENDMDL
MODEL 9
REMARK VINA RESULT:      -6.9      2.640      9.615
REMARK  Name = 353224
REMARK  10 active torsions:
REMARK  status: ('A' for Active; 'I' for Inactive)
REMARK    1  A    between atoms: C_6  and  C_10
REMARK    2  A    between atoms: C_12  and  N_16
REMARK    3  A    between atoms: C_14  and  O_19
REMARK    4  A    between atoms: N_16  and  S_21
REMARK    5  A    between atoms: N_18  and  C_23
REMARK    6  A    between atoms: S_21  and  C_27
REMARK    7  A    between atoms: C_23  and  C_29
REMARK    8  A    between atoms: C_29  and  C_34
REMARK    9  A    between atoms: C_34  and  C_37
REMARK   10  A    between atoms: C_34  and  C_38
REMARK                            x       y       z     vdW  Elec       q    Type
REMARK                         _______ _______ _______ _____ _____    ______ ____
ROOT
ATOM      1  S   UNL     1      -9.063  52.870  53.046  0.00  0.00    +0.000 S 
ATOM      2  O   UNL     1      -9.816  52.007  53.935  0.00  0.00    +0.000 OA
ATOM      3  O   UNL     1      -8.001  53.713  53.559  0.00  0.00    +0.000 OA
ATOM      4  N   UNL     1     -10.124  53.817  52.271  0.00  0.00    +0.000 N 
ATOM      5  C   UNL     1      -8.308  51.816  51.863  0.00  0.00    +0.000 A 
ATOM      6  C   UNL     1     -10.400  53.636  51.013  0.00  0.00    +0.000 C 
ATOM      7  C   UNL     1      -8.807  51.843  50.567  0.00  0.00    +0.000 A 
ATOM      8  C   UNL     1      -7.240  50.997  52.237  0.00  0.00    +0.000 A 
ATOM      9  N   UNL     1      -9.889  52.642  50.215  0.00  0.00    +0.000 N 
ATOM     10  C   UNL     1      -8.249  50.981  49.623  0.00  0.00    +0.000 A 
ATOM     11  C   UNL     1      -6.687  50.160  51.276  0.00  0.00    +0.000 A 
ATOM     12  C   UNL     1      -7.180  50.159  49.971  0.00  0.00    +0.000 A 
ATOM     13  H   UNL     1     -10.568  54.546  52.762  0.00  0.00    +0.000 HD
ATOM     14  H   UNL     1     -10.315  52.486  49.341  0.00  0.00    +0.000 HD
ENDROOT
BRANCH   6  15
ATOM     15  C   UNL     1     -11.344  54.636  50.388  0.00  0.00    +0.000 A 
ATOM     16  C   UNL     1     -12.392  55.291  51.237  0.00  0.00    +0.000 A 
ATOM     17  C   UNL     1     -11.238  54.955  49.087  0.00  0.00    +0.000 A 
ATOM     18  O   UNL     1     -12.387  55.074  52.450  0.00  0.00    +0.000 OA
ATOM     19  N   UNL     1     -13.312  56.115  50.620  0.00  0.00    +0.000 N 
ATOM     20  C   UNL     1     -12.212  55.860  48.473  0.00  0.00    +0.000 A 
ATOM     21  C   UNL     1     -13.252  56.398  49.233  0.00  0.00    +0.000 A 
ATOM     22  C   UNL     1     -12.163  56.165  47.108  0.00  0.00    +0.000 A 
ATOM     23  N   UNL     1     -14.212  57.188  48.696  0.00  0.00    +0.000 NA
ATOM     24  C   UNL     1     -13.145  56.969  46.544  0.00  0.00    +0.000 A 
ATOM     25  C   UNL     1     -14.141  57.449  47.371  0.00  0.00    +0.000 A 
BRANCH  17  26
ATOM     26  O   UNL     1     -10.274  54.460  48.227  0.00  0.00    +0.000 OA
ATOM     27  H   UNL     1     -10.382  54.552  47.301  0.00  0.00    +0.000 HD
ENDBRANCH  17  26
BRANCH  19  28
ATOM     28  C   UNL     1     -14.414  56.687  51.405  0.00  0.00    +0.000 C 
BRANCH  28  29
ATOM     29  C   UNL     1     -13.906  57.678  52.462  0.00  0.00    +0.000 C 
BRANCH  29  30
ATOM     30  C   UNL     1     -14.488  59.100  52.340  0.00  0.00    +0.000 C 
ATOM     31  C   UNL     1     -15.126  59.366  50.976  0.00  0.00    +0.000 C 
ATOM     32  C   UNL     1     -15.534  59.319  53.440  0.00  0.00    +0.000 C 
ENDBRANCH  29  30
ENDBRANCH  28  29
ENDBRANCH  19  28
ENDBRANCH   6  15
BRANCH  11  33
ATOM     33  N   UNL     1      -5.644  49.263  51.587  0.00  0.00    +0.000 N 
ATOM     34  H   UNL     1      -5.851  48.359  51.920  0.00  0.00    +0.000 HD
BRANCH  33  35
ATOM     35  S   UNL     1      -4.044  49.743  51.387  0.00  0.00    +0.000 S 
ATOM     36  O   UNL     1      -3.300  49.107  52.455  0.00  0.00    +0.000 OA
ATOM     37  O   UNL     1      -3.668  49.564  50.003  0.00  0.00    +0.000 OA
BRANCH  35  38
ATOM     38  C   UNL     1      -4.110  51.487  51.731  0.00  0.00    +0.000 A 
ATOM     39  C   UNL     1      -3.997  51.953  53.043  0.00  0.00    +0.000 A 
ATOM     40  C   UNL     1      -4.270  52.383  50.666  0.00  0.00    +0.000 A 
ATOM     41  C   UNL     1      -4.077  53.325  53.290  0.00  0.00    +0.000 A 
ATOM     42  C   UNL     1      -4.365  53.749  50.923  0.00  0.00    +0.000 A 
ATOM     43  C   UNL     1      -4.270  54.219  52.233  0.00  0.00    +0.000 A 
ENDBRANCH  35  38
ENDBRANCH  33  35
ENDBRANCH  11  33
TORSDOF 8
ENDMDL
