MODEL 1
REMARK VINA RESULT:      -8.2      0.000      0.000
REMARK  Name = 352769
REMARK  10 active torsions:
REMARK  status: ('A' for Active; 'I' for Inactive)
REMARK    1  A    between atoms: C_6  and  C_10
REMARK    2  A    between atoms: C_12  and  O_16
REMARK    3  A    between atoms: C_14  and  O_19
REMARK    4  A    between atoms: O_16  and  C_21
REMARK    5  A    between atoms: N_18  and  C_23
REMARK    6  A    between atoms: C_21  and  C_25
REMARK    7  A    between atoms: C_23  and  C_27
REMARK    8  A    between atoms: C_27  and  C_32
REMARK    9  A    between atoms: C_32  and  C_33
REMARK   10  A    between atoms: C_32  and  C_34
REMARK                            x       y       z     vdW  Elec       q    Type
REMARK                         _______ _______ _______ _____ _____    ______ ____
ROOT
ATOM      1  S   UNL     1     -11.690  55.110  49.543  0.00  0.00    +0.000 S 
ATOM      2  O   UNL     1     -12.523  54.046  49.016  0.00  0.00    +0.000 OA
ATOM      3  O   UNL     1     -10.966  55.987  48.644  0.00  0.00    +0.000 OA
ATOM      4  N   UNL     1     -10.626  54.446  50.561  0.00  0.00    +0.000 N 
ATOM      5  C   UNL     1     -12.756  56.147  50.471  0.00  0.00    +0.000 A 
ATOM      6  C   UNL     1     -10.731  54.613  51.846  0.00  0.00    +0.000 C 
ATOM      7  C   UNL     1     -12.631  56.136  51.851  0.00  0.00    +0.000 A 
ATOM      8  C   UNL     1     -13.681  56.954  49.808  0.00  0.00    +0.000 A 
ATOM      9  N   UNL     1     -11.726  55.302  52.493  0.00  0.00    +0.000 N 
ATOM     10  C   UNL     1     -13.496  56.936  52.599  0.00  0.00    +0.000 A 
ATOM     11  C   UNL     1     -14.535  57.744  50.569  0.00  0.00    +0.000 A 
ATOM     12  C   UNL     1     -14.430  57.744  51.961  0.00  0.00    +0.000 A 
ATOM     13  H   UNL     1      -9.886  53.906  50.201  0.00  0.00    +0.000 HD
ATOM     14  H   UNL     1     -11.804  55.198  53.469  0.00  0.00    +0.000 HD
ENDROOT
BRANCH   6  15
ATOM     15  C   UNL     1      -9.632  54.013  52.686  0.00  0.00    +0.000 A 
ATOM     16  C   UNL     1      -8.256  54.602  52.626  0.00  0.00    +0.000 A 
ATOM     17  C   UNL     1      -9.890  52.978  53.502  0.00  0.00    +0.000 A 
ATOM     18  O   UNL     1      -8.081  55.626  51.960  0.00  0.00    +0.000 OA
ATOM     19  N   UNL     1      -7.248  53.980  53.329  0.00  0.00    +0.000 N 
ATOM     20  C   UNL     1      -8.799  52.349  54.246  0.00  0.00    +0.000 A 
ATOM     21  C   UNL     1      -7.493  52.835  54.131  0.00  0.00    +0.000 A 
ATOM     22  C   UNL     1      -9.017  51.218  55.041  0.00  0.00    +0.000 A 
ATOM     23  N   UNL     1      -6.444  52.249  54.754  0.00  0.00    +0.000 NA
ATOM     24  C   UNL     1      -7.947  50.603  55.673  0.00  0.00    +0.000 A 
ATOM     25  C   UNL     1      -6.691  51.151  55.499  0.00  0.00    +0.000 A 
BRANCH  17  26
ATOM     26  O   UNL     1     -11.137  52.407  53.688  0.00  0.00    +0.000 OA
ATOM     27  H   UNL     1     -11.372  51.631  53.218  0.00  0.00    +0.000 HD
ENDBRANCH  17  26
BRANCH  19  28
ATOM     28  C   UNL     1      -5.872  54.484  53.226  0.00  0.00    +0.000 C 
BRANCH  28  29
ATOM     29  C   UNL     1      -5.230  54.127  51.878  0.00  0.00    +0.000 C 
BRANCH  29  30
ATOM     30  C   UNL     1      -3.912  53.332  51.977  0.00  0.00    +0.000 C 
ATOM     31  C   UNL     1      -3.300  53.370  53.379  0.00  0.00    +0.000 C 
ATOM     32  C   UNL     1      -4.171  51.876  51.575  0.00  0.00    +0.000 C 
ENDBRANCH  29  30
ENDBRANCH  28  29
ENDBRANCH  19  28
ENDBRANCH   6  15
BRANCH  11  33
ATOM     33  O   UNL     1     -15.494  58.566  50.060  0.00  0.00    +0.000 OA
BRANCH  33  34
ATOM     34  C   UNL     1     -15.346  59.951  50.378  0.00  0.00    +0.000 C 
BRANCH  34  35
ATOM     35  C   UNL     1     -14.308  60.576  49.455  0.00  0.00    +0.000 C 
ATOM     36  O   UNL     1     -13.124  60.694  49.756  0.00  0.00    +0.000 OA
ATOM     37  N   UNL     1     -14.768  60.987  48.236  0.00  0.00    +0.000 N 
ATOM     38  H   UNL     1     -15.720  60.885  48.010  0.00  0.00    +0.000 HD
ATOM     39  H   UNL     1     -14.146  61.384  47.584  0.00  0.00    +0.000 HD
ENDBRANCH  34  35
ENDBRANCH  33  34
ENDBRANCH  11  33
TORSDOF 8
ENDMDL
MODEL 2
REMARK VINA RESULT:      -7.5      1.285      3.198
REMARK  Name = 352769
REMARK  10 active torsions:
REMARK  status: ('A' for Active; 'I' for Inactive)
REMARK    1  A    between atoms: C_6  and  C_10
REMARK    2  A    between atoms: C_12  and  O_16
REMARK    3  A    between atoms: C_14  and  O_19
REMARK    4  A    between atoms: O_16  and  C_21
REMARK    5  A    between atoms: N_18  and  C_23
REMARK    6  A    between atoms: C_21  and  C_25
REMARK    7  A    between atoms: C_23  and  C_27
REMARK    8  A    between atoms: C_27  and  C_32
REMARK    9  A    between atoms: C_32  and  C_33
REMARK   10  A    between atoms: C_32  and  C_34
REMARK                            x       y       z     vdW  Elec       q    Type
REMARK                         _______ _______ _______ _____ _____    ______ ____
ROOT
ATOM      1  S   UNL     1     -11.695  55.070  48.832  0.00  0.00    +0.000 S 
ATOM      2  O   UNL     1     -12.609  54.038  48.384  0.00  0.00    +0.000 OA
ATOM      3  O   UNL     1     -11.147  56.024  47.888  0.00  0.00    +0.000 OA
ATOM      4  N   UNL     1     -10.462  54.346  49.584  0.00  0.00    +0.000 N 
ATOM      5  C   UNL     1     -12.573  56.016  50.017  0.00  0.00    +0.000 A 
ATOM      6  C   UNL     1     -10.330  54.412  50.876  0.00  0.00    +0.000 C 
ATOM      7  C   UNL     1     -12.198  55.901  51.346  0.00  0.00    +0.000 A 
ATOM      8  C   UNL     1     -13.604  56.859  49.599  0.00  0.00    +0.000 A 
ATOM      9  N   UNL     1     -11.191  55.034  51.746  0.00  0.00    +0.000 N 
ATOM     10  C   UNL     1     -12.912  56.629  52.300  0.00  0.00    +0.000 A 
ATOM     11  C   UNL     1     -14.305  57.575  50.562  0.00  0.00    +0.000 A 
ATOM     12  C   UNL     1     -13.947  57.470  51.907  0.00  0.00    +0.000 A 
ATOM     13  H   UNL     1      -9.799  53.845  49.054  0.00  0.00    +0.000 HD
ATOM     14  H   UNL     1     -11.088  54.854  52.708  0.00  0.00    +0.000 HD
ENDROOT
BRANCH   6  15
ATOM     15  C   UNL     1      -9.096  53.765  51.452  0.00  0.00    +0.000 A 
ATOM     16  C   UNL     1      -9.058  52.278  51.623  0.00  0.00    +0.000 A 
ATOM     17  C   UNL     1      -8.030  54.513  51.784  0.00  0.00    +0.000 A 
ATOM     18  O   UNL     1     -10.004  51.610  51.196  0.00  0.00    +0.000 OA
ATOM     19  N   UNL     1      -7.959  51.719  52.238  0.00  0.00    +0.000 N 
ATOM     20  C   UNL     1      -6.873  53.885  52.422  0.00  0.00    +0.000 A 
ATOM     21  C   UNL     1      -6.861  52.509  52.667  0.00  0.00    +0.000 A 
ATOM     22  C   UNL     1      -5.781  54.645  52.856  0.00  0.00    +0.000 A 
ATOM     23  N   UNL     1      -5.838  51.895  53.307  0.00  0.00    +0.000 NA
ATOM     24  C   UNL     1      -4.734  54.028  53.525  0.00  0.00    +0.000 A 
ATOM     25  C   UNL     1      -4.809  52.663  53.725  0.00  0.00    +0.000 A 
BRANCH  17  26
ATOM     26  O   UNL     1      -7.933  55.881  51.601  0.00  0.00    +0.000 OA
ATOM     27  H   UNL     1      -8.187  56.465  52.288  0.00  0.00    +0.000 HD
ENDBRANCH  17  26
BRANCH  19  28
ATOM     28  C   UNL     1      -7.926  50.273  52.494  0.00  0.00    +0.000 C 
BRANCH  28  29
ATOM     29  C   UNL     1      -8.870  49.871  53.636  0.00  0.00    +0.000 C 
BRANCH  29  30
ATOM     30  C   UNL     1      -8.828  50.798  54.868  0.00  0.00    +0.000 C 
ATOM     31  C   UNL     1     -10.105  51.622  55.034  0.00  0.00    +0.000 C 
ATOM     32  C   UNL     1      -8.601  49.952  56.127  0.00  0.00    +0.000 C 
ENDBRANCH  29  30
ENDBRANCH  28  29
ENDBRANCH  19  28
ENDBRANCH   6  15
BRANCH  11  33
ATOM     33  O   UNL     1     -15.341  58.420  50.303  0.00  0.00    +0.000 OA
BRANCH  33  34
ATOM     34  C   UNL     1     -15.113  59.791  50.635  0.00  0.00    +0.000 C 
BRANCH  34  35
ATOM     35  C   UNL     1     -14.138  60.400  49.635  0.00  0.00    +0.000 C 
ATOM     36  O   UNL     1     -12.939  60.531  49.860  0.00  0.00    +0.000 OA
ATOM     37  N   UNL     1     -14.675  60.780  48.438  0.00  0.00    +0.000 N 
ATOM     38  H   UNL     1     -15.639  60.668  48.274  0.00  0.00    +0.000 HD
ATOM     39  H   UNL     1     -14.098  61.166  47.740  0.00  0.00    +0.000 HD
ENDBRANCH  34  35
ENDBRANCH  33  34
ENDBRANCH  11  33
TORSDOF 8
ENDMDL
MODEL 3
REMARK VINA RESULT:      -7.3      4.542      6.132
REMARK  Name = 352769
REMARK  10 active torsions:
REMARK  status: ('A' for Active; 'I' for Inactive)
REMARK    1  A    between atoms: C_6  and  C_10
REMARK    2  A    between atoms: C_12  and  O_16
REMARK    3  A    between atoms: C_14  and  O_19
REMARK    4  A    between atoms: O_16  and  C_21
REMARK    5  A    between atoms: N_18  and  C_23
REMARK    6  A    between atoms: C_21  and  C_25
REMARK    7  A    between atoms: C_23  and  C_27
REMARK    8  A    between atoms: C_27  and  C_32
REMARK    9  A    between atoms: C_32  and  C_33
REMARK   10  A    between atoms: C_32  and  C_34
REMARK                            x       y       z     vdW  Elec       q    Type
REMARK                         _______ _______ _______ _____ _____    ______ ____
ROOT
ATOM      1  S   UNL     1     -11.647  54.856  50.698  0.00  0.00    +0.000 S 
ATOM      2  O   UNL     1     -10.696  55.545  51.550  0.00  0.00    +0.000 OA
ATOM      3  O   UNL     1     -12.571  53.892  51.261  0.00  0.00    +0.000 OA
ATOM      4  N   UNL     1     -10.817  54.125  49.520  0.00  0.00    +0.000 N 
ATOM      5  C   UNL     1     -12.639  56.104  49.969  0.00  0.00    +0.000 A 
ATOM      6  C   UNL     1     -10.851  54.569  48.299  0.00  0.00    +0.000 C 
ATOM      7  C   UNL     1     -12.473  56.357  48.617  0.00  0.00    +0.000 A 
ATOM      8  C   UNL     1     -13.565  56.793  50.753  0.00  0.00    +0.000 A 
ATOM      9  N   UNL     1     -11.524  55.683  47.861  0.00  0.00    +0.000 N 
ATOM     10  C   UNL     1     -13.238  57.369  48.035  0.00  0.00    +0.000 A 
ATOM     11  C   UNL     1     -14.318  57.798  50.157  0.00  0.00    +0.000 A 
ATOM     12  C   UNL     1     -14.163  58.073  48.798  0.00  0.00    +0.000 A 
ATOM     13  H   UNL     1     -10.275  53.331  49.732  0.00  0.00    +0.000 HD
ATOM     14  H   UNL     1     -11.320  56.024  46.961  0.00  0.00    +0.000 HD
ENDROOT
BRANCH   6  15
ATOM     15  C   UNL     1     -10.101  53.755  47.274  0.00  0.00    +0.000 A 
ATOM     16  C   UNL     1      -8.751  53.205  47.618  0.00  0.00    +0.000 A 
ATOM     17  C   UNL     1     -10.650  53.502  46.075  0.00  0.00    +0.000 A 
ATOM     18  O   UNL     1      -8.330  53.352  48.769  0.00  0.00    +0.000 OA
ATOM     19  N   UNL     1      -8.045  52.545  46.637  0.00  0.00    +0.000 N 
ATOM     20  C   UNL     1      -9.877  52.786  45.059  0.00  0.00    +0.000 A 
ATOM     21  C   UNL     1      -8.582  52.343  45.339  0.00  0.00    +0.000 A 
ATOM     22  C   UNL     1     -10.385  52.578  43.772  0.00  0.00    +0.000 A 
ATOM     23  N   UNL     1      -7.809  51.729  44.411  0.00  0.00    +0.000 NA
ATOM     24  C   UNL     1      -9.598  51.962  42.811  0.00  0.00    +0.000 A 
ATOM     25  C   UNL     1      -8.328  51.560  43.176  0.00  0.00    +0.000 A 
BRANCH  17  26
ATOM     26  O   UNL     1     -11.915  53.900  45.682  0.00  0.00    +0.000 OA
ATOM     27  H   UNL     1     -12.519  53.271  45.337  0.00  0.00    +0.000 HD
ENDBRANCH  17  26
BRANCH  19  28
ATOM     28  C   UNL     1      -6.686  52.065  46.917  0.00  0.00    +0.000 C 
BRANCH  28  29
ATOM     29  C   UNL     1      -5.677  53.219  47.008  0.00  0.00    +0.000 C 
BRANCH  29  30
ATOM     30  C   UNL     1      -4.764  53.186  48.251  0.00  0.00    +0.000 C 
ATOM     31  C   UNL     1      -4.891  54.442  49.114  0.00  0.00    +0.000 C 
ATOM     32  C   UNL     1      -5.106  51.952  49.094  0.00  0.00    +0.000 C 
ENDBRANCH  29  30
ENDBRANCH  28  29
ENDBRANCH  19  28
ENDBRANCH   6  15
BRANCH  11  33
ATOM     33  O   UNL     1     -15.244  58.562  50.801  0.00  0.00    +0.000 OA
BRANCH  33  34
ATOM     34  C   UNL     1     -14.744  59.355  51.878  0.00  0.00    +0.000 C 
BRANCH  34  35
ATOM     35  C   UNL     1     -15.316  58.844  53.194  0.00  0.00    +0.000 C 
ATOM     36  O   UNL     1     -15.397  57.652  53.475  0.00  0.00    +0.000 OA
ATOM     37  N   UNL     1     -15.722  59.804  54.078  0.00  0.00    +0.000 N 
ATOM     38  H   UNL     1     -15.650  60.755  53.838  0.00  0.00    +0.000 HD
ATOM     39  H   UNL     1     -16.087  59.542  54.955  0.00  0.00    +0.000 HD
ENDBRANCH  34  35
ENDBRANCH  33  34
ENDBRANCH  11  33
TORSDOF 8
ENDMDL
MODEL 4
REMARK VINA RESULT:      -7.1      2.338      3.033
REMARK  Name = 352769
REMARK  10 active torsions:
REMARK  status: ('A' for Active; 'I' for Inactive)
REMARK    1  A    between atoms: C_6  and  C_10
REMARK    2  A    between atoms: C_12  and  O_16
REMARK    3  A    between atoms: C_14  and  O_19
REMARK    4  A    between atoms: O_16  and  C_21
REMARK    5  A    between atoms: N_18  and  C_23
REMARK    6  A    between atoms: C_21  and  C_25
REMARK    7  A    between atoms: C_23  and  C_27
REMARK    8  A    between atoms: C_27  and  C_32
REMARK    9  A    between atoms: C_32  and  C_33
REMARK   10  A    between atoms: C_32  and  C_34
REMARK                            x       y       z     vdW  Elec       q    Type
REMARK                         _______ _______ _______ _____ _____    ______ ____
ROOT
ATOM      1  S   UNL     1     -11.480  54.643  48.308  0.00  0.00    +0.000 S 
ATOM      2  O   UNL     1     -12.484  53.674  47.914  0.00  0.00    +0.000 OA
ATOM      3  O   UNL     1     -11.085  55.700  47.398  0.00  0.00    +0.000 OA
ATOM      4  N   UNL     1     -10.151  53.831  48.739  0.00  0.00    +0.000 N 
ATOM      5  C   UNL     1     -12.112  55.446  49.732  0.00  0.00    +0.000 A 
ATOM      6  C   UNL     1      -9.792  53.745  49.986  0.00  0.00    +0.000 C 
ATOM      7  C   UNL     1     -11.511  55.175  50.950  0.00  0.00    +0.000 A 
ATOM      8  C   UNL     1     -13.180  56.336  49.604  0.00  0.00    +0.000 A 
ATOM      9  N   UNL     1     -10.470  54.263  51.061  0.00  0.00    +0.000 N 
ATOM     10  C   UNL     1     -12.027  55.787  52.093  0.00  0.00    +0.000 A 
ATOM     11  C   UNL     1     -13.682  56.936  50.753  0.00  0.00    +0.000 A 
ATOM     12  C   UNL     1     -13.094  56.673  51.991  0.00  0.00    +0.000 A 
ATOM     13  H   UNL     1      -9.606  53.394  48.047  0.00  0.00    +0.000 HD
ATOM     14  H   UNL     1     -10.204  53.971  51.962  0.00  0.00    +0.000 HD
ENDROOT
BRANCH   6  15
ATOM     15  C   UNL     1      -8.492  53.030  50.255  0.00  0.00    +0.000 A 
ATOM     16  C   UNL     1      -7.329  53.801  50.800  0.00  0.00    +0.000 A 
ATOM     17  C   UNL     1      -8.385  51.710  50.033  0.00  0.00    +0.000 A 
ATOM     18  O   UNL     1      -7.498  54.985  51.107  0.00  0.00    +0.000 OA
ATOM     19  N   UNL     1      -6.125  53.149  50.950  0.00  0.00    +0.000 N 
ATOM     20  C   UNL     1      -7.094  51.045  50.215  0.00  0.00    +0.000 A 
ATOM     21  C   UNL     1      -5.978  51.772  50.640  0.00  0.00    +0.000 A 
ATOM     22  C   UNL     1      -6.926  49.689  49.914  0.00  0.00    +0.000 A 
ATOM     23  N   UNL     1      -4.752  51.211  50.766  0.00  0.00    +0.000 NA
ATOM     24  C   UNL     1      -5.671  49.108  50.026  0.00  0.00    +0.000 A 
ATOM     25  C   UNL     1      -4.626  49.905  50.451  0.00  0.00    +0.000 A 
BRANCH  17  26
ATOM     26  O   UNL     1      -9.413  50.892  49.600  0.00  0.00    +0.000 OA
ATOM     27  H   UNL     1     -10.297  51.207  49.605  0.00  0.00    +0.000 HD
ENDBRANCH  17  26
BRANCH  19  28
ATOM     28  C   UNL     1      -4.946  53.896  51.405  0.00  0.00    +0.000 C 
BRANCH  28  29
ATOM     29  C   UNL     1      -4.700  53.720  52.911  0.00  0.00    +0.000 C 
BRANCH  29  30
ATOM     30  C   UNL     1      -5.048  54.951  53.773  0.00  0.00    +0.000 C 
ATOM     31  C   UNL     1      -6.140  54.663  54.804  0.00  0.00    +0.000 C 
ATOM     32  C   UNL     1      -3.784  55.434  54.492  0.00  0.00    +0.000 C 
ENDBRANCH  29  30
ENDBRANCH  28  29
ENDBRANCH  19  28
ENDBRANCH   6  15
BRANCH  11  33
ATOM     33  O   UNL     1     -14.727  57.809  50.781  0.00  0.00    +0.000 OA
BRANCH  33  34
ATOM     34  C   UNL     1     -14.400  59.145  51.170  0.00  0.00    +0.000 C 
BRANCH  34  35
ATOM     35  C   UNL     1     -14.083  59.971  49.931  0.00  0.00    +0.000 C 
ATOM     36  O   UNL     1     -14.946  60.427  49.187  0.00  0.00    +0.000 OA
ATOM     37  N   UNL     1     -12.757  60.206  49.697  0.00  0.00    +0.000 N 
ATOM     38  H   UNL     1     -12.078  59.833  50.303  0.00  0.00    +0.000 HD
ATOM     39  H   UNL     1     -12.483  60.747  48.921  0.00  0.00    +0.000 HD
ENDBRANCH  34  35
ENDBRANCH  33  34
ENDBRANCH  11  33
TORSDOF 8
ENDMDL
MODEL 5
REMARK VINA RESULT:      -7.0      4.366      5.677
REMARK  Name = 352769
REMARK  10 active torsions:
REMARK  status: ('A' for Active; 'I' for Inactive)
REMARK    1  A    between atoms: C_6  and  C_10
REMARK    2  A    between atoms: C_12  and  O_16
REMARK    3  A    between atoms: C_14  and  O_19
REMARK    4  A    between atoms: O_16  and  C_21
REMARK    5  A    between atoms: N_18  and  C_23
REMARK    6  A    between atoms: C_21  and  C_25
REMARK    7  A    between atoms: C_23  and  C_27
REMARK    8  A    between atoms: C_27  and  C_32
REMARK    9  A    between atoms: C_32  and  C_33
REMARK   10  A    between atoms: C_32  and  C_34
REMARK                            x       y       z     vdW  Elec       q    Type
REMARK                         _______ _______ _______ _____ _____    ______ ____
ROOT
ATOM      1  S   UNL     1     -11.415  54.634  50.729  0.00  0.00    +0.000 S 
ATOM      2  O   UNL     1     -10.496  55.485  51.461  0.00  0.00    +0.000 OA
ATOM      3  O   UNL     1     -12.325  53.757  51.438  0.00  0.00    +0.000 OA
ATOM      4  N   UNL     1     -10.546  53.734  49.707  0.00  0.00    +0.000 N 
ATOM      5  C   UNL     1     -12.424  55.711  49.782  0.00  0.00    +0.000 A 
ATOM      6  C   UNL     1     -10.570  53.959  48.426  0.00  0.00    +0.000 C 
ATOM      7  C   UNL     1     -12.241  55.730  48.409  0.00  0.00    +0.000 A 
ATOM      8  C   UNL     1     -13.381  56.498  50.423  0.00  0.00    +0.000 A 
ATOM      9  N   UNL     1     -11.262  54.962  47.794  0.00  0.00    +0.000 N 
ATOM     10  C   UNL     1     -13.020  56.606  47.651  0.00  0.00    +0.000 A 
ATOM     11  C   UNL     1     -14.147  57.365  49.653  0.00  0.00    +0.000 A 
ATOM     12  C   UNL     1     -13.976  57.405  48.268  0.00  0.00    +0.000 A 
ATOM     13  H   UNL     1      -9.989  53.003  50.059  0.00  0.00    +0.000 HD
ATOM     14  H   UNL     1     -11.051  55.148  46.851  0.00  0.00    +0.000 HD
ENDROOT
BRANCH   6  15
ATOM     15  C   UNL     1      -9.782  53.002  47.568  0.00  0.00    +0.000 A 
ATOM     16  C   UNL     1      -8.385  52.638  47.966  0.00  0.00    +0.000 A 
ATOM     17  C   UNL     1     -10.337  52.459  46.472  0.00  0.00    +0.000 A 
ATOM     18  O   UNL     1      -7.949  53.058  49.042  0.00  0.00    +0.000 OA
ATOM     19  N   UNL     1      -7.652  51.836  47.119  0.00  0.00    +0.000 N 
ATOM     20  C   UNL     1      -9.535  51.600  45.600  0.00  0.00    +0.000 A 
ATOM     21  C   UNL     1      -8.201  51.323  45.915  0.00  0.00    +0.000 A 
ATOM     22  C   UNL     1     -10.055  51.085  44.408  0.00  0.00    +0.000 A 
ATOM     23  N   UNL     1      -7.405  50.582  45.109  0.00  0.00    +0.000 NA
ATOM     24  C   UNL     1      -9.244  50.336  43.568  0.00  0.00    +0.000 A 
ATOM     25  C   UNL     1      -7.937  50.116  43.959  0.00  0.00    +0.000 A 
BRANCH  17  26
ATOM     26  O   UNL     1     -11.639  52.670  46.055  0.00  0.00    +0.000 OA
ATOM     27  H   UNL     1     -12.120  51.976  45.647  0.00  0.00    +0.000 HD
ENDBRANCH  17  26
BRANCH  19  28
ATOM     28  C   UNL     1      -6.252  51.528  47.440  0.00  0.00    +0.000 C 
BRANCH  28  29
ATOM     29  C   UNL     1      -5.331  52.734  47.211  0.00  0.00    +0.000 C 
BRANCH  29  30
ATOM     30  C   UNL     1      -4.417  53.088  48.403  0.00  0.00    +0.000 C 
ATOM     31  C   UNL     1      -4.777  54.426  49.049  0.00  0.00    +0.000 C 
ATOM     32  C   UNL     1      -4.507  51.975  49.453  0.00  0.00    +0.000 C 
ENDBRANCH  29  30
ENDBRANCH  28  29
ENDBRANCH  19  28
ENDBRANCH   6  15
BRANCH  11  33
ATOM     33  O   UNL     1     -15.104  58.202  50.143  0.00  0.00    +0.000 OA
BRANCH  33  34
ATOM     34  C   UNL     1     -14.619  59.414  50.723  0.00  0.00    +0.000 C 
BRANCH  34  35
ATOM     35  C   UNL     1     -14.159  60.358  49.619  0.00  0.00    +0.000 C 
ATOM     36  O   UNL     1     -14.913  60.809  48.763  0.00  0.00    +0.000 OA
ATOM     37  N   UNL     1     -12.837  60.703  49.646  0.00  0.00    +0.000 N 
ATOM     38  H   UNL     1     -12.246  60.332  50.340  0.00  0.00    +0.000 HD
ATOM     39  H   UNL     1     -12.477  61.322  48.971  0.00  0.00    +0.000 HD
ENDBRANCH  34  35
ENDBRANCH  33  34
ENDBRANCH  11  33
TORSDOF 8
ENDMDL
MODEL 6
REMARK VINA RESULT:      -6.9      2.445      3.361
REMARK  Name = 352769
REMARK  10 active torsions:
REMARK  status: ('A' for Active; 'I' for Inactive)
REMARK    1  A    between atoms: C_6  and  C_10
REMARK    2  A    between atoms: C_12  and  O_16
REMARK    3  A    between atoms: C_14  and  O_19
REMARK    4  A    between atoms: O_16  and  C_21
REMARK    5  A    between atoms: N_18  and  C_23
REMARK    6  A    between atoms: C_21  and  C_25
REMARK    7  A    between atoms: C_23  and  C_27
REMARK    8  A    between atoms: C_27  and  C_32
REMARK    9  A    between atoms: C_32  and  C_33
REMARK   10  A    between atoms: C_32  and  C_34
REMARK                            x       y       z     vdW  Elec       q    Type
REMARK                         _______ _______ _______ _____ _____    ______ ____
ROOT
ATOM      1  S   UNL     1     -10.423  54.695  48.479  0.00  0.00    +0.000 S 
ATOM      2  O   UNL     1     -11.080  53.500  47.985  0.00  0.00    +0.000 OA
ATOM      3  O   UNL     1     -10.143  55.800  47.583  0.00  0.00    +0.000 OA
ATOM      4  N   UNL     1      -9.033  54.244  49.168  0.00  0.00    +0.000 N 
ATOM      5  C   UNL     1     -11.466  55.341  49.730  0.00  0.00    +0.000 A 
ATOM      6  C   UNL     1      -8.884  54.272  50.460  0.00  0.00    +0.000 C 
ATOM      7  C   UNL     1     -11.036  55.249  51.043  0.00  0.00    +0.000 A 
ATOM      8  C   UNL     1     -12.677  55.937  49.377  0.00  0.00    +0.000 A 
ATOM      9  N   UNL     1      -9.842  54.625  51.377  0.00  0.00    +0.000 N 
ATOM     10  C   UNL     1     -11.874  55.735  52.049  0.00  0.00    +0.000 A 
ATOM     11  C   UNL     1     -13.500  56.414  50.390  0.00  0.00    +0.000 A 
ATOM     12  C   UNL     1     -13.089  56.326  51.722  0.00  0.00    +0.000 A 
ATOM     13  H   UNL     1      -8.286  53.944  48.601  0.00  0.00    +0.000 HD
ATOM     14  H   UNL     1      -9.673  54.424  52.326  0.00  0.00    +0.000 HD
ENDROOT
BRANCH   6  15
ATOM     15  C   UNL     1      -7.516  53.906  50.979  0.00  0.00    +0.000 A 
ATOM     16  C   UNL     1      -6.810  52.713  50.413  0.00  0.00    +0.000 A 
ATOM     17  C   UNL     1      -6.925  54.659  51.921  0.00  0.00    +0.000 A 
ATOM     18  O   UNL     1      -7.328  52.116  49.465  0.00  0.00    +0.000 OA
ATOM     19  N   UNL     1      -5.604  52.343  50.967  0.00  0.00    +0.000 N 
ATOM     20  C   UNL     1      -5.637  54.246  52.479  0.00  0.00    +0.000 A 
ATOM     21  C   UNL     1      -5.008  53.085  52.020  0.00  0.00    +0.000 A 
ATOM     22  C   UNL     1      -5.032  54.960  53.519  0.00  0.00    +0.000 A 
ATOM     23  N   UNL     1      -3.846  52.633  52.548  0.00  0.00    +0.000 NA
ATOM     24  C   UNL     1      -3.848  54.499  54.075  0.00  0.00    +0.000 A 
ATOM     25  C   UNL     1      -3.300  53.340  53.560  0.00  0.00    +0.000 A 
BRANCH  17  26
ATOM     26  O   UNL     1      -7.456  55.818  52.459  0.00  0.00    +0.000 OA
ATOM     27  H   UNL     1      -7.829  56.469  51.896  0.00  0.00    +0.000 HD
ENDBRANCH  17  26
BRANCH  19  28
ATOM     28  C   UNL     1      -4.926  51.132  50.490  0.00  0.00    +0.000 C 
BRANCH  28  29
ATOM     29  C   UNL     1      -3.691  51.463  49.639  0.00  0.00    +0.000 C 
BRANCH  29  30
ATOM     30  C   UNL     1      -3.919  51.406  48.115  0.00  0.00    +0.000 C 
ATOM     31  C   UNL     1      -4.993  50.394  47.713  0.00  0.00    +0.000 C 
ATOM     32  C   UNL     1      -4.319  52.798  47.614  0.00  0.00    +0.000 C 
ENDBRANCH  29  30
ENDBRANCH  28  29
ENDBRANCH  19  28
ENDBRANCH   6  15
BRANCH  11  33
ATOM     33  O   UNL     1     -14.713  57.002  50.196  0.00  0.00    +0.000 OA
BRANCH  33  34
ATOM     34  C   UNL     1     -14.830  58.342  50.677  0.00  0.00    +0.000 C 
BRANCH  34  35
ATOM     35  C   UNL     1     -14.085  59.284  49.740  0.00  0.00    +0.000 C 
ATOM     36  O   UNL     1     -13.400  60.223  50.135  0.00  0.00    +0.000 OA
ATOM     37  N   UNL     1     -14.202  59.011  48.406  0.00  0.00    +0.000 N 
ATOM     38  H   UNL     1     -14.755  58.254  48.107  0.00  0.00    +0.000 HD
ATOM     39  H   UNL     1     -13.732  59.571  47.747  0.00  0.00    +0.000 HD
ENDBRANCH  34  35
ENDBRANCH  33  34
ENDBRANCH  11  33
TORSDOF 8
ENDMDL
MODEL 7
REMARK VINA RESULT:      -6.9      4.701      6.264
REMARK  Name = 352769
REMARK  10 active torsions:
REMARK  status: ('A' for Active; 'I' for Inactive)
REMARK    1  A    between atoms: C_6  and  C_10
REMARK    2  A    between atoms: C_12  and  O_16
REMARK    3  A    between atoms: C_14  and  O_19
REMARK    4  A    between atoms: O_16  and  C_21
REMARK    5  A    between atoms: N_18  and  C_23
REMARK    6  A    between atoms: C_21  and  C_25
REMARK    7  A    between atoms: C_23  and  C_27
REMARK    8  A    between atoms: C_27  and  C_32
REMARK    9  A    between atoms: C_32  and  C_33
REMARK   10  A    between atoms: C_32  and  C_34
REMARK                            x       y       z     vdW  Elec       q    Type
REMARK                         _______ _______ _______ _____ _____    ______ ____
ROOT
ATOM      1  S   UNL     1      -9.560  54.841  51.054  0.00  0.00    +0.000 S 
ATOM      2  O   UNL     1      -8.836  56.098  51.035  0.00  0.00    +0.000 OA
ATOM      3  O   UNL     1      -9.473  53.963  52.204  0.00  0.00    +0.000 OA
ATOM      4  N   UNL     1      -9.122  53.999  49.746  0.00  0.00    +0.000 N 
ATOM      5  C   UNL     1     -11.255  55.255  50.892  0.00  0.00    +0.000 A 
ATOM      6  C   UNL     1      -9.937  53.842  48.745  0.00  0.00    +0.000 C 
ATOM      7  C   UNL     1     -11.886  54.948  49.697  0.00  0.00    +0.000 A 
ATOM      8  C   UNL     1     -11.921  55.862  51.957  0.00  0.00    +0.000 A 
ATOM      9  N   UNL     1     -11.198  54.373  48.637  0.00  0.00    +0.000 N 
ATOM     10  C   UNL     1     -13.228  55.301  49.549  0.00  0.00    +0.000 A 
ATOM     11  C   UNL     1     -13.257  56.208  51.792  0.00  0.00    +0.000 A 
ATOM     12  C   UNL     1     -13.911  55.912  50.594  0.00  0.00    +0.000 A 
ATOM     13  H   UNL     1      -8.224  53.599  49.707  0.00  0.00    +0.000 HD
ATOM     14  H   UNL     1     -11.640  54.344  47.759  0.00  0.00    +0.000 HD
ENDROOT
BRANCH   6  15
ATOM     15  C   UNL     1      -9.445  52.969  47.618  0.00  0.00    +0.000 A 
ATOM     16  C   UNL     1      -8.773  51.669  47.936  0.00  0.00    +0.000 A 
ATOM     17  C   UNL     1      -9.631  53.341  46.341  0.00  0.00    +0.000 A 
ATOM     18  O   UNL     1      -8.728  51.301  49.114  0.00  0.00    +0.000 OA
ATOM     19  N   UNL     1      -8.249  50.932  46.897  0.00  0.00    +0.000 N 
ATOM     20  C   UNL     1      -9.072  52.529  45.260  0.00  0.00    +0.000 A 
ATOM     21  C   UNL     1      -8.367  51.356  45.548  0.00  0.00    +0.000 A 
ATOM     22  C   UNL     1      -9.175  52.928  43.923  0.00  0.00    +0.000 A 
ATOM     23  N   UNL     1      -7.784  50.606  44.584  0.00  0.00    +0.000 NA
ATOM     24  C   UNL     1      -8.570  52.174  42.929  0.00  0.00    +0.000 A 
ATOM     25  C   UNL     1      -7.891  51.031  43.307  0.00  0.00    +0.000 A 
BRANCH  17  26
ATOM     26  O   UNL     1     -10.299  54.482  45.936  0.00  0.00    +0.000 OA
ATOM     27  H   UNL     1     -10.187  54.808  45.065  0.00  0.00    +0.000 HD
ENDBRANCH  17  26
BRANCH  19  28
ATOM     28  C   UNL     1      -7.513  49.694  47.182  0.00  0.00    +0.000 C 
BRANCH  28  29
ATOM     29  C   UNL     1      -6.219  49.961  47.963  0.00  0.00    +0.000 C 
BRANCH  29  30
ATOM     30  C   UNL     1      -5.214  50.892  47.254  0.00  0.00    +0.000 C 
ATOM     31  C   UNL     1      -5.085  52.255  47.937  0.00  0.00    +0.000 C 
ATOM     32  C   UNL     1      -3.841  50.212  47.211  0.00  0.00    +0.000 C 
ENDBRANCH  29  30
ENDBRANCH  28  29
ENDBRANCH  19  28
ENDBRANCH   6  15
BRANCH  11  33
ATOM     33  O   UNL     1     -14.025  56.818  52.736  0.00  0.00    +0.000 OA
BRANCH  33  34
ATOM     34  C   UNL     1     -15.243  57.393  52.259  0.00  0.00    +0.000 C 
BRANCH  34  35
ATOM     35  C   UNL     1     -15.153  58.912  52.340  0.00  0.00    +0.000 C 
ATOM     36  O   UNL     1     -14.932  59.626  51.366  0.00  0.00    +0.000 OA
ATOM     37  N   UNL     1     -15.359  59.454  53.577  0.00  0.00    +0.000 N 
ATOM     38  H   UNL     1     -15.536  58.867  54.347  0.00  0.00    +0.000 HD
ATOM     39  H   UNL     1     -15.332  60.430  53.697  0.00  0.00    +0.000 HD
ENDBRANCH  34  35
ENDBRANCH  33  34
ENDBRANCH  11  33
TORSDOF 8
ENDMDL
MODEL 8
REMARK VINA RESULT:      -6.9      3.701      9.290
REMARK  Name = 352769
REMARK  10 active torsions:
REMARK  status: ('A' for Active; 'I' for Inactive)
REMARK    1  A    between atoms: C_6  and  C_10
REMARK    2  A    between atoms: C_12  and  O_16
REMARK    3  A    between atoms: C_14  and  O_19
REMARK    4  A    between atoms: O_16  and  C_21
REMARK    5  A    between atoms: N_18  and  C_23
REMARK    6  A    between atoms: C_21  and  C_25
REMARK    7  A    between atoms: C_23  and  C_27
REMARK    8  A    between atoms: C_27  and  C_32
REMARK    9  A    between atoms: C_32  and  C_33
REMARK   10  A    between atoms: C_32  and  C_34
REMARK                            x       y       z     vdW  Elec       q    Type
REMARK                         _______ _______ _______ _____ _____    ______ ____
ROOT
ATOM      1  S   UNL     1      -9.441  52.932  52.930  0.00  0.00    +0.000 S 
ATOM      2  O   UNL     1      -9.597  51.492  52.844  0.00  0.00    +0.000 OA
ATOM      3  O   UNL     1      -9.724  53.626  54.171  0.00  0.00    +0.000 OA
ATOM      4  N   UNL     1     -10.344  53.597  51.767  0.00  0.00    +0.000 N 
ATOM      5  C   UNL     1      -7.759  53.261  52.568  0.00  0.00    +0.000 A 
ATOM      6  C   UNL     1      -9.797  54.134  50.717  0.00  0.00    +0.000 C 
ATOM      7  C   UNL     1      -7.463  53.871  51.360  0.00  0.00    +0.000 A 
ATOM      8  C   UNL     1      -6.774  52.918  53.496  0.00  0.00    +0.000 A 
ATOM      9  N   UNL     1      -8.454  54.176  50.436  0.00  0.00    +0.000 N 
ATOM     10  C   UNL     1      -6.123  54.110  51.050  0.00  0.00    +0.000 A 
ATOM     11  C   UNL     1      -5.445  53.163  53.170  0.00  0.00    +0.000 A 
ATOM     12  C   UNL     1      -5.125  53.772  51.956  0.00  0.00    +0.000 A 
ATOM     13  H   UNL     1     -11.324  53.594  51.855  0.00  0.00    +0.000 HD
ATOM     14  H   UNL     1      -8.177  54.436  49.528  0.00  0.00    +0.000 HD
ENDROOT
BRANCH   6  15
ATOM     15  C   UNL     1     -10.738  54.794  49.741  0.00  0.00    +0.000 A 
ATOM     16  C   UNL     1     -10.610  54.495  48.279  0.00  0.00    +0.000 A 
ATOM     17  C   UNL     1     -11.701  55.621  50.181  0.00  0.00    +0.000 A 
ATOM     18  O   UNL     1      -9.796  53.638  47.922  0.00  0.00    +0.000 OA
ATOM     19  N   UNL     1     -11.418  55.179  47.398  0.00  0.00    +0.000 N 
ATOM     20  C   UNL     1     -12.551  56.322  49.219  0.00  0.00    +0.000 A 
ATOM     21  C   UNL     1     -12.383  56.118  47.846  0.00  0.00    +0.000 A 
ATOM     22  C   UNL     1     -13.508  57.254  49.637  0.00  0.00    +0.000 A 
ATOM     23  N   UNL     1     -13.107  56.788  46.919  0.00  0.00    +0.000 NA
ATOM     24  C   UNL     1     -14.246  57.956  48.696  0.00  0.00    +0.000 A 
ATOM     25  C   UNL     1     -14.010  57.690  47.361  0.00  0.00    +0.000 A 
BRANCH  17  26
ATOM     26  O   UNL     1     -11.953  55.909  51.511  0.00  0.00    +0.000 OA
ATOM     27  H   UNL     1     -11.298  56.333  52.031  0.00  0.00    +0.000 HD
ENDBRANCH  17  26
BRANCH  19  28
ATOM     28  C   UNL     1     -11.260  54.969  45.954  0.00  0.00    +0.000 C 
BRANCH  28  29
ATOM     29  C   UNL     1     -11.843  53.621  45.503  0.00  0.00    +0.000 C 
BRANCH  29  30
ATOM     30  C   UNL     1     -11.072  52.932  44.359  0.00  0.00    +0.000 C 
ATOM     31  C   UNL     1      -9.559  53.131  44.458  0.00  0.00    +0.000 C 
ATOM     32  C   UNL     1     -11.390  51.432  44.371  0.00  0.00    +0.000 C 
ENDBRANCH  29  30
ENDBRANCH  28  29
ENDBRANCH  19  28
ENDBRANCH   6  15
BRANCH  11  33
ATOM     33  O   UNL     1      -4.382  52.867  53.969  0.00  0.00    +0.000 OA
BRANCH  33  34
ATOM     34  C   UNL     1      -3.302  52.188  53.325  0.00  0.00    +0.000 C 
BRANCH  34  35
ATOM     35  C   UNL     1      -3.487  50.683  53.471  0.00  0.00    +0.000 C 
ATOM     36  O   UNL     1      -3.300  50.082  54.525  0.00  0.00    +0.000 OA
ATOM     37  N   UNL     1      -3.906  50.025  52.350  0.00  0.00    +0.000 N 
ATOM     38  H   UNL     1      -4.053  50.522  51.514  0.00  0.00    +0.000 HD
ATOM     39  H   UNL     1      -4.062  49.053  52.380  0.00  0.00    +0.000 HD
ENDBRANCH  34  35
ENDBRANCH  33  34
ENDBRANCH  11  33
TORSDOF 8
ENDMDL
MODEL 9
REMARK VINA RESULT:      -6.9      3.236      9.672
REMARK  Name = 352769
REMARK  10 active torsions:
REMARK  status: ('A' for Active; 'I' for Inactive)
REMARK    1  A    between atoms: C_6  and  C_10
REMARK    2  A    between atoms: C_12  and  O_16
REMARK    3  A    between atoms: C_14  and  O_19
REMARK    4  A    between atoms: O_16  and  C_21
REMARK    5  A    between atoms: N_18  and  C_23
REMARK    6  A    between atoms: C_21  and  C_25
REMARK    7  A    between atoms: C_23  and  C_27
REMARK    8  A    between atoms: C_27  and  C_32
REMARK    9  A    between atoms: C_32  and  C_33
REMARK   10  A    between atoms: C_32  and  C_34
REMARK                            x       y       z     vdW  Elec       q    Type
REMARK                         _______ _______ _______ _____ _____    ______ ____
ROOT
ATOM      1  S   UNL     1      -8.395  51.542  50.823  0.00  0.00    +0.000 S 
ATOM      2  O   UNL     1      -8.187  50.620  49.723  0.00  0.00    +0.000 OA
ATOM      3  O   UNL     1      -8.661  51.043  52.158  0.00  0.00    +0.000 OA
ATOM      4  N   UNL     1      -9.599  52.538  50.412  0.00  0.00    +0.000 N 
ATOM      5  C   UNL     1      -6.926  52.489  50.948  0.00  0.00    +0.000 A 
ATOM      6  C   UNL     1      -9.369  53.782  50.111  0.00  0.00    +0.000 C 
ATOM      7  C   UNL     1      -6.978  53.820  50.568  0.00  0.00    +0.000 A 
ATOM      8  C   UNL     1      -5.761  51.893  51.432  0.00  0.00    +0.000 A 
ATOM      9  N   UNL     1      -8.138  54.388  50.059  0.00  0.00    +0.000 N 
ATOM     10  C   UNL     1      -5.805  54.574  50.637  0.00  0.00    +0.000 A 
ATOM     11  C   UNL     1      -4.602  52.657  51.493  0.00  0.00    +0.000 A 
ATOM     12  C   UNL     1      -4.631  53.999  51.110  0.00  0.00    +0.000 A 
ATOM     13  H   UNL     1     -10.522  52.197  50.388  0.00  0.00    +0.000 HD
ATOM     14  H   UNL     1      -8.075  55.274  49.637  0.00  0.00    +0.000 HD
ENDROOT
BRANCH   6  15
ATOM     15  C   UNL     1     -10.582  54.632  49.824  0.00  0.00    +0.000 A 
ATOM     16  C   UNL     1     -11.578  54.883  50.913  0.00  0.00    +0.000 A 
ATOM     17  C   UNL     1     -10.753  55.181  48.610  0.00  0.00    +0.000 A 
ATOM     18  O   UNL     1     -11.329  54.465  52.048  0.00  0.00    +0.000 OA
ATOM     19  N   UNL     1     -12.723  55.582  50.603  0.00  0.00    +0.000 N 
ATOM     20  C   UNL     1     -11.975  55.930  48.317  0.00  0.00    +0.000 A 
ATOM     21  C   UNL     1     -12.954  56.097  49.301  0.00  0.00    +0.000 A 
ATOM     22  C   UNL     1     -12.224  56.445  47.040  0.00  0.00    +0.000 A 
ATOM     23  N   UNL     1     -14.125  56.732  49.058  0.00  0.00    +0.000 NA
ATOM     24  C   UNL     1     -13.426  57.085  46.777  0.00  0.00    +0.000 A 
ATOM     25  C   UNL     1     -14.336  57.202  47.810  0.00  0.00    +0.000 A 
BRANCH  17  26
ATOM     26  O   UNL     1      -9.861  55.072  47.558  0.00  0.00    +0.000 OA
ATOM     27  H   UNL     1      -9.012  54.700  47.698  0.00  0.00    +0.000 HD
ENDBRANCH  17  26
BRANCH  19  28
ATOM     28  C   UNL     1     -13.757  55.775  51.628  0.00  0.00    +0.000 C 
BRANCH  28  29
ATOM     29  C   UNL     1     -13.491  57.021  52.485  0.00  0.00    +0.000 C 
BRANCH  29  30
ATOM     30  C   UNL     1     -14.755  57.770  52.952  0.00  0.00    +0.000 C 
ATOM     31  C   UNL     1     -14.934  59.122  52.258  0.00  0.00    +0.000 C 
ATOM     32  C   UNL     1     -15.986  56.895  52.685  0.00  0.00    +0.000 C 
ENDBRANCH  29  30
ENDBRANCH  28  29
ENDBRANCH  19  28
ENDBRANCH   6  15
BRANCH  11  33
ATOM     33  O   UNL     1      -3.393  52.204  51.927  0.00  0.00    +0.000 OA
BRANCH  33  34
ATOM     34  C   UNL     1      -3.301  51.950  53.330  0.00  0.00    +0.000 C 
BRANCH  34  35
ATOM     35  C   UNL     1      -3.317  50.447  53.576  0.00  0.00    +0.000 C 
ATOM     36  O   UNL     1      -3.354  49.949  54.697  0.00  0.00    +0.000 OA
ATOM     37  N   UNL     1      -3.314  49.662  52.457  0.00  0.00    +0.000 N 
ATOM     38  H   UNL     1      -3.285  50.077  51.566  0.00  0.00    +0.000 HD
ATOM     39  H   UNL     1      -3.340  48.682  52.544  0.00  0.00    +0.000 HD
ENDBRANCH  34  35
ENDBRANCH  33  34
ENDBRANCH  11  33
TORSDOF 8
ENDMDL
