MODEL 1
REMARK VINA RESULT:      -7.8      0.000      0.000
REMARK  Name = 405223
REMARK  9 active torsions:
REMARK  status: ('A' for Active; 'I' for Inactive)
REMARK    1  A    between atoms: C_6  and  C_10
REMARK    2  A    between atoms: C_11  and  O_15
REMARK    3  A    between atoms: C_14  and  O_19
REMARK    4  A    between atoms: O_15  and  C_21
REMARK    5  A    between atoms: N_18  and  C_23
REMARK    6  A    between atoms: C_23  and  C_26
REMARK    7  A    between atoms: C_26  and  C_29
REMARK    8  A    between atoms: C_29  and  C_30
REMARK    9  A    between atoms: C_29  and  C_31
REMARK                            x       y       z     vdW  Elec       q    Type
REMARK                         _______ _______ _______ _____ _____    ______ ____
ROOT
ATOM      1  C   UNL     1     -10.077  54.502  52.213  0.00  0.00    +0.000 A 
ATOM      2  C   UNL     1      -8.702  55.077  52.242  0.00  0.00    +0.000 A 
ATOM      3  C   UNL     1     -10.390  53.424  52.946  0.00  0.00    +0.000 A 
ATOM      4  O   UNL     1      -8.509  56.165  51.700  0.00  0.00    +0.000 OA
ATOM      5  N   UNL     1      -7.725  54.385  52.927  0.00  0.00    +0.000 N 
ATOM      6  C   UNL     1      -9.334  52.732  53.692  0.00  0.00    +0.000 A 
ATOM      7  C   UNL     1      -8.012  53.194  53.638  0.00  0.00    +0.000 A 
ATOM      8  C   UNL     1      -9.595  51.586  54.450  0.00  0.00    +0.000 A 
ATOM      9  N   UNL     1      -6.991  52.560  54.264  0.00  0.00    +0.000 NA
ATOM     10  C   UNL     1      -8.554  50.926  55.092  0.00  0.00    +0.000 A 
ATOM     11  C   UNL     1      -7.279  51.441  54.962  0.00  0.00    +0.000 A 
ENDROOT
BRANCH   1  17
ATOM     12  S   UNL     1     -13.396  56.394  51.419  0.00  0.00    +0.000 S 
ATOM     13  O   UNL     1     -13.372  57.789  51.801  0.00  0.00    +0.000 OA
ATOM     14  O   UNL     1     -14.583  55.589  51.638  0.00  0.00    +0.000 OA
ATOM     15  N   UNL     1     -12.152  55.667  52.162  0.00  0.00    +0.000 N 
ATOM     16  C   UNL     1     -13.104  56.366  49.682  0.00  0.00    +0.000 A 
ATOM     17  C   UNL     1     -11.143  55.251  51.473  0.00  0.00    +0.000 C 
ATOM     18  C   UNL     1     -11.879  55.873  49.211  0.00  0.00    +0.000 A 
ATOM     19  C   UNL     1     -14.111  56.825  48.830  0.00  0.00    +0.000 A 
ATOM     20  N   UNL     1     -10.930  55.422  50.129  0.00  0.00    +0.000 N 
ATOM     21  C   UNL     1     -11.634  55.944  47.827  0.00  0.00    +0.000 A 
ATOM     22  C   UNL     1     -13.881  56.847  47.460  0.00  0.00    +0.000 A 
ATOM     23  C   UNL     1     -12.646  56.421  46.974  0.00  0.00    +0.000 A 
ATOM     24  H   UNL     1     -12.165  55.543  53.139  0.00  0.00    +0.000 HD
ATOM     25  H   UNL     1     -10.034  55.208  49.783  0.00  0.00    +0.000 HD
BRANCH  21  26
ATOM     26  O   UNL     1     -10.518  55.607  47.110  0.00  0.00    +0.000 OA
ATOM     27  C   UNL     1     -10.468  54.494  46.235  0.00  0.00    +0.000 C 
ENDBRANCH  21  26
ENDBRANCH   1  17
BRANCH   3  28
ATOM     28  O   UNL     1     -11.662  52.900  53.081  0.00  0.00    +0.000 OA
ATOM     29  H   UNL     1     -11.990  52.681  53.931  0.00  0.00    +0.000 HD
ENDBRANCH   3  28
BRANCH   5  30
ATOM     30  C   UNL     1      -6.344  54.877  52.908  0.00  0.00    +0.000 C 
BRANCH  30  31
ATOM     31  C   UNL     1      -5.580  54.356  51.684  0.00  0.00    +0.000 C 
BRANCH  31  32
ATOM     32  C   UNL     1      -4.101  54.019  51.948  0.00  0.00    +0.000 C 
ATOM     33  C   UNL     1      -3.616  54.513  53.311  0.00  0.00    +0.000 C 
ATOM     34  C   UNL     1      -3.902  52.502  51.856  0.00  0.00    +0.000 C 
ENDBRANCH  31  32
ENDBRANCH  30  31
ENDBRANCH   5  30
TORSDOF 6
ENDMDL
MODEL 2
REMARK VINA RESULT:      -7.6      1.384      2.895
REMARK  Name = 405223
REMARK  9 active torsions:
REMARK  status: ('A' for Active; 'I' for Inactive)
REMARK    1  A    between atoms: C_6  and  C_10
REMARK    2  A    between atoms: C_11  and  O_15
REMARK    3  A    between atoms: C_14  and  O_19
REMARK    4  A    between atoms: O_15  and  C_21
REMARK    5  A    between atoms: N_18  and  C_23
REMARK    6  A    between atoms: C_23  and  C_26
REMARK    7  A    between atoms: C_26  and  C_29
REMARK    8  A    between atoms: C_29  and  C_30
REMARK    9  A    between atoms: C_29  and  C_31
REMARK                            x       y       z     vdW  Elec       q    Type
REMARK                         _______ _______ _______ _____ _____    ______ ____
ROOT
ATOM      1  C   UNL     1      -9.626  53.957  51.743  0.00  0.00    +0.000 A 
ATOM      2  C   UNL     1      -8.313  54.653  51.860  0.00  0.00    +0.000 A 
ATOM      3  C   UNL     1      -9.953  52.958  52.576  0.00  0.00    +0.000 A 
ATOM      4  O   UNL     1      -8.131  55.675  51.198  0.00  0.00    +0.000 OA
ATOM      5  N   UNL     1      -7.388  54.147  52.747  0.00  0.00    +0.000 N 
ATOM      6  C   UNL     1      -8.957  52.467  53.534  0.00  0.00    +0.000 A 
ATOM      7  C   UNL     1      -7.678  53.037  53.577  0.00  0.00    +0.000 A 
ATOM      8  C   UNL     1      -9.231  51.410  54.407  0.00  0.00    +0.000 A 
ATOM      9  N   UNL     1      -6.705  52.585  54.406  0.00  0.00    +0.000 NA
ATOM     10  C   UNL     1      -8.238  50.935  55.257  0.00  0.00    +0.000 A 
ATOM     11  C   UNL     1      -6.999  51.544  55.213  0.00  0.00    +0.000 A 
ENDROOT
BRANCH   1  17
ATOM     12  S   UNL     1     -11.454  54.870  48.420  0.00  0.00    +0.000 S 
ATOM     13  O   UNL     1     -12.262  53.793  47.889  0.00  0.00    +0.000 OA
ATOM     14  O   UNL     1     -10.659  55.701  47.535  0.00  0.00    +0.000 OA
ATOM     15  N   UNL     1     -10.465  54.229  49.533  0.00  0.00    +0.000 N 
ATOM     16  C   UNL     1     -12.577  55.959  49.229  0.00  0.00    +0.000 A 
ATOM     17  C   UNL     1     -10.637  54.504  50.782  0.00  0.00    +0.000 C 
ATOM     18  C   UNL     1     -12.556  56.032  50.629  0.00  0.00    +0.000 A 
ATOM     19  C   UNL     1     -13.445  56.724  48.446  0.00  0.00    +0.000 A 
ATOM     20  N   UNL     1     -11.651  55.242  51.337  0.00  0.00    +0.000 N 
ATOM     21  C   UNL     1     -13.523  56.841  51.257  0.00  0.00    +0.000 A 
ATOM     22  C   UNL     1     -14.363  57.558  49.071  0.00  0.00    +0.000 A 
ATOM     23  C   UNL     1     -14.403  57.599  50.463  0.00  0.00    +0.000 A 
ATOM     24  H   UNL     1      -9.733  53.631  49.257  0.00  0.00    +0.000 HD
ATOM     25  H   UNL     1     -11.748  55.212  52.316  0.00  0.00    +0.000 HD
BRANCH  21  26
ATOM     26  O   UNL     1     -13.776  57.043  52.586  0.00  0.00    +0.000 OA
ATOM     27  C   UNL     1     -14.885  57.787  53.058  0.00  0.00    +0.000 C 
ENDBRANCH  21  26
ENDBRANCH   1  17
BRANCH   3  28
ATOM     28  O   UNL     1     -11.190  52.342  52.627  0.00  0.00    +0.000 OA
ATOM     29  H   UNL     1     -11.640  52.264  53.445  0.00  0.00    +0.000 HD
ENDBRANCH   3  28
BRANCH   5  30
ATOM     30  C   UNL     1      -6.056  54.757  52.828  0.00  0.00    +0.000 C 
BRANCH  30  31
ATOM     31  C   UNL     1      -5.112  54.184  51.764  0.00  0.00    +0.000 C 
BRANCH  31  32
ATOM     32  C   UNL     1      -3.660  53.987  52.236  0.00  0.00    +0.000 C 
ATOM     33  C   UNL     1      -3.424  54.502  53.657  0.00  0.00    +0.000 C 
ATOM     34  C   UNL     1      -3.300  52.499  52.167  0.00  0.00    +0.000 C 
ENDBRANCH  31  32
ENDBRANCH  30  31
ENDBRANCH   5  30
TORSDOF 6
ENDMDL
MODEL 3
REMARK VINA RESULT:      -7.6      3.709      5.862
REMARK  Name = 405223
REMARK  9 active torsions:
REMARK  status: ('A' for Active; 'I' for Inactive)
REMARK    1  A    between atoms: C_6  and  C_10
REMARK    2  A    between atoms: C_11  and  O_15
REMARK    3  A    between atoms: C_14  and  O_19
REMARK    4  A    between atoms: O_15  and  C_21
REMARK    5  A    between atoms: N_18  and  C_23
REMARK    6  A    between atoms: C_23  and  C_26
REMARK    7  A    between atoms: C_26  and  C_29
REMARK    8  A    between atoms: C_29  and  C_30
REMARK    9  A    between atoms: C_29  and  C_31
REMARK                            x       y       z     vdW  Elec       q    Type
REMARK                         _______ _______ _______ _____ _____    ______ ____
ROOT
ATOM      1  C   UNL     1     -10.131  54.582  47.808  0.00  0.00    +0.000 A 
ATOM      2  C   UNL     1      -8.642  54.548  47.757  0.00  0.00    +0.000 A 
ATOM      3  C   UNL     1     -10.867  54.064  46.813  0.00  0.00    +0.000 A 
ATOM      4  O   UNL     1      -8.013  54.868  48.767  0.00  0.00    +0.000 OA
ATOM      5  N   UNL     1      -8.043  54.105  46.597  0.00  0.00    +0.000 N 
ATOM      6  C   UNL     1     -10.196  53.568  45.607  0.00  0.00    +0.000 A 
ATOM      7  C   UNL     1      -8.801  53.634  45.498  0.00  0.00    +0.000 A 
ATOM      8  C   UNL     1     -10.912  53.044  44.526  0.00  0.00    +0.000 A 
ATOM      9  N   UNL     1      -8.137  53.240  44.384  0.00  0.00    +0.000 NA
ATOM     10  C   UNL     1     -10.240  52.641  43.378  0.00  0.00    +0.000 A 
ATOM     11  C   UNL     1      -8.865  52.767  43.351  0.00  0.00    +0.000 A 
ENDROOT
BRANCH   1  17
ATOM     12  S   UNL     1     -11.238  54.821  51.541  0.00  0.00    +0.000 S 
ATOM     13  O   UNL     1     -10.260  55.459  52.395  0.00  0.00    +0.000 OA
ATOM     14  O   UNL     1     -11.969  53.655  52.001  0.00  0.00    +0.000 OA
ATOM     15  N   UNL     1     -10.492  54.434  50.155  0.00  0.00    +0.000 N 
ATOM     16  C   UNL     1     -12.452  56.050  51.198  0.00  0.00    +0.000 A 
ATOM     17  C   UNL     1     -10.788  55.060  49.067  0.00  0.00    +0.000 C 
ATOM     18  C   UNL     1     -12.527  56.583  49.903  0.00  0.00    +0.000 A 
ATOM     19  C   UNL     1     -13.310  56.445  52.228  0.00  0.00    +0.000 A 
ATOM     20  N   UNL     1     -11.640  56.125  48.929  0.00  0.00    +0.000 N 
ATOM     21  C   UNL     1     -13.444  57.627  49.677  0.00  0.00    +0.000 A 
ATOM     22  C   UNL     1     -14.246  57.442  51.984  0.00  0.00    +0.000 A 
ATOM     23  C   UNL     1     -14.296  58.030  50.722  0.00  0.00    +0.000 A 
ATOM     24  H   UNL     1      -9.813  53.721  50.144  0.00  0.00    +0.000 HD
ATOM     25  H   UNL     1     -11.625  56.608  48.072  0.00  0.00    +0.000 HD
BRANCH  21  26
ATOM     26  O   UNL     1     -13.678  58.367  48.551  0.00  0.00    +0.000 OA
ATOM     27  C   UNL     1     -14.121  57.800  47.330  0.00  0.00    +0.000 C 
ENDBRANCH  21  26
ENDBRANCH   1  17
BRANCH   3  28
ATOM     28  O   UNL     1     -12.243  53.935  46.830  0.00  0.00    +0.000 OA
ATOM     29  H   UNL     1     -12.761  54.519  47.349  0.00  0.00    +0.000 HD
ENDBRANCH   3  28
BRANCH   5  30
ATOM     30  C   UNL     1      -6.581  54.136  46.482  0.00  0.00    +0.000 C 
BRANCH  30  31
ATOM     31  C   UNL     1      -5.939  52.921  47.162  0.00  0.00    +0.000 C 
BRANCH  31  32
ATOM     32  C   UNL     1      -4.548  53.186  47.766  0.00  0.00    +0.000 C 
ATOM     33  C   UNL     1      -4.583  54.197  48.913  0.00  0.00    +0.000 C 
ATOM     34  C   UNL     1      -3.952  51.867  48.268  0.00  0.00    +0.000 C 
ENDBRANCH  31  32
ENDBRANCH  30  31
ENDBRANCH   5  30
TORSDOF 6
ENDMDL
MODEL 4
REMARK VINA RESULT:      -7.6      2.721      7.968
REMARK  Name = 405223
REMARK  9 active torsions:
REMARK  status: ('A' for Active; 'I' for Inactive)
REMARK    1  A    between atoms: C_6  and  C_10
REMARK    2  A    between atoms: C_11  and  O_15
REMARK    3  A    between atoms: C_14  and  O_19
REMARK    4  A    between atoms: O_15  and  C_21
REMARK    5  A    between atoms: N_18  and  C_23
REMARK    6  A    between atoms: C_23  and  C_26
REMARK    7  A    between atoms: C_26  and  C_29
REMARK    8  A    between atoms: C_29  and  C_30
REMARK    9  A    between atoms: C_29  and  C_31
REMARK                            x       y       z     vdW  Elec       q    Type
REMARK                         _______ _______ _______ _____ _____    ______ ____
ROOT
ATOM      1  C   UNL     1      -9.366  55.024  50.752  0.00  0.00    +0.000 A 
ATOM      2  C   UNL     1     -10.679  55.121  51.451  0.00  0.00    +0.000 A 
ATOM      3  C   UNL     1      -9.270  55.236  49.432  0.00  0.00    +0.000 A 
ATOM      4  O   UNL     1     -10.692  55.098  52.682  0.00  0.00    +0.000 OA
ATOM      5  N   UNL     1     -11.811  55.289  50.682  0.00  0.00    +0.000 N 
ATOM      6  C   UNL     1     -10.491  55.448  48.648  0.00  0.00    +0.000 A 
ATOM      7  C   UNL     1     -11.744  55.429  49.274  0.00  0.00    +0.000 A 
ATOM      8  C   UNL     1     -10.455  55.646  47.264  0.00  0.00    +0.000 A 
ATOM      9  N   UNL     1     -12.905  55.566  48.588  0.00  0.00    +0.000 NA
ATOM     10  C   UNL     1     -11.640  55.783  46.551  0.00  0.00    +0.000 A 
ATOM     11  C   UNL     1     -12.830  55.726  47.250  0.00  0.00    +0.000 A 
ENDROOT
BRANCH   1  17
ATOM     12  S   UNL     1      -6.706  55.474  53.571  0.00  0.00    +0.000 S 
ATOM     13  O   UNL     1      -7.034  54.771  54.793  0.00  0.00    +0.000 OA
ATOM     14  O   UNL     1      -6.136  56.807  53.617  0.00  0.00    +0.000 OA
ATOM     15  N   UNL     1      -8.053  55.533  52.671  0.00  0.00    +0.000 N 
ATOM     16  C   UNL     1      -5.522  54.468  52.741  0.00  0.00    +0.000 A 
ATOM     17  C   UNL     1      -8.132  54.844  51.583  0.00  0.00    +0.000 C 
ATOM     18  C   UNL     1      -5.905  53.801  51.569  0.00  0.00    +0.000 A 
ATOM     19  C   UNL     1      -4.234  54.378  53.274  0.00  0.00    +0.000 A 
ATOM     20  N   UNL     1      -7.209  53.953  51.097  0.00  0.00    +0.000 N 
ATOM     21  C   UNL     1      -4.970  52.933  50.974  0.00  0.00    +0.000 A 
ATOM     22  C   UNL     1      -3.300  53.558  52.654  0.00  0.00    +0.000 A 
ATOM     23  C   UNL     1      -3.678  52.836  51.523  0.00  0.00    +0.000 A 
ATOM     24  H   UNL     1      -8.811  56.094  52.954  0.00  0.00    +0.000 HD
ATOM     25  H   UNL     1      -7.489  53.373  50.354  0.00  0.00    +0.000 HD
BRANCH  21  26
ATOM     26  O   UNL     1      -5.094  52.116  49.884  0.00  0.00    +0.000 OA
ATOM     27  C   UNL     1      -4.001  51.763  49.054  0.00  0.00    +0.000 C 
ENDBRANCH  21  26
ENDBRANCH   1  17
BRANCH   3  28
ATOM     28  O   UNL     1      -8.084  55.294  48.723  0.00  0.00    +0.000 OA
ATOM     29  H   UNL     1      -7.817  56.097  48.322  0.00  0.00    +0.000 HD
ENDBRANCH   3  28
BRANCH   5  30
ATOM     30  C   UNL     1     -13.127  55.306  51.328  0.00  0.00    +0.000 C 
BRANCH  30  31
ATOM     31  C   UNL     1     -13.382  56.637  52.047  0.00  0.00    +0.000 C 
BRANCH  31  32
ATOM     32  C   UNL     1     -14.867  56.950  52.306  0.00  0.00    +0.000 C 
ATOM     33  C   UNL     1     -15.102  58.404  52.718  0.00  0.00    +0.000 C 
ATOM     34  C   UNL     1     -15.678  56.640  51.044  0.00  0.00    +0.000 C 
ENDBRANCH  31  32
ENDBRANCH  30  31
ENDBRANCH   5  30
TORSDOF 6
ENDMDL
MODEL 5
REMARK VINA RESULT:      -7.5      2.151      7.432
REMARK  Name = 405223
REMARK  9 active torsions:
REMARK  status: ('A' for Active; 'I' for Inactive)
REMARK    1  A    between atoms: C_6  and  C_10
REMARK    2  A    between atoms: C_11  and  O_15
REMARK    3  A    between atoms: C_14  and  O_19
REMARK    4  A    between atoms: O_15  and  C_21
REMARK    5  A    between atoms: N_18  and  C_23
REMARK    6  A    between atoms: C_23  and  C_26
REMARK    7  A    between atoms: C_26  and  C_29
REMARK    8  A    between atoms: C_29  and  C_30
REMARK    9  A    between atoms: C_29  and  C_31
REMARK                            x       y       z     vdW  Elec       q    Type
REMARK                         _______ _______ _______ _____ _____    ______ ____
ROOT
ATOM      1  C   UNL     1     -10.754  54.450  50.298  0.00  0.00    +0.000 A 
ATOM      2  C   UNL     1     -10.293  54.432  48.880  0.00  0.00    +0.000 A 
ATOM      3  C   UNL     1     -11.917  55.025  50.637  0.00  0.00    +0.000 A 
ATOM      4  O   UNL     1      -9.316  53.740  48.590  0.00  0.00    +0.000 OA
ATOM      5  N   UNL     1     -11.019  55.148  47.953  0.00  0.00    +0.000 N 
ATOM      6  C   UNL     1     -12.684  55.749  49.619  0.00  0.00    +0.000 A 
ATOM      7  C   UNL     1     -12.205  55.838  48.305  0.00  0.00    +0.000 A 
ATOM      8  C   UNL     1     -13.888  56.393  49.920  0.00  0.00    +0.000 A 
ATOM      9  N   UNL     1     -12.848  56.540  47.340  0.00  0.00    +0.000 NA
ATOM     10  C   UNL     1     -14.552  57.120  48.939  0.00  0.00    +0.000 A 
ATOM     11  C   UNL     1     -13.992  57.172  47.678  0.00  0.00    +0.000 A 
ENDROOT
BRANCH   1  17
ATOM     12  S   UNL     1      -9.862  51.977  53.181  0.00  0.00    +0.000 S 
ATOM     13  O   UNL     1      -9.721  50.605  52.744  0.00  0.00    +0.000 OA
ATOM     14  O   UNL     1     -10.528  52.288  54.432  0.00  0.00    +0.000 OA
ATOM     15  N   UNL     1     -10.614  52.788  51.996  0.00  0.00    +0.000 N 
ATOM     16  C   UNL     1      -8.223  52.603  53.335  0.00  0.00    +0.000 A 
ATOM     17  C   UNL     1      -9.970  53.670  51.309  0.00  0.00    +0.000 C 
ATOM     18  C   UNL     1      -7.774  53.556  52.409  0.00  0.00    +0.000 A 
ATOM     19  C   UNL     1      -7.427  52.137  54.385  0.00  0.00    +0.000 A 
ATOM     20  N   UNL     1      -8.636  53.977  51.396  0.00  0.00    +0.000 N 
ATOM     21  C   UNL     1      -6.433  53.974  52.498  0.00  0.00    +0.000 A 
ATOM     22  C   UNL     1      -6.119  52.592  54.496  0.00  0.00    +0.000 A 
ATOM     23  C   UNL     1      -5.632  53.490  53.550  0.00  0.00    +0.000 A 
ATOM     24  H   UNL     1     -11.562  52.608  51.799  0.00  0.00    +0.000 HD
ATOM     25  H   UNL     1      -8.254  54.540  50.686  0.00  0.00    +0.000 HD
BRANCH  21  26
ATOM     26  O   UNL     1      -5.719  54.825  51.700  0.00  0.00    +0.000 OA
ATOM     27  C   UNL     1      -5.117  54.422  50.482  0.00  0.00    +0.000 C 
ENDBRANCH  21  26
ENDBRANCH   1  17
BRANCH   3  28
ATOM     28  O   UNL     1     -12.484  54.980  51.897  0.00  0.00    +0.000 OA
ATOM     29  H   UNL     1     -12.423  54.197  52.409  0.00  0.00    +0.000 HD
ENDBRANCH   3  28
BRANCH   5  30
ATOM     30  C   UNL     1     -10.548  55.221  46.567  0.00  0.00    +0.000 C 
BRANCH  30  31
ATOM     31  C   UNL     1     -11.072  54.044  45.734  0.00  0.00    +0.000 C 
BRANCH  31  32
ATOM     32  C   UNL     1      -9.975  53.175  45.093  0.00  0.00    +0.000 C 
ATOM     33  C   UNL     1     -10.323  52.736  43.670  0.00  0.00    +0.000 C 
ATOM     34  C   UNL     1      -8.655  53.953  45.078  0.00  0.00    +0.000 C 
ENDBRANCH  31  32
ENDBRANCH  30  31
ENDBRANCH   5  30
TORSDOF 6
ENDMDL
MODEL 6
REMARK VINA RESULT:      -7.4      2.707      7.915
REMARK  Name = 405223
REMARK  9 active torsions:
REMARK  status: ('A' for Active; 'I' for Inactive)
REMARK    1  A    between atoms: C_6  and  C_10
REMARK    2  A    between atoms: C_11  and  O_15
REMARK    3  A    between atoms: C_14  and  O_19
REMARK    4  A    between atoms: O_15  and  C_21
REMARK    5  A    between atoms: N_18  and  C_23
REMARK    6  A    between atoms: C_23  and  C_26
REMARK    7  A    between atoms: C_26  and  C_29
REMARK    8  A    between atoms: C_29  and  C_30
REMARK    9  A    between atoms: C_29  and  C_31
REMARK                            x       y       z     vdW  Elec       q    Type
REMARK                         _______ _______ _______ _____ _____    ______ ____
ROOT
ATOM      1  C   UNL     1     -10.073  53.906  50.579  0.00  0.00    +0.000 A 
ATOM      2  C   UNL     1     -11.234  54.417  51.362  0.00  0.00    +0.000 A 
ATOM      3  C   UNL     1      -9.918  54.227  49.286  0.00  0.00    +0.000 A 
ATOM      4  O   UNL     1     -11.239  54.247  52.581  0.00  0.00    +0.000 OA
ATOM      5  N   UNL     1     -12.219  55.104  50.686  0.00  0.00    +0.000 N 
ATOM      6  C   UNL     1     -10.968  54.991  48.605  0.00  0.00    +0.000 A 
ATOM      7  C   UNL     1     -12.121  55.381  49.300  0.00  0.00    +0.000 A 
ATOM      8  C   UNL     1     -10.875  55.330  47.252  0.00  0.00    +0.000 A 
ATOM      9  N   UNL     1     -13.144  56.041  48.705  0.00  0.00    +0.000 NA
ATOM     10  C   UNL     1     -11.922  56.002  46.631  0.00  0.00    +0.000 A 
ATOM     11  C   UNL     1     -13.029  56.324  47.390  0.00  0.00    +0.000 A 
ENDROOT
BRANCH   1  17
ATOM     12  S   UNL     1      -8.282  51.416  52.991  0.00  0.00    +0.000 S 
ATOM     13  O   UNL     1      -8.161  50.078  52.456  0.00  0.00    +0.000 OA
ATOM     14  O   UNL     1      -8.619  51.625  54.387  0.00  0.00    +0.000 OA
ATOM     15  N   UNL     1      -9.374  52.202  52.087  0.00  0.00    +0.000 N 
ATOM     16  C   UNL     1      -6.709  52.173  52.753  0.00  0.00    +0.000 A 
ATOM     17  C   UNL     1      -8.997  53.160  51.309  0.00  0.00    +0.000 C 
ATOM     18  C   UNL     1      -6.588  53.193  51.798  0.00  0.00    +0.000 A 
ATOM     19  C   UNL     1      -5.636  51.739  53.535  0.00  0.00    +0.000 A 
ATOM     20  N   UNL     1      -7.713  53.575  51.067  0.00  0.00    +0.000 N 
ATOM     21  C   UNL     1      -5.304  53.719  51.562  0.00  0.00    +0.000 A 
ATOM     22  C   UNL     1      -4.381  52.299  53.331  0.00  0.00    +0.000 A 
ATOM     23  C   UNL     1      -4.224  53.269  52.343  0.00  0.00    +0.000 A 
ATOM     24  H   UNL     1     -10.325  51.950  52.131  0.00  0.00    +0.000 HD
ATOM     25  H   UNL     1      -7.572  54.194  50.315  0.00  0.00    +0.000 HD
BRANCH  21  26
ATOM     26  O   UNL     1      -4.887  54.656  50.656  0.00  0.00    +0.000 OA
ATOM     27  C   UNL     1      -4.790  54.398  49.267  0.00  0.00    +0.000 C 
ENDBRANCH  21  26
ENDBRANCH   1  17
BRANCH   3  28
ATOM     28  O   UNL     1      -8.814  53.908  48.518  0.00  0.00    +0.000 OA
ATOM     29  H   UNL     1      -8.901  53.315  47.797  0.00  0.00    +0.000 HD
ENDBRANCH   3  28
BRANCH   5  30
ATOM     30  C   UNL     1     -13.415  55.549  51.409  0.00  0.00    +0.000 C 
BRANCH  30  31
ATOM     31  C   UNL     1     -13.149  56.841  52.191  0.00  0.00    +0.000 C 
BRANCH  31  32
ATOM     32  C   UNL     1     -14.408  57.502  52.781  0.00  0.00    +0.000 C 
ATOM     33  C   UNL     1     -14.468  59.007  52.511  0.00  0.00    +0.000 C 
ATOM     34  C   UNL     1     -15.655  56.830  52.198  0.00  0.00    +0.000 C 
ENDBRANCH  31  32
ENDBRANCH  30  31
ENDBRANCH   5  30
TORSDOF 6
ENDMDL
MODEL 7
REMARK VINA RESULT:      -7.4      2.535      8.255
REMARK  Name = 405223
REMARK  9 active torsions:
REMARK  status: ('A' for Active; 'I' for Inactive)
REMARK    1  A    between atoms: C_6  and  C_10
REMARK    2  A    between atoms: C_11  and  O_15
REMARK    3  A    between atoms: C_14  and  O_19
REMARK    4  A    between atoms: O_15  and  C_21
REMARK    5  A    between atoms: N_18  and  C_23
REMARK    6  A    between atoms: C_23  and  C_26
REMARK    7  A    between atoms: C_26  and  C_29
REMARK    8  A    between atoms: C_29  and  C_30
REMARK    9  A    between atoms: C_29  and  C_31
REMARK                            x       y       z     vdW  Elec       q    Type
REMARK                         _______ _______ _______ _____ _____    ______ ____
ROOT
ATOM      1  C   UNL     1      -9.717  54.833  50.941  0.00  0.00    +0.000 A 
ATOM      2  C   UNL     1     -11.041  55.109  51.566  0.00  0.00    +0.000 A 
ATOM      3  C   UNL     1      -9.524  55.014  49.626  0.00  0.00    +0.000 A 
ATOM      4  O   UNL     1     -11.122  55.104  52.795  0.00  0.00    +0.000 OA
ATOM      5  N   UNL     1     -12.099  55.412  50.736  0.00  0.00    +0.000 N 
ATOM      6  C   UNL     1     -10.664  55.371  48.776  0.00  0.00    +0.000 A 
ATOM      7  C   UNL     1     -11.940  55.523  49.333  0.00  0.00    +0.000 A 
ATOM      8  C   UNL     1     -10.529  55.545  47.395  0.00  0.00    +0.000 A 
ATOM      9  N   UNL     1     -13.035  55.800  48.584  0.00  0.00    +0.000 NA
ATOM     10  C   UNL     1     -11.647  55.823  46.617  0.00  0.00    +0.000 A 
ATOM     11  C   UNL     1     -12.869  55.930  47.251  0.00  0.00    +0.000 A 
ENDROOT
BRANCH   1  17
ATOM     12  S   UNL     1      -6.164  54.852  52.554  0.00  0.00    +0.000 S 
ATOM     13  O   UNL     1      -5.971  55.916  53.515  0.00  0.00    +0.000 OA
ATOM     14  O   UNL     1      -5.108  54.496  51.625  0.00  0.00    +0.000 OA
ATOM     15  N   UNL     1      -7.491  55.211  51.695  0.00  0.00    +0.000 N 
ATOM     16  C   UNL     1      -6.486  53.402  53.502  0.00  0.00    +0.000 A 
ATOM     17  C   UNL     1      -8.562  54.506  51.839  0.00  0.00    +0.000 C 
ATOM     18  C   UNL     1      -7.780  52.861  53.489  0.00  0.00    +0.000 A 
ATOM     19  C   UNL     1      -5.436  52.832  54.226  0.00  0.00    +0.000 A 
ATOM     20  N   UNL     1      -8.770  53.485  52.730  0.00  0.00    +0.000 N 
ATOM     21  C   UNL     1      -8.035  51.756  54.324  0.00  0.00    +0.000 A 
ATOM     22  C   UNL     1      -5.684  51.712  55.009  0.00  0.00    +0.000 A 
ATOM     23  C   UNL     1      -6.976  51.195  55.061  0.00  0.00    +0.000 A 
ATOM     24  H   UNL     1      -7.480  55.966  51.064  0.00  0.00    +0.000 HD
ATOM     25  H   UNL     1      -9.693  53.165  52.845  0.00  0.00    +0.000 HD
BRANCH  21  26
ATOM     26  O   UNL     1      -9.200  51.080  54.561  0.00  0.00    +0.000 OA
ATOM     27  C   UNL     1      -9.513  50.491  55.811  0.00  0.00    +0.000 C 
ENDBRANCH  21  26
ENDBRANCH   1  17
BRANCH   3  28
ATOM     28  O   UNL     1      -8.305  54.908  48.983  0.00  0.00    +0.000 OA
ATOM     29  H   UNL     1      -8.113  54.150  48.466  0.00  0.00    +0.000 HD
ENDBRANCH   3  28
BRANCH   5  30
ATOM     30  C   UNL     1     -13.435  55.608  51.310  0.00  0.00    +0.000 C 
BRANCH  30  31
ATOM     31  C   UNL     1     -13.568  56.990  51.961  0.00  0.00    +0.000 C 
BRANCH  31  32
ATOM     32  C   UNL     1     -14.966  57.298  52.527  0.00  0.00    +0.000 C 
ATOM     33  C   UNL     1     -15.171  58.785  52.823  0.00  0.00    +0.000 C 
ATOM     34  C   UNL     1     -16.032  56.824  51.535  0.00  0.00    +0.000 C 
ENDBRANCH  31  32
ENDBRANCH  30  31
ENDBRANCH   5  30
TORSDOF 6
ENDMDL
MODEL 8
REMARK VINA RESULT:      -7.3      3.248      6.676
REMARK  Name = 405223
REMARK  9 active torsions:
REMARK  status: ('A' for Active; 'I' for Inactive)
REMARK    1  A    between atoms: C_6  and  C_10
REMARK    2  A    between atoms: C_11  and  O_15
REMARK    3  A    between atoms: C_14  and  O_19
REMARK    4  A    between atoms: O_15  and  C_21
REMARK    5  A    between atoms: N_18  and  C_23
REMARK    6  A    between atoms: C_23  and  C_26
REMARK    7  A    between atoms: C_26  and  C_29
REMARK    8  A    between atoms: C_29  and  C_30
REMARK    9  A    between atoms: C_29  and  C_31
REMARK                            x       y       z     vdW  Elec       q    Type
REMARK                         _______ _______ _______ _____ _____    ______ ____
ROOT
ATOM      1  C   UNL     1     -10.855  54.848  48.316  0.00  0.00    +0.000 A 
ATOM      2  C   UNL     1     -10.328  54.761  49.708  0.00  0.00    +0.000 A 
ATOM      3  C   UNL     1     -11.953  55.566  48.038  0.00  0.00    +0.000 A 
ATOM      4  O   UNL     1      -9.224  54.244  49.886  0.00  0.00    +0.000 OA
ATOM      5  N   UNL     1     -11.080  55.316  50.721  0.00  0.00    +0.000 N 
ATOM      6  C   UNL     1     -12.710  56.174  49.137  0.00  0.00    +0.000 A 
ATOM      7  C   UNL     1     -12.289  56.005  50.462  0.00  0.00    +0.000 A 
ATOM      8  C   UNL     1     -13.877  56.910  48.910  0.00  0.00    +0.000 A 
ATOM      9  N   UNL     1     -12.982  56.501  51.517  0.00  0.00    +0.000 NA
ATOM     10  C   UNL     1     -14.598  57.418  49.985  0.00  0.00    +0.000 A 
ATOM     11  C   UNL     1     -14.120  57.180  51.259  0.00  0.00    +0.000 A 
ENDROOT
BRANCH   1  17
ATOM     12  S   UNL     1      -7.972  54.234  45.759  0.00  0.00    +0.000 S 
ATOM     13  O   UNL     1      -6.855  53.501  46.313  0.00  0.00    +0.000 OA
ATOM     14  O   UNL     1      -7.749  55.354  44.864  0.00  0.00    +0.000 OA
ATOM     15  N   UNL     1      -8.872  54.755  47.003  0.00  0.00    +0.000 N 
ATOM     16  C   UNL     1      -8.912  53.059  44.842  0.00  0.00    +0.000 A 
ATOM     17  C   UNL     1     -10.041  54.249  47.210  0.00  0.00    +0.000 C 
ATOM     18  C   UNL     1     -10.164  52.665  45.334  0.00  0.00    +0.000 A 
ATOM     19  C   UNL     1      -8.381  52.569  43.647  0.00  0.00    +0.000 A 
ATOM     20  N   UNL     1     -10.627  53.212  46.531  0.00  0.00    +0.000 N 
ATOM     21  C   UNL     1     -10.855  51.659  44.632  0.00  0.00    +0.000 A 
ATOM     22  C   UNL     1      -9.091  51.612  42.933  0.00  0.00    +0.000 A 
ATOM     23  C   UNL     1     -10.309  51.159  43.435  0.00  0.00    +0.000 A 
ATOM     24  H   UNL     1      -8.528  55.459  47.600  0.00  0.00    +0.000 HD
ATOM     25  H   UNL     1     -11.442  52.820  46.919  0.00  0.00    +0.000 HD
BRANCH  21  26
ATOM     26  O   UNL     1     -12.043  51.042  44.915  0.00  0.00    +0.000 OA
ATOM     27  C   UNL     1     -12.155  49.961  45.824  0.00  0.00    +0.000 C 
ENDBRANCH  21  26
ENDBRANCH   1  17
BRANCH   3  28
ATOM     28  O   UNL     1     -12.439  55.808  46.767  0.00  0.00    +0.000 OA
ATOM     29  H   UNL     1     -12.571  56.690  46.477  0.00  0.00    +0.000 HD
ENDBRANCH   3  28
BRANCH   5  30
ATOM     30  C   UNL     1     -10.633  55.176  52.111  0.00  0.00    +0.000 C 
BRANCH  30  31
ATOM     31  C   UNL     1     -10.934  53.776  52.659  0.00  0.00    +0.000 C 
BRANCH  31  32
ATOM     32  C   UNL     1      -9.866  53.222  53.619  0.00  0.00    +0.000 C 
ATOM     33  C   UNL     1      -9.636  51.720  53.446  0.00  0.00    +0.000 C 
ATOM     34  C   UNL     1      -8.546  53.968  53.396  0.00  0.00    +0.000 C 
ENDBRANCH  31  32
ENDBRANCH  30  31
ENDBRANCH   5  30
TORSDOF 6
ENDMDL
MODEL 9
REMARK VINA RESULT:      -7.3      1.920      4.325
REMARK  Name = 405223
REMARK  9 active torsions:
REMARK  status: ('A' for Active; 'I' for Inactive)
REMARK    1  A    between atoms: C_6  and  C_10
REMARK    2  A    between atoms: C_11  and  O_15
REMARK    3  A    between atoms: C_14  and  O_19
REMARK    4  A    between atoms: O_15  and  C_21
REMARK    5  A    between atoms: N_18  and  C_23
REMARK    6  A    between atoms: C_23  and  C_26
REMARK    7  A    between atoms: C_26  and  C_29
REMARK    8  A    between atoms: C_29  and  C_30
REMARK    9  A    between atoms: C_29  and  C_31
REMARK                            x       y       z     vdW  Elec       q    Type
REMARK                         _______ _______ _______ _____ _____    ______ ____
ROOT
ATOM      1  C   UNL     1      -9.119  54.241  50.950  0.00  0.00    +0.000 A 
ATOM      2  C   UNL     1      -8.872  52.792  51.200  0.00  0.00    +0.000 A 
ATOM      3  C   UNL     1      -8.370  55.180  51.545  0.00  0.00    +0.000 A 
ATOM      4  O   UNL     1      -9.459  51.968  50.498  0.00  0.00    +0.000 OA
ATOM      5  N   UNL     1      -7.953  52.449  52.169  0.00  0.00    +0.000 N 
ATOM      6  C   UNL     1      -7.376  54.779  52.546  0.00  0.00    +0.000 A 
ATOM      7  C   UNL     1      -7.211  53.427  52.874  0.00  0.00    +0.000 A 
ATOM      8  C   UNL     1      -6.586  55.716  53.219  0.00  0.00    +0.000 A 
ATOM      9  N   UNL     1      -6.345  53.008  53.829  0.00  0.00    +0.000 NA
ATOM     10  C   UNL     1      -5.699  55.297  54.204  0.00  0.00    +0.000 A 
ATOM     11  C   UNL     1      -5.623  53.946  54.478  0.00  0.00    +0.000 A 
ENDROOT
BRANCH   1  17
ATOM     12  S   UNL     1     -10.855  54.659  47.481  0.00  0.00    +0.000 S 
ATOM     13  O   UNL     1     -11.595  53.489  47.060  0.00  0.00    +0.000 OA
ATOM     14  O   UNL     1     -10.062  55.413  46.528  0.00  0.00    +0.000 OA
ATOM     15  N   UNL     1      -9.883  54.205  48.697  0.00  0.00    +0.000 N 
ATOM     16  C   UNL     1     -12.054  55.784  48.114  0.00  0.00    +0.000 A 
ATOM     17  C   UNL     1     -10.114  54.620  49.896  0.00  0.00    +0.000 C 
ATOM     18  C   UNL     1     -12.090  56.027  49.494  0.00  0.00    +0.000 A 
ATOM     19  C   UNL     1     -12.922  56.408  47.214  0.00  0.00    +0.000 A 
ATOM     20  N   UNL     1     -11.179  55.371  50.323  0.00  0.00    +0.000 N 
ATOM     21  C   UNL     1     -13.113  56.860  49.985  0.00  0.00    +0.000 A 
ATOM     22  C   UNL     1     -13.898  57.268  47.702  0.00  0.00    +0.000 A 
ATOM     23  C   UNL     1     -13.993  57.474  49.076  0.00  0.00    +0.000 A 
ATOM     24  H   UNL     1      -9.117  53.613  48.520  0.00  0.00    +0.000 HD
ATOM     25  H   UNL     1     -11.312  55.456  51.294  0.00  0.00    +0.000 HD
BRANCH  21  26
ATOM     26  O   UNL     1     -13.426  57.209  51.271  0.00  0.00    +0.000 OA
ATOM     27  C   UNL     1     -14.468  56.594  52.008  0.00  0.00    +0.000 C 
ENDBRANCH  21  26
ENDBRANCH   1  17
BRANCH   3  28
ATOM     28  O   UNL     1      -8.440  56.535  51.279  0.00  0.00    +0.000 OA
ATOM     29  H   UNL     1      -9.255  56.919  51.021  0.00  0.00    +0.000 HD
ENDBRANCH   3  28
BRANCH   5  30
ATOM     30  C   UNL     1      -7.746  51.035  52.498  0.00  0.00    +0.000 C 
BRANCH  30  31
ATOM     31  C   UNL     1      -8.902  50.479  53.338  0.00  0.00    +0.000 C 
BRANCH  31  32
ATOM     32  C   UNL     1      -9.138  51.216  54.669  0.00  0.00    +0.000 C 
ATOM     33  C   UNL     1     -10.455  51.992  54.692  0.00  0.00    +0.000 C 
ATOM     34  C   UNL     1      -9.123  50.203  55.819  0.00  0.00    +0.000 C 
ENDBRANCH  31  32
ENDBRANCH  30  31
ENDBRANCH   5  30
TORSDOF 6
ENDMDL
