MODEL 1
REMARK VINA RESULT:      -7.2      0.000      0.000
REMARK  Name = 353260
REMARK  11 active torsions:
REMARK  status: ('A' for Active; 'I' for Inactive)
REMARK    1  A    between atoms: C_6  and  C_10
REMARK    2  A    between atoms: C_12  and  O_16
REMARK    3  A    between atoms: C_14  and  O_19
REMARK    4  A    between atoms: O_16  and  C_21
REMARK    5  A    between atoms: N_18  and  C_23
REMARK    6  A    between atoms: C_21  and  C_25
REMARK    7  A    between atoms: C_23  and  C_27
REMARK    8  A    between atoms: C_27  and  C_32
REMARK    9  A    between atoms: N_30  and  C_33
REMARK   10  A    between atoms: C_32  and  C_34
REMARK   11  A    between atoms: C_32  and  C_35
REMARK                            x       y       z     vdW  Elec       q    Type
REMARK                         _______ _______ _______ _____ _____    ______ ____
ROOT
ATOM      1  S   UNL     1     -11.570  54.806  50.703  0.00  0.00    +0.000 S 
ATOM      2  O   UNL     1     -10.382  55.482  51.173  0.00  0.00    +0.000 OA
ATOM      3  O   UNL     1     -12.377  53.979  51.573  0.00  0.00    +0.000 OA
ATOM      4  N   UNL     1     -11.163  53.882  49.398  0.00  0.00    +0.000 N 
ATOM      5  C   UNL     1     -12.609  56.002  49.982  0.00  0.00    +0.000 A 
ATOM      6  C   UNL     1     -11.050  54.415  48.117  0.00  0.00    +0.000 C 
ATOM      7  C   UNL     1     -12.506  56.196  48.607  0.00  0.00    +0.000 A 
ATOM      8  C   UNL     1     -13.516  56.709  50.775  0.00  0.00    +0.000 A 
ATOM      9  N   UNL     1     -11.617  55.525  47.760  0.00  0.00    +0.000 N 
ATOM     10  C   UNL     1     -13.368  57.121  48.015  0.00  0.00    +0.000 A 
ATOM     11  C   UNL     1     -14.341  57.649  50.168  0.00  0.00    +0.000 A 
ATOM     12  C   UNL     1     -14.287  57.834  48.786  0.00  0.00    +0.000 A 
ATOM     13  H   UNL     1     -10.994  52.921  49.530  0.00  0.00    +0.000 HD
ATOM     14  H   UNL     1     -11.416  55.905  46.874  0.00  0.00    +0.000 HD
ENDROOT
BRANCH   6  15
ATOM     15  C   UNL     1     -10.200  53.647  47.171  0.00  0.00    +0.000 A 
ATOM     16  C   UNL     1      -8.832  53.195  47.551  0.00  0.00    +0.000 A 
ATOM     17  C   UNL     1     -10.687  53.383  45.943  0.00  0.00    +0.000 A 
ATOM     18  O   UNL     1      -8.400  53.479  48.671  0.00  0.00    +0.000 OA
ATOM     19  N   UNL     1      -8.116  52.455  46.630  0.00  0.00    +0.000 N 
ATOM     20  C   UNL     1      -9.853  52.693  44.956  0.00  0.00    +0.000 A 
ATOM     21  C   UNL     1      -8.587  52.228  45.312  0.00  0.00    +0.000 A 
ATOM     22  C   UNL     1     -10.283  52.489  43.639  0.00  0.00    +0.000 A 
ATOM     23  N   UNL     1      -7.777  51.582  44.438  0.00  0.00    +0.000 NA
ATOM     24  C   UNL     1      -9.454  51.845  42.729  0.00  0.00    +0.000 A 
ATOM     25  C   UNL     1      -8.220  51.411  43.173  0.00  0.00    +0.000 A 
BRANCH  17  26
ATOM     26  O   UNL     1     -11.951  53.732  45.497  0.00  0.00    +0.000 OA
ATOM     27  H   UNL     1     -12.173  53.631  44.592  0.00  0.00    +0.000 HD
ENDBRANCH  17  26
BRANCH  19  28
ATOM     28  C   UNL     1      -6.780  51.965  46.979  0.00  0.00    +0.000 C 
BRANCH  28  29
ATOM     29  C   UNL     1      -5.753  53.099  47.026  0.00  0.00    +0.000 C 
BRANCH  29  30
ATOM     30  C   UNL     1      -4.831  53.068  48.256  0.00  0.00    +0.000 C 
ATOM     31  C   UNL     1      -4.918  54.347  49.093  0.00  0.00    +0.000 C 
ATOM     32  C   UNL     1      -5.194  51.862  49.129  0.00  0.00    +0.000 C 
ENDBRANCH  29  30
ENDBRANCH  28  29
ENDBRANCH  19  28
ENDBRANCH   6  15
BRANCH  11  33
ATOM     33  O   UNL     1     -15.263  58.410  50.822  0.00  0.00    +0.000 OA
BRANCH  33  34
ATOM     34  C   UNL     1     -14.735  59.316  51.795  0.00  0.00    +0.000 C 
BRANCH  34  35
ATOM     35  C   UNL     1     -15.327  59.000  53.170  0.00  0.00    +0.000 C 
ATOM     36  O   UNL     1     -15.324  57.863  53.634  0.00  0.00    +0.000 OA
ATOM     37  N   UNL     1     -15.829  60.097  53.832  0.00  0.00    +0.000 N 
ATOM     38  C   UNL     1     -16.415  60.038  55.145  0.00  0.00    +0.000 C 
ATOM     39  H   UNL     1     -15.785  60.973  53.383  0.00  0.00    +0.000 HD
ENDBRANCH  34  35
ENDBRANCH  33  34
ENDBRANCH  11  33
TORSDOF 8
ENDMDL
MODEL 2
REMARK VINA RESULT:      -7.1      2.938      4.366
REMARK  Name = 353260
REMARK  11 active torsions:
REMARK  status: ('A' for Active; 'I' for Inactive)
REMARK    1  A    between atoms: C_6  and  C_10
REMARK    2  A    between atoms: C_12  and  O_16
REMARK    3  A    between atoms: C_14  and  O_19
REMARK    4  A    between atoms: O_16  and  C_21
REMARK    5  A    between atoms: N_18  and  C_23
REMARK    6  A    between atoms: C_21  and  C_25
REMARK    7  A    between atoms: C_23  and  C_27
REMARK    8  A    between atoms: C_27  and  C_32
REMARK    9  A    between atoms: N_30  and  C_33
REMARK   10  A    between atoms: C_32  and  C_34
REMARK   11  A    between atoms: C_32  and  C_35
REMARK                            x       y       z     vdW  Elec       q    Type
REMARK                         _______ _______ _______ _____ _____    ______ ____
ROOT
ATOM      1  S   UNL     1     -11.412  54.649  47.644  0.00  0.00    +0.000 S 
ATOM      2  O   UNL     1     -11.856  53.340  47.222  0.00  0.00    +0.000 OA
ATOM      3  O   UNL     1     -11.567  55.818  46.808  0.00  0.00    +0.000 OA
ATOM      4  N   UNL     1      -9.816  54.552  48.050  0.00  0.00    +0.000 N 
ATOM      5  C   UNL     1     -12.151  54.986  49.184  0.00  0.00    +0.000 A 
ATOM      6  C   UNL     1      -9.392  54.089  49.293  0.00  0.00    +0.000 C 
ATOM      7  C   UNL     1     -11.423  54.671  50.328  0.00  0.00    +0.000 A 
ATOM      8  C   UNL     1     -13.418  55.573  49.237  0.00  0.00    +0.000 A 
ATOM      9  N   UNL     1     -10.154  54.079  50.342  0.00  0.00    +0.000 N 
ATOM     10  C   UNL     1     -11.990  54.981  51.566  0.00  0.00    +0.000 A 
ATOM     11  C   UNL     1     -13.976  55.842  50.482  0.00  0.00    +0.000 A 
ATOM     12  C   UNL     1     -13.251  55.573  51.642  0.00  0.00    +0.000 A 
ATOM     13  H   UNL     1      -9.140  54.831  47.391  0.00  0.00    +0.000 HD
ATOM     14  H   UNL     1      -9.835  53.645  51.166  0.00  0.00    +0.000 HD
ENDROOT
BRANCH   6  15
ATOM     15  C   UNL     1      -8.003  53.565  49.348  0.00  0.00    +0.000 A 
ATOM     16  C   UNL     1      -6.972  54.195  50.220  0.00  0.00    +0.000 A 
ATOM     17  C   UNL     1      -7.684  52.514  48.568  0.00  0.00    +0.000 A 
ATOM     18  O   UNL     1      -7.285  55.176  50.899  0.00  0.00    +0.000 OA
ATOM     19  N   UNL     1      -5.711  53.629  50.243  0.00  0.00    +0.000 N 
ATOM     20  C   UNL     1      -6.308  52.015  48.536  0.00  0.00    +0.000 A 
ATOM     21  C   UNL     1      -5.343  52.568  49.379  0.00  0.00    +0.000 A 
ATOM     22  C   UNL     1      -5.912  50.992  47.666  0.00  0.00    +0.000 A 
ATOM     23  N   UNL     1      -4.056  52.141  49.390  0.00  0.00    +0.000 NA
ATOM     24  C   UNL     1      -4.593  50.559  47.655  0.00  0.00    +0.000 A 
ATOM     25  C   UNL     1      -3.709  51.159  48.531  0.00  0.00    +0.000 A 
BRANCH  17  26
ATOM     26  O   UNL     1      -8.568  51.840  47.742  0.00  0.00    +0.000 OA
ATOM     27  H   UNL     1      -9.478  52.065  47.746  0.00  0.00    +0.000 HD
ENDBRANCH  17  26
BRANCH  19  28
ATOM     28  C   UNL     1      -4.681  54.200  51.114  0.00  0.00    +0.000 C 
BRANCH  28  29
ATOM     29  C   UNL     1      -4.771  53.646  52.539  0.00  0.00    +0.000 C 
BRANCH  29  30
ATOM     30  C   UNL     1      -5.106  54.700  53.608  0.00  0.00    +0.000 C 
ATOM     31  C   UNL     1      -6.019  54.157  54.709  0.00  0.00    +0.000 C 
ATOM     32  C   UNL     1      -3.806  55.217  54.232  0.00  0.00    +0.000 C 
ENDBRANCH  29  30
ENDBRANCH  28  29
ENDBRANCH  19  28
ENDBRANCH   6  15
BRANCH  11  33
ATOM     33  O   UNL     1     -15.202  56.405  50.677  0.00  0.00    +0.000 OA
BRANCH  33  34
ATOM     34  C   UNL     1     -15.346  57.164  51.881  0.00  0.00    +0.000 C 
BRANCH  34  35
ATOM     35  C   UNL     1     -15.048  58.638  51.600  0.00  0.00    +0.000 C 
ATOM     36  O   UNL     1     -15.141  59.498  52.472  0.00  0.00    +0.000 OA
ATOM     37  N   UNL     1     -14.650  58.896  50.308  0.00  0.00    +0.000 N 
ATOM     38  C   UNL     1     -14.301  60.206  49.827  0.00  0.00    +0.000 C 
ATOM     39  H   UNL     1     -14.601  58.141  49.677  0.00  0.00    +0.000 HD
ENDBRANCH  34  35
ENDBRANCH  33  34
ENDBRANCH  11  33
TORSDOF 8
ENDMDL
MODEL 3
REMARK VINA RESULT:      -7.0      2.040      4.016
REMARK  Name = 353260
REMARK  11 active torsions:
REMARK  status: ('A' for Active; 'I' for Inactive)
REMARK    1  A    between atoms: C_6  and  C_10
REMARK    2  A    between atoms: C_12  and  O_16
REMARK    3  A    between atoms: C_14  and  O_19
REMARK    4  A    between atoms: O_16  and  C_21
REMARK    5  A    between atoms: N_18  and  C_23
REMARK    6  A    between atoms: C_21  and  C_25
REMARK    7  A    between atoms: C_23  and  C_27
REMARK    8  A    between atoms: C_27  and  C_32
REMARK    9  A    between atoms: N_30  and  C_33
REMARK   10  A    between atoms: C_32  and  C_34
REMARK   11  A    between atoms: C_32  and  C_35
REMARK                            x       y       z     vdW  Elec       q    Type
REMARK                         _______ _______ _______ _____ _____    ______ ____
ROOT
ATOM      1  S   UNL     1      -9.662  55.735  50.258  0.00  0.00    +0.000 S 
ATOM      2  O   UNL     1      -8.667  56.773  50.118  0.00  0.00    +0.000 OA
ATOM      3  O   UNL     1     -10.285  55.436  51.528  0.00  0.00    +0.000 OA
ATOM      4  N   UNL     1      -9.027  54.324  49.687  0.00  0.00    +0.000 N 
ATOM      5  C   UNL     1     -10.923  56.051  49.101  0.00  0.00    +0.000 A 
ATOM      6  C   UNL     1      -9.004  54.015  48.329  0.00  0.00    +0.000 C 
ATOM      7  C   UNL     1     -10.833  55.418  47.864  0.00  0.00    +0.000 A 
ATOM      8  C   UNL     1     -11.985  56.894  49.438  0.00  0.00    +0.000 A 
ATOM      9  N   UNL     1      -9.795  54.568  47.465  0.00  0.00    +0.000 N 
ATOM     10  C   UNL     1     -11.864  55.631  46.948  0.00  0.00    +0.000 A 
ATOM     11  C   UNL     1     -12.984  57.117  48.497  0.00  0.00    +0.000 A 
ATOM     12  C   UNL     1     -12.938  56.465  47.265  0.00  0.00    +0.000 A 
ATOM     13  H   UNL     1      -8.651  53.678  50.328  0.00  0.00    +0.000 HD
ATOM     14  H   UNL     1      -9.663  54.388  46.506  0.00  0.00    +0.000 HD
ENDROOT
BRANCH   6  15
ATOM     15  C   UNL     1      -7.980  53.022  47.910  0.00  0.00    +0.000 A 
ATOM     16  C   UNL     1      -8.363  51.640  47.506  0.00  0.00    +0.000 A 
ATOM     17  C   UNL     1      -6.686  53.393  47.925  0.00  0.00    +0.000 A 
ATOM     18  O   UNL     1      -9.554  51.319  47.534  0.00  0.00    +0.000 OA
ATOM     19  N   UNL     1      -7.358  50.784  47.096  0.00  0.00    +0.000 N 
ATOM     20  C   UNL     1      -5.641  52.422  47.591  0.00  0.00    +0.000 A 
ATOM     21  C   UNL     1      -5.987  51.137  47.170  0.00  0.00    +0.000 A 
ATOM     22  C   UNL     1      -4.280  52.737  47.691  0.00  0.00    +0.000 A 
ATOM     23  N   UNL     1      -5.060  50.203  46.848  0.00  0.00    +0.000 NA
ATOM     24  C   UNL     1      -3.321  51.782  47.381  0.00  0.00    +0.000 A 
ATOM     25  C   UNL     1      -3.757  50.539  46.965  0.00  0.00    +0.000 A 
BRANCH  17  26
ATOM     26  O   UNL     1      -6.224  54.656  48.257  0.00  0.00    +0.000 OA
ATOM     27  H   UNL     1      -5.844  54.809  49.100  0.00  0.00    +0.000 HD
ENDBRANCH  17  26
BRANCH  19  28
ATOM     28  C   UNL     1      -7.699  49.428  46.659  0.00  0.00    +0.000 C 
BRANCH  28  29
ATOM     29  C   UNL     1      -8.382  49.428  45.289  0.00  0.00    +0.000 C 
BRANCH  29  30
ATOM     30  C   UNL     1      -7.544  50.061  44.164  0.00  0.00    +0.000 C 
ATOM     31  C   UNL     1      -7.321  49.110  42.986  0.00  0.00    +0.000 C 
ATOM     32  C   UNL     1      -8.241  51.332  43.669  0.00  0.00    +0.000 C 
ENDBRANCH  29  30
ENDBRANCH  28  29
ENDBRANCH  19  28
ENDBRANCH   6  15
BRANCH  11  33
ATOM     33  O   UNL     1     -14.069  57.919  48.692  0.00  0.00    +0.000 OA
BRANCH  33  34
ATOM     34  C   UNL     1     -13.811  59.147  49.380  0.00  0.00    +0.000 C 
BRANCH  34  35
ATOM     35  C   UNL     1     -14.710  59.246  50.613  0.00  0.00    +0.000 C 
ATOM     36  O   UNL     1     -15.672  60.009  50.659  0.00  0.00    +0.000 OA
ATOM     37  N   UNL     1     -14.357  58.396  51.637  0.00  0.00    +0.000 N 
ATOM     38  C   UNL     1     -15.072  58.306  52.882  0.00  0.00    +0.000 C 
ATOM     39  H   UNL     1     -13.572  57.815  51.509  0.00  0.00    +0.000 HD
ENDBRANCH  34  35
ENDBRANCH  33  34
ENDBRANCH  11  33
TORSDOF 8
ENDMDL
MODEL 4
REMARK VINA RESULT:      -6.9      3.959      9.482
REMARK  Name = 353260
REMARK  11 active torsions:
REMARK  status: ('A' for Active; 'I' for Inactive)
REMARK    1  A    between atoms: C_6  and  C_10
REMARK    2  A    between atoms: C_12  and  O_16
REMARK    3  A    between atoms: C_14  and  O_19
REMARK    4  A    between atoms: O_16  and  C_21
REMARK    5  A    between atoms: N_18  and  C_23
REMARK    6  A    between atoms: C_21  and  C_25
REMARK    7  A    between atoms: C_23  and  C_27
REMARK    8  A    between atoms: C_27  and  C_32
REMARK    9  A    between atoms: N_30  and  C_33
REMARK   10  A    between atoms: C_32  and  C_34
REMARK   11  A    between atoms: C_32  and  C_35
REMARK                            x       y       z     vdW  Elec       q    Type
REMARK                         _______ _______ _______ _____ _____    ______ ____
ROOT
ATOM      1  S   UNL     1      -6.711  55.262  51.701  0.00  0.00    +0.000 S 
ATOM      2  O   UNL     1      -6.785  56.255  52.749  0.00  0.00    +0.000 OA
ATOM      3  O   UNL     1      -5.613  55.219  50.761  0.00  0.00    +0.000 OA
ATOM      4  N   UNL     1      -8.102  55.331  50.818  0.00  0.00    +0.000 N 
ATOM      5  C   UNL     1      -6.841  53.695  52.448  0.00  0.00    +0.000 A 
ATOM      6  C   UNL     1      -9.275  54.703  51.229  0.00  0.00    +0.000 C 
ATOM      7  C   UNL     1      -8.108  53.124  52.524  0.00  0.00    +0.000 A 
ATOM      8  C   UNL     1      -5.696  53.050  52.923  0.00  0.00    +0.000 A 
ATOM      9  N   UNL     1      -9.292  53.719  52.073  0.00  0.00    +0.000 N 
ATOM     10  C   UNL     1      -8.214  51.848  53.081  0.00  0.00    +0.000 A 
ATOM     11  C   UNL     1      -5.831  51.794  53.503  0.00  0.00    +0.000 A 
ATOM     12  C   UNL     1      -7.083  51.183  53.556  0.00  0.00    +0.000 A 
ATOM     13  H   UNL     1      -8.104  55.834  49.972  0.00  0.00    +0.000 HD
ATOM     14  H   UNL     1     -10.157  53.384  52.405  0.00  0.00    +0.000 HD
ENDROOT
BRANCH   6  15
ATOM     15  C   UNL     1     -10.534  55.252  50.663  0.00  0.00    +0.000 A 
ATOM     16  C   UNL     1     -11.743  55.450  51.511  0.00  0.00    +0.000 A 
ATOM     17  C   UNL     1     -10.569  55.550  49.349  0.00  0.00    +0.000 A 
ATOM     18  O   UNL     1     -11.692  55.138  52.704  0.00  0.00    +0.000 OA
ATOM     19  N   UNL     1     -12.866  55.998  50.920  0.00  0.00    +0.000 N 
ATOM     20  C   UNL     1     -11.812  56.023  48.737  0.00  0.00    +0.000 A 
ATOM     21  C   UNL     1     -12.939  56.253  49.528  0.00  0.00    +0.000 A 
ATOM     22  C   UNL     1     -11.919  56.248  47.359  0.00  0.00    +0.000 A 
ATOM     23  N   UNL     1     -14.112  56.692  49.011  0.00  0.00    +0.000 NA
ATOM     24  C   UNL     1     -13.122  56.681  46.816  0.00  0.00    +0.000 A 
ATOM     25  C   UNL     1     -14.181  56.889  47.677  0.00  0.00    +0.000 A 
BRANCH  17  26
ATOM     26  O   UNL     1      -9.499  55.430  48.479  0.00  0.00    +0.000 OA
ATOM     27  H   UNL     1      -9.203  56.175  47.994  0.00  0.00    +0.000 HD
ENDBRANCH  17  26
BRANCH  19  28
ATOM     28  C   UNL     1     -14.062  56.239  51.730  0.00  0.00    +0.000 C 
BRANCH  28  29
ATOM     29  C   UNL     1     -13.973  57.562  52.496  0.00  0.00    +0.000 C 
BRANCH  29  30
ATOM     30  C   UNL     1     -15.146  58.523  52.237  0.00  0.00    +0.000 C 
ATOM     31  C   UNL     1     -15.446  59.427  53.435  0.00  0.00    +0.000 C 
ATOM     32  C   UNL     1     -14.829  59.388  51.012  0.00  0.00    +0.000 C 
ENDBRANCH  29  30
ENDBRANCH  28  29
ENDBRANCH  19  28
ENDBRANCH   6  15
BRANCH  11  33
ATOM     33  O   UNL     1      -4.801  51.059  54.011  0.00  0.00    +0.000 OA
BRANCH  33  34
ATOM     34  C   UNL     1      -3.535  51.251  53.373  0.00  0.00    +0.000 C 
BRANCH  34  35
ATOM     35  C   UNL     1      -3.428  50.335  52.152  0.00  0.00    +0.000 C 
ATOM     36  O   UNL     1      -3.409  49.111  52.256  0.00  0.00    +0.000 OA
ATOM     37  N   UNL     1      -3.382  51.003  50.949  0.00  0.00    +0.000 N 
ATOM     38  C   UNL     1      -3.300  50.345  49.673  0.00  0.00    +0.000 C 
ATOM     39  H   UNL     1      -3.407  51.988  50.964  0.00  0.00    +0.000 HD
ENDBRANCH  34  35
ENDBRANCH  33  34
ENDBRANCH  11  33
TORSDOF 8
ENDMDL
MODEL 5
REMARK VINA RESULT:      -6.8      2.811      4.001
REMARK  Name = 353260
REMARK  11 active torsions:
REMARK  status: ('A' for Active; 'I' for Inactive)
REMARK    1  A    between atoms: C_6  and  C_10
REMARK    2  A    between atoms: C_12  and  O_16
REMARK    3  A    between atoms: C_14  and  O_19
REMARK    4  A    between atoms: O_16  and  C_21
REMARK    5  A    between atoms: N_18  and  C_23
REMARK    6  A    between atoms: C_21  and  C_25
REMARK    7  A    between atoms: C_23  and  C_27
REMARK    8  A    between atoms: C_27  and  C_32
REMARK    9  A    between atoms: N_30  and  C_33
REMARK   10  A    between atoms: C_32  and  C_34
REMARK   11  A    between atoms: C_32  and  C_35
REMARK                            x       y       z     vdW  Elec       q    Type
REMARK                         _______ _______ _______ _____ _____    ______ ____
ROOT
ATOM      1  S   UNL     1     -10.742  54.367  51.535  0.00  0.00    +0.000 S 
ATOM      2  O   UNL     1     -10.138  55.436  52.297  0.00  0.00    +0.000 OA
ATOM      3  O   UNL     1     -11.710  53.464  52.116  0.00  0.00    +0.000 OA
ATOM      4  N   UNL     1      -9.538  53.439  50.894  0.00  0.00    +0.000 N 
ATOM      5  C   UNL     1     -11.449  55.069  50.107  0.00  0.00    +0.000 A 
ATOM      6  C   UNL     1      -8.870  53.793  49.725  0.00  0.00    +0.000 C 
ATOM      7  C   UNL     1     -10.675  55.087  48.951  0.00  0.00    +0.000 A 
ATOM      8  C   UNL     1     -12.754  55.566  50.147  0.00  0.00    +0.000 A 
ATOM      9  N   UNL     1      -9.363  54.611  48.848  0.00  0.00    +0.000 N 
ATOM     10  C   UNL     1     -11.252  55.607  47.790  0.00  0.00    +0.000 A 
ATOM     11  C   UNL     1     -13.295  56.109  48.987  0.00  0.00    +0.000 A 
ATOM     12  C   UNL     1     -12.556  56.103  47.805  0.00  0.00    +0.000 A 
ATOM     13  H   UNL     1      -9.284  52.606  51.353  0.00  0.00    +0.000 HD
ATOM     14  H   UNL     1      -8.801  54.905  48.094  0.00  0.00    +0.000 HD
ENDROOT
BRANCH   6  15
ATOM     15  C   UNL     1      -7.519  53.198  49.548  0.00  0.00    +0.000 A 
ATOM     16  C   UNL     1      -6.364  53.641  50.378  0.00  0.00    +0.000 A 
ATOM     17  C   UNL     1      -7.354  52.258  48.597  0.00  0.00    +0.000 A 
ATOM     18  O   UNL     1      -6.539  54.526  51.219  0.00  0.00    +0.000 OA
ATOM     19  N   UNL     1      -5.147  53.016  50.179  0.00  0.00    +0.000 N 
ATOM     20  C   UNL     1      -6.024  51.701  48.341  0.00  0.00    +0.000 A 
ATOM     21  C   UNL     1      -4.942  52.075  49.139  0.00  0.00    +0.000 A 
ATOM     22  C   UNL     1      -5.790  50.798  47.297  0.00  0.00    +0.000 A 
ATOM     23  N   UNL     1      -3.693  51.587  48.945  0.00  0.00    +0.000 NA
ATOM     24  C   UNL     1      -4.510  50.305  47.077  0.00  0.00    +0.000 A 
ATOM     25  C   UNL     1      -3.502  50.725  47.923  0.00  0.00    +0.000 A 
BRANCH  17  26
ATOM     26  O   UNL     1      -8.362  51.758  47.790  0.00  0.00    +0.000 OA
ATOM     27  H   UNL     1      -8.942  52.345  47.347  0.00  0.00    +0.000 HD
ENDBRANCH  17  26
BRANCH  19  28
ATOM     28  C   UNL     1      -3.997  53.400  51.000  0.00  0.00    +0.000 C 
BRANCH  28  29
ATOM     29  C   UNL     1      -3.822  52.470  52.205  0.00  0.00    +0.000 C 
BRANCH  29  30
ATOM     30  C   UNL     1      -3.992  53.163  53.568  0.00  0.00    +0.000 C 
ATOM     31  C   UNL     1      -3.647  54.653  53.521  0.00  0.00    +0.000 C 
ATOM     32  C   UNL     1      -5.437  52.989  54.046  0.00  0.00    +0.000 C 
ENDBRANCH  29  30
ENDBRANCH  28  29
ENDBRANCH  19  28
ENDBRANCH   6  15
BRANCH  11  33
ATOM     33  O   UNL     1     -14.550  56.633  48.888  0.00  0.00    +0.000 OA
BRANCH  33  34
ATOM     34  C   UNL     1     -15.401  56.409  50.015  0.00  0.00    +0.000 C 
BRANCH  34  35
ATOM     35  C   UNL     1     -15.273  57.574  50.998  0.00  0.00    +0.000 C 
ATOM     36  O   UNL     1     -15.158  58.737  50.618  0.00  0.00    +0.000 OA
ATOM     37  N   UNL     1     -15.322  57.202  52.323  0.00  0.00    +0.000 N 
ATOM     38  C   UNL     1     -15.240  58.133  53.417  0.00  0.00    +0.000 C 
ATOM     39  H   UNL     1     -15.420  56.245  52.533  0.00  0.00    +0.000 HD
ENDBRANCH  34  35
ENDBRANCH  33  34
ENDBRANCH  11  33
TORSDOF 8
ENDMDL
MODEL 6
REMARK VINA RESULT:      -6.8      2.211      4.234
REMARK  Name = 353260
REMARK  11 active torsions:
REMARK  status: ('A' for Active; 'I' for Inactive)
REMARK    1  A    between atoms: C_6  and  C_10
REMARK    2  A    between atoms: C_12  and  O_16
REMARK    3  A    between atoms: C_14  and  O_19
REMARK    4  A    between atoms: O_16  and  C_21
REMARK    5  A    between atoms: N_18  and  C_23
REMARK    6  A    between atoms: C_21  and  C_25
REMARK    7  A    between atoms: C_23  and  C_27
REMARK    8  A    between atoms: C_27  and  C_32
REMARK    9  A    between atoms: N_30  and  C_33
REMARK   10  A    between atoms: C_32  and  C_34
REMARK   11  A    between atoms: C_32  and  C_35
REMARK                            x       y       z     vdW  Elec       q    Type
REMARK                         _______ _______ _______ _____ _____    ______ ____
ROOT
ATOM      1  S   UNL     1      -9.655  54.445  52.178  0.00  0.00    +0.000 S 
ATOM      2  O   UNL     1      -8.761  55.580  52.162  0.00  0.00    +0.000 OA
ATOM      3  O   UNL     1     -10.046  53.793  53.407  0.00  0.00    +0.000 OA
ATOM      4  N   UNL     1      -9.034  53.279  51.189  0.00  0.00    +0.000 N 
ATOM      5  C   UNL     1     -11.103  54.900  51.325  0.00  0.00    +0.000 A 
ATOM      6  C   UNL     1      -9.210  53.305  49.808  0.00  0.00    +0.000 C 
ATOM      7  C   UNL     1     -11.174  54.591  49.970  0.00  0.00    +0.000 A 
ATOM      8  C   UNL     1     -12.146  55.529  52.009  0.00  0.00    +0.000 A 
ATOM      9  N   UNL     1     -10.163  53.966  49.229  0.00  0.00    +0.000 N 
ATOM     10  C   UNL     1     -12.350  54.911  49.291  0.00  0.00    +0.000 A 
ATOM     11  C   UNL     1     -13.295  55.869  51.303  0.00  0.00    +0.000 A 
ATOM     12  C   UNL     1     -13.408  55.535  49.954  0.00  0.00    +0.000 A 
ATOM     13  H   UNL     1      -8.521  52.540  51.588  0.00  0.00    +0.000 HD
ATOM     14  H   UNL     1     -10.176  54.033  48.247  0.00  0.00    +0.000 HD
ENDROOT
BRANCH   6  15
ATOM     15  C   UNL     1      -8.209  52.547  49.014  0.00  0.00    +0.000 A 
ATOM     16  C   UNL     1      -8.627  51.604  47.939  0.00  0.00    +0.000 A 
ATOM     17  C   UNL     1      -6.904  52.712  49.305  0.00  0.00    +0.000 A 
ATOM     18  O   UNL     1      -9.830  51.449  47.717  0.00  0.00    +0.000 OA
ATOM     19  N   UNL     1      -7.636  50.961  47.221  0.00  0.00    +0.000 N 
ATOM     20  C   UNL     1      -5.890  51.928  48.598  0.00  0.00    +0.000 A 
ATOM     21  C   UNL     1      -6.264  51.073  47.559  0.00  0.00    +0.000 A 
ATOM     22  C   UNL     1      -4.533  51.995  48.937  0.00  0.00    +0.000 A 
ATOM     23  N   UNL     1      -5.365  50.327  46.872  0.00  0.00    +0.000 NA
ATOM     24  C   UNL     1      -3.605  51.221  48.252  0.00  0.00    +0.000 A 
ATOM     25  C   UNL     1      -4.067  50.410  47.233  0.00  0.00    +0.000 A 
BRANCH  17  26
ATOM     26  O   UNL     1      -6.407  53.579  50.264  0.00  0.00    +0.000 OA
ATOM     27  H   UNL     1      -6.798  54.422  50.381  0.00  0.00    +0.000 HD
ENDBRANCH  17  26
BRANCH  19  28
ATOM     28  C   UNL     1      -8.007  50.053  46.134  0.00  0.00    +0.000 C 
BRANCH  28  29
ATOM     29  C   UNL     1      -7.878  50.724  44.763  0.00  0.00    +0.000 C 
BRANCH  29  30
ATOM     30  C   UNL     1      -9.117  51.526  44.332  0.00  0.00    +0.000 C 
ATOM     31  C   UNL     1      -8.914  53.038  44.448  0.00  0.00    +0.000 C 
ATOM     32  C   UNL     1      -9.472  51.168  42.885  0.00  0.00    +0.000 C 
ENDBRANCH  29  30
ENDBRANCH  28  29
ENDBRANCH  19  28
ENDBRANCH   6  15
BRANCH  11  33
ATOM     33  O   UNL     1     -14.382  56.490  51.843  0.00  0.00    +0.000 OA
BRANCH  33  34
ATOM     34  C   UNL     1     -15.174  57.252  50.927  0.00  0.00    +0.000 C 
BRANCH  34  35
ATOM     35  C   UNL     1     -14.753  58.722  50.979  0.00  0.00    +0.000 C 
ATOM     36  O   UNL     1     -15.063  59.455  51.915  0.00  0.00    +0.000 OA
ATOM     37  N   UNL     1     -13.986  59.127  49.910  0.00  0.00    +0.000 N 
ATOM     38  C   UNL     1     -13.464  60.459  49.761  0.00  0.00    +0.000 C 
ATOM     39  H   UNL     1     -13.783  58.467  49.207  0.00  0.00    +0.000 HD
ENDBRANCH  34  35
ENDBRANCH  33  34
ENDBRANCH  11  33
TORSDOF 8
ENDMDL
MODEL 7
REMARK VINA RESULT:      -6.7      1.313      1.889
REMARK  Name = 353260
REMARK  11 active torsions:
REMARK  status: ('A' for Active; 'I' for Inactive)
REMARK    1  A    between atoms: C_6  and  C_10
REMARK    2  A    between atoms: C_12  and  O_16
REMARK    3  A    between atoms: C_14  and  O_19
REMARK    4  A    between atoms: O_16  and  C_21
REMARK    5  A    between atoms: N_18  and  C_23
REMARK    6  A    between atoms: C_21  and  C_25
REMARK    7  A    between atoms: C_23  and  C_27
REMARK    8  A    between atoms: C_27  and  C_32
REMARK    9  A    between atoms: N_30  and  C_33
REMARK   10  A    between atoms: C_32  and  C_34
REMARK   11  A    between atoms: C_32  and  C_35
REMARK                            x       y       z     vdW  Elec       q    Type
REMARK                         _______ _______ _______ _____ _____    ______ ____
ROOT
ATOM      1  S   UNL     1     -10.770  54.791  51.286  0.00  0.00    +0.000 S 
ATOM      2  O   UNL     1      -9.786  55.848  51.265  0.00  0.00    +0.000 OA
ATOM      3  O   UNL     1     -10.987  53.967  52.454  0.00  0.00    +0.000 OA
ATOM      4  N   UNL     1     -10.467  53.772  50.025  0.00  0.00    +0.000 N 
ATOM      5  C   UNL     1     -12.299  55.483  50.825  0.00  0.00    +0.000 A 
ATOM      6  C   UNL     1     -10.897  54.045  48.729  0.00  0.00    +0.000 C 
ATOM      7  C   UNL     1     -12.655  55.415  49.481  0.00  0.00    +0.000 A 
ATOM      8  C   UNL     1     -13.127  56.056  51.794  0.00  0.00    +0.000 A 
ATOM      9  N   UNL     1     -11.870  54.859  48.464  0.00  0.00    +0.000 N 
ATOM     10  C   UNL     1     -13.900  55.928  49.111  0.00  0.00    +0.000 A 
ATOM     11  C   UNL     1     -14.348  56.590  51.396  0.00  0.00    +0.000 A 
ATOM     12  C   UNL     1     -14.746  56.500  50.063  0.00  0.00    +0.000 A 
ATOM     13  H   UNL     1      -9.965  52.942  50.193  0.00  0.00    +0.000 HD
ATOM     14  H   UNL     1     -12.061  55.093  47.526  0.00  0.00    +0.000 HD
ENDROOT
BRANCH   6  15
ATOM     15  C   UNL     1     -10.145  53.367  47.642  0.00  0.00    +0.000 A 
ATOM     16  C   UNL     1      -8.656  53.301  47.655  0.00  0.00    +0.000 A 
ATOM     17  C   UNL     1     -10.841  52.826  46.623  0.00  0.00    +0.000 A 
ATOM     18  O   UNL     1      -8.045  53.834  48.585  0.00  0.00    +0.000 OA
ATOM     19  N   UNL     1      -8.029  52.623  46.628  0.00  0.00    +0.000 N 
ATOM     20  C   UNL     1     -10.134  52.214  45.496  0.00  0.00    +0.000 A 
ATOM     21  C   UNL     1      -8.742  52.108  45.516  0.00  0.00    +0.000 A 
ATOM     22  C   UNL     1     -10.814  51.730  44.371  0.00  0.00    +0.000 A 
ATOM     23  N   UNL     1      -8.041  51.549  44.500  0.00  0.00    +0.000 NA
ATOM     24  C   UNL     1     -10.104  51.172  43.316  0.00  0.00    +0.000 A 
ATOM     25  C   UNL     1      -8.729  51.102  43.427  0.00  0.00    +0.000 A 
BRANCH  17  26
ATOM     26  O   UNL     1     -12.222  52.807  46.525  0.00  0.00    +0.000 OA
ATOM     27  H   UNL     1     -12.669  52.002  46.354  0.00  0.00    +0.000 HD
ENDBRANCH  17  26
BRANCH  19  28
ATOM     28  C   UNL     1      -6.569  52.508  46.624  0.00  0.00    +0.000 C 
BRANCH  28  29
ATOM     29  C   UNL     1      -6.088  51.354  47.508  0.00  0.00    +0.000 C 
BRANCH  29  30
ATOM     30  C   UNL     1      -4.830  51.671  48.334  0.00  0.00    +0.000 C 
ATOM     31  C   UNL     1      -3.611  50.858  47.893  0.00  0.00    +0.000 C 
ATOM     32  C   UNL     1      -4.514  53.166  48.219  0.00  0.00    +0.000 C 
ENDBRANCH  29  30
ENDBRANCH  28  29
ENDBRANCH  19  28
ENDBRANCH   6  15
BRANCH  11  33
ATOM     33  O   UNL     1     -15.245  57.182  52.234  0.00  0.00    +0.000 OA
BRANCH  33  34
ATOM     34  C   UNL     1     -14.951  58.535  52.594  0.00  0.00    +0.000 C 
BRANCH  34  35
ATOM     35  C   UNL     1     -14.885  59.402  51.335  0.00  0.00    +0.000 C 
ATOM     36  O   UNL     1     -15.896  59.843  50.795  0.00  0.00    +0.000 OA
ATOM     37  N   UNL     1     -13.606  59.655  50.891  0.00  0.00    +0.000 N 
ATOM     38  C   UNL     1     -13.307  60.461  49.738  0.00  0.00    +0.000 C 
ATOM     39  H   UNL     1     -12.855  59.262  51.392  0.00  0.00    +0.000 HD
ENDBRANCH  34  35
ENDBRANCH  33  34
ENDBRANCH  11  33
TORSDOF 8
ENDMDL
MODEL 8
REMARK VINA RESULT:      -6.5      4.509      7.351
REMARK  Name = 353260
REMARK  11 active torsions:
REMARK  status: ('A' for Active; 'I' for Inactive)
REMARK    1  A    between atoms: C_6  and  C_10
REMARK    2  A    between atoms: C_12  and  O_16
REMARK    3  A    between atoms: C_14  and  O_19
REMARK    4  A    between atoms: O_16  and  C_21
REMARK    5  A    between atoms: N_18  and  C_23
REMARK    6  A    between atoms: C_21  and  C_25
REMARK    7  A    between atoms: C_23  and  C_27
REMARK    8  A    between atoms: C_27  and  C_32
REMARK    9  A    between atoms: N_30  and  C_33
REMARK   10  A    between atoms: C_32  and  C_34
REMARK   11  A    between atoms: C_32  and  C_35
REMARK                            x       y       z     vdW  Elec       q    Type
REMARK                         _______ _______ _______ _____ _____    ______ ____
ROOT
ATOM      1  S   UNL     1      -6.845  50.386  50.919  0.00  0.00    +0.000 S 
ATOM      2  O   UNL     1      -6.087  49.239  50.474  0.00  0.00    +0.000 OA
ATOM      3  O   UNL     1      -7.676  50.345  52.101  0.00  0.00    +0.000 OA
ATOM      4  N   UNL     1      -7.800  50.894  49.673  0.00  0.00    +0.000 N 
ATOM      5  C   UNL     1      -5.738  51.720  51.084  0.00  0.00    +0.000 A 
ATOM      6  C   UNL     1      -7.317  51.703  48.648  0.00  0.00    +0.000 C 
ATOM      7  C   UNL     1      -5.599  52.576  49.996  0.00  0.00    +0.000 A 
ATOM      8  C   UNL     1      -5.049  51.909  52.284  0.00  0.00    +0.000 A 
ATOM      9  N   UNL     1      -6.256  52.438  48.768  0.00  0.00    +0.000 N 
ATOM     10  C   UNL     1      -4.748  53.674  50.138  0.00  0.00    +0.000 A 
ATOM     11  C   UNL     1      -4.181  52.991  52.390  0.00  0.00    +0.000 A 
ATOM     12  C   UNL     1      -4.053  53.887  51.329  0.00  0.00    +0.000 A 
ATOM     13  H   UNL     1      -8.744  50.614  49.653  0.00  0.00    +0.000 HD
ATOM     14  H   UNL     1      -5.904  52.908  47.978  0.00  0.00    +0.000 HD
ENDROOT
BRANCH   6  15
ATOM     15  C   UNL     1      -8.079  51.654  47.373  0.00  0.00    +0.000 A 
ATOM     16  C   UNL     1      -9.486  52.138  47.293  0.00  0.00    +0.000 A 
ATOM     17  C   UNL     1      -7.474  51.137  46.286  0.00  0.00    +0.000 A 
ATOM     18  O   UNL     1     -10.024  52.577  48.312  0.00  0.00    +0.000 OA
ATOM     19  N   UNL     1     -10.116  52.092  46.064  0.00  0.00    +0.000 N 
ATOM     20  C   UNL     1      -8.214  51.001  45.030  0.00  0.00    +0.000 A 
ATOM     21  C   UNL     1      -9.518  51.490  44.929  0.00  0.00    +0.000 A 
ATOM     22  C   UNL     1      -7.656  50.379  43.906  0.00  0.00    +0.000 A 
ATOM     23  N   UNL     1     -10.245  51.392  43.789  0.00  0.00    +0.000 NA
ATOM     24  C   UNL     1      -8.398  50.256  42.739  0.00  0.00    +0.000 A 
ATOM     25  C   UNL     1      -9.678  50.776  42.729  0.00  0.00    +0.000 A 
BRANCH  17  26
ATOM     26  O   UNL     1      -6.166  50.684  46.245  0.00  0.00    +0.000 OA
ATOM     27  H   UNL     1      -5.650  50.812  45.473  0.00  0.00    +0.000 HD
ENDBRANCH  17  26
BRANCH  19  28
ATOM     28  C   UNL     1     -11.488  52.590  45.938  0.00  0.00    +0.000 C 
BRANCH  28  29
ATOM     29  C   UNL     1     -11.533  53.965  45.264  0.00  0.00    +0.000 C 
BRANCH  29  30
ATOM     30  C   UNL     1     -11.528  55.150  46.244  0.00  0.00    +0.000 C 
ATOM     31  C   UNL     1     -12.283  54.850  47.540  0.00  0.00    +0.000 C 
ATOM     32  C   UNL     1     -10.079  55.527  46.573  0.00  0.00    +0.000 C 
ENDBRANCH  29  30
ENDBRANCH  28  29
ENDBRANCH  19  28
ENDBRANCH   6  15
BRANCH  11  33
ATOM     33  O   UNL     1      -3.444  53.289  53.497  0.00  0.00    +0.000 OA
BRANCH  33  34
ATOM     34  C   UNL     1      -3.658  54.592  54.047  0.00  0.00    +0.000 C 
BRANCH  34  35
ATOM     35  C   UNL     1      -5.148  54.798  54.324  0.00  0.00    +0.000 C 
ATOM     36  O   UNL     1      -5.758  54.116  55.144  0.00  0.00    +0.000 OA
ATOM     37  N   UNL     1      -5.720  55.817  53.598  0.00  0.00    +0.000 N 
ATOM     38  C   UNL     1      -7.103  56.199  53.712  0.00  0.00    +0.000 C 
ATOM     39  H   UNL     1      -5.151  56.314  52.966  0.00  0.00    +0.000 HD
ENDBRANCH  34  35
ENDBRANCH  33  34
ENDBRANCH  11  33
TORSDOF 8
ENDMDL
MODEL 9
REMARK VINA RESULT:      -6.5      3.815      9.239
REMARK  Name = 353260
REMARK  11 active torsions:
REMARK  status: ('A' for Active; 'I' for Inactive)
REMARK    1  A    between atoms: C_6  and  C_10
REMARK    2  A    between atoms: C_12  and  O_16
REMARK    3  A    between atoms: C_14  and  O_19
REMARK    4  A    between atoms: O_16  and  C_21
REMARK    5  A    between atoms: N_18  and  C_23
REMARK    6  A    between atoms: C_21  and  C_25
REMARK    7  A    between atoms: C_23  and  C_27
REMARK    8  A    between atoms: C_27  and  C_32
REMARK    9  A    between atoms: N_30  and  C_33
REMARK   10  A    between atoms: C_32  and  C_34
REMARK   11  A    between atoms: C_32  and  C_35
REMARK                            x       y       z     vdW  Elec       q    Type
REMARK                         _______ _______ _______ _____ _____    ______ ____
ROOT
ATOM      1  S   UNL     1      -9.383  52.160  52.617  0.00  0.00    +0.000 S 
ATOM      2  O   UNL     1      -9.439  51.167  51.569  0.00  0.00    +0.000 OA
ATOM      3  O   UNL     1      -9.673  51.839  53.996  0.00  0.00    +0.000 OA
ATOM      4  N   UNL     1     -10.366  53.417  52.196  0.00  0.00    +0.000 N 
ATOM      5  C   UNL     1      -7.810  52.904  52.556  0.00  0.00    +0.000 A 
ATOM      6  C   UNL     1      -9.956  54.421  51.323  0.00  0.00    +0.000 C 
ATOM      7  C   UNL     1      -7.682  54.074  51.814  0.00  0.00    +0.000 A 
ATOM      8  C   UNL     1      -6.742  52.336  53.256  0.00  0.00    +0.000 A 
ATOM      9  N   UNL     1      -8.709  54.689  51.090  0.00  0.00    +0.000 N 
ATOM     10  C   UNL     1      -6.434  54.701  51.799  0.00  0.00    +0.000 A 
ATOM     11  C   UNL     1      -5.501  52.960  53.198  0.00  0.00    +0.000 A 
ATOM     12  C   UNL     1      -5.355  54.155  52.495  0.00  0.00    +0.000 A 
ATOM     13  H   UNL     1     -11.274  53.458  52.575  0.00  0.00    +0.000 HD
ATOM     14  H   UNL     1      -8.480  55.339  50.386  0.00  0.00    +0.000 HD
ENDROOT
BRANCH   6  15
ATOM     15  C   UNL     1     -11.044  55.162  50.635  0.00  0.00    +0.000 A 
ATOM     16  C   UNL     1     -12.239  55.652  51.380  0.00  0.00    +0.000 A 
ATOM     17  C   UNL     1     -10.940  55.365  49.307  0.00  0.00    +0.000 A 
ATOM     18  O   UNL     1     -12.322  55.424  52.589  0.00  0.00    +0.000 OA
ATOM     19  N   UNL     1     -13.192  56.364  50.677  0.00  0.00    +0.000 N 
ATOM     20  C   UNL     1     -12.025  56.025  48.579  0.00  0.00    +0.000 A 
ATOM     21  C   UNL     1     -13.130  56.526  49.270  0.00  0.00    +0.000 A 
ATOM     22  C   UNL     1     -12.003  56.166  47.186  0.00  0.00    +0.000 A 
ATOM     23  N   UNL     1     -14.159  57.147  48.644  0.00  0.00    +0.000 NA
ATOM     24  C   UNL     1     -13.060  56.784  46.532  0.00  0.00    +0.000 A 
ATOM     25  C   UNL     1     -14.107  57.256  47.299  0.00  0.00    +0.000 A 
BRANCH  17  26
ATOM     26  O   UNL     1      -9.865  54.976  48.526  0.00  0.00    +0.000 OA
ATOM     27  H   UNL     1      -9.874  55.138  47.603  0.00  0.00    +0.000 HD
ENDBRANCH  17  26
BRANCH  19  28
ATOM     28  C   UNL     1     -14.364  56.890  51.381  0.00  0.00    +0.000 C 
BRANCH  28  29
ATOM     29  C   UNL     1     -13.964  57.821  52.530  0.00  0.00    +0.000 C 
BRANCH  29  30
ATOM     30  C   UNL     1     -14.510  59.254  52.402  0.00  0.00    +0.000 C 
ATOM     31  C   UNL     1     -15.030  59.565  50.997  0.00  0.00    +0.000 C 
ATOM     32  C   UNL     1     -15.636  59.458  53.420  0.00  0.00    +0.000 C 
ENDBRANCH  29  30
ENDBRANCH  28  29
ENDBRANCH  19  28
ENDBRANCH   6  15
BRANCH  11  33
ATOM     33  O   UNL     1      -4.377  52.511  53.826  0.00  0.00    +0.000 OA
BRANCH  33  34
ATOM     34  C   UNL     1      -3.300  52.133  52.963  0.00  0.00    +0.000 C 
BRANCH  34  35
ATOM     35  C   UNL     1      -3.623  50.799  52.289  0.00  0.00    +0.000 C 
ATOM     36  O   UNL     1      -3.558  49.731  52.893  0.00  0.00    +0.000 OA
ATOM     37  N   UNL     1      -4.009  50.912  50.972  0.00  0.00    +0.000 N 
ATOM     38  C   UNL     1      -4.377  49.790  50.149  0.00  0.00    +0.000 C 
ATOM     39  H   UNL     1      -4.036  51.811  50.572  0.00  0.00    +0.000 HD
ENDBRANCH  34  35
ENDBRANCH  33  34
ENDBRANCH  11  33
TORSDOF 8
ENDMDL
