MODEL 1
REMARK VINA RESULT:      -7.0      0.000      0.000
REMARK  Name = 353262
REMARK  12 active torsions:
REMARK  status: ('A' for Active; 'I' for Inactive)
REMARK    1  A    between atoms: C_6  and  C_10
REMARK    2  A    between atoms: C_12  and  N_16
REMARK    3  A    between atoms: C_14  and  O_19
REMARK    4  A    between atoms: N_16  and  S_21
REMARK    5  A    between atoms: N_18  and  C_23
REMARK    6  A    between atoms: S_21  and  C_27
REMARK    7  A    between atoms: C_23  and  C_29
REMARK    8  A    between atoms: C_27  and  C_31
REMARK    9  A    between atoms: C_27  and  C_32
REMARK   10  A    between atoms: C_29  and  C_34
REMARK   11  A    between atoms: C_34  and  C_35
REMARK   12  A    between atoms: C_34  and  C_36
REMARK                            x       y       z     vdW  Elec       q    Type
REMARK                         _______ _______ _______ _____ _____    ______ ____
ROOT
ATOM      1  S   UNL     1     -11.380  54.758  48.067  0.00  0.00    +0.000 S 
ATOM      2  O   UNL     1     -12.287  53.724  47.615  0.00  0.00    +0.000 OA
ATOM      3  O   UNL     1     -11.097  55.910  47.230  0.00  0.00    +0.000 OA
ATOM      4  N   UNL     1      -9.969  54.048  48.420  0.00  0.00    +0.000 N 
ATOM      5  C   UNL     1     -12.052  55.399  49.555  0.00  0.00    +0.000 A 
ATOM      6  C   UNL     1      -9.571  53.906  49.649  0.00  0.00    +0.000 C 
ATOM      7  C   UNL     1     -11.399  55.098  50.743  0.00  0.00    +0.000 A 
ATOM      8  C   UNL     1     -13.195  56.198  49.516  0.00  0.00    +0.000 A 
ATOM      9  N   UNL     1     -10.269  54.288  50.770  0.00  0.00    +0.000 N 
ATOM     10  C   UNL     1     -11.945  55.569  51.939  0.00  0.00    +0.000 A 
ATOM     11  C   UNL     1     -13.712  56.665  50.719  0.00  0.00    +0.000 A 
ATOM     12  C   UNL     1     -13.091  56.362  51.927  0.00  0.00    +0.000 A 
ATOM     13  H   UNL     1      -9.399  53.718  47.688  0.00  0.00    +0.000 HD
ATOM     14  H   UNL     1      -9.951  53.968  51.644  0.00  0.00    +0.000 HD
ENDROOT
BRANCH   6  15
ATOM     15  C   UNL     1      -8.204  53.298  49.836  0.00  0.00    +0.000 A 
ATOM     16  C   UNL     1      -7.269  53.876  50.855  0.00  0.00    +0.000 A 
ATOM     17  C   UNL     1      -7.829  52.230  49.109  0.00  0.00    +0.000 A 
ATOM     18  O   UNL     1      -7.685  54.778  51.590  0.00  0.00    +0.000 OA
ATOM     19  N   UNL     1      -5.989  53.371  50.935  0.00  0.00    +0.000 N 
ATOM     20  C   UNL     1      -6.471  51.703  49.232  0.00  0.00    +0.000 A 
ATOM     21  C   UNL     1      -5.560  52.293  50.112  0.00  0.00    +0.000 A 
ATOM     22  C   UNL     1      -6.028  50.637  48.440  0.00  0.00    +0.000 A 
ATOM     23  N   UNL     1      -4.278  51.877  50.220  0.00  0.00    +0.000 NA
ATOM     24  C   UNL     1      -4.714  50.209  48.533  0.00  0.00    +0.000 A 
ATOM     25  C   UNL     1      -3.885  50.856  49.431  0.00  0.00    +0.000 A 
BRANCH  17  26
ATOM     26  O   UNL     1      -8.631  51.577  48.192  0.00  0.00    +0.000 OA
ATOM     27  H   UNL     1      -8.452  51.654  47.275  0.00  0.00    +0.000 HD
ENDBRANCH  17  26
BRANCH  19  28
ATOM     28  C   UNL     1      -5.022  53.974  51.855  0.00  0.00    +0.000 C 
BRANCH  28  29
ATOM     29  C   UNL     1      -5.029  53.292  53.232  0.00  0.00    +0.000 C 
BRANCH  29  30
ATOM     30  C   UNL     1      -4.947  54.257  54.434  0.00  0.00    +0.000 C 
ATOM     31  C   UNL     1      -3.961  55.404  54.209  0.00  0.00    +0.000 C 
ATOM     32  C   UNL     1      -6.338  54.833  54.720  0.00  0.00    +0.000 C 
ENDBRANCH  29  30
ENDBRANCH  28  29
ENDBRANCH  19  28
ENDBRANCH   6  15
BRANCH  11  33
ATOM     33  N   UNL     1     -14.873  57.464  50.749  0.00  0.00    +0.000 N 
ATOM     34  H   UNL     1     -15.756  57.060  50.583  0.00  0.00    +0.000 HD
BRANCH  33  35
ATOM     35  S   UNL     1     -14.746  59.103  51.070  0.00  0.00    +0.000 S 
ATOM     36  O   UNL     1     -16.103  59.609  51.108  0.00  0.00    +0.000 OA
ATOM     37  O   UNL     1     -13.835  59.308  52.168  0.00  0.00    +0.000 OA
BRANCH  35  38
ATOM     38  C   UNL     1     -13.972  59.699  49.549  0.00  0.00    +0.000 C 
ATOM     39  C   UNL     1     -14.864  60.698  48.817  0.00  0.00    +0.000 C 
ATOM     40  C   UNL     1     -12.621  60.324  49.876  0.00  0.00    +0.000 C 
ENDBRANCH  35  38
ENDBRANCH  33  35
ENDBRANCH  11  33
TORSDOF 8
ENDMDL
MODEL 2
REMARK VINA RESULT:      -7.0      2.912      5.127
REMARK  Name = 353262
REMARK  12 active torsions:
REMARK  status: ('A' for Active; 'I' for Inactive)
REMARK    1  A    between atoms: C_6  and  C_10
REMARK    2  A    between atoms: C_12  and  N_16
REMARK    3  A    between atoms: C_14  and  O_19
REMARK    4  A    between atoms: N_16  and  S_21
REMARK    5  A    between atoms: N_18  and  C_23
REMARK    6  A    between atoms: S_21  and  C_27
REMARK    7  A    between atoms: C_23  and  C_29
REMARK    8  A    between atoms: C_27  and  C_31
REMARK    9  A    between atoms: C_27  and  C_32
REMARK   10  A    between atoms: C_29  and  C_34
REMARK   11  A    between atoms: C_34  and  C_35
REMARK   12  A    between atoms: C_34  and  C_36
REMARK                            x       y       z     vdW  Elec       q    Type
REMARK                         _______ _______ _______ _____ _____    ______ ____
ROOT
ATOM      1  S   UNL     1     -10.549  54.471  51.139  0.00  0.00    +0.000 S 
ATOM      2  O   UNL     1      -9.891  55.507  51.908  0.00  0.00    +0.000 OA
ATOM      3  O   UNL     1     -11.395  53.491  51.794  0.00  0.00    +0.000 OA
ATOM      4  N   UNL     1      -9.404  53.667  50.325  0.00  0.00    +0.000 N 
ATOM      5  C   UNL     1     -11.572  55.287  49.971  0.00  0.00    +0.000 A 
ATOM      6  C   UNL     1      -9.271  53.795  49.038  0.00  0.00    +0.000 C 
ATOM      7  C   UNL     1     -11.193  55.246  48.636  0.00  0.00    +0.000 A 
ATOM      8  C   UNL     1     -12.735  55.931  50.394  0.00  0.00    +0.000 A 
ATOM      9  N   UNL     1     -10.023  54.613  48.229  0.00  0.00    +0.000 N 
ATOM     10  C   UNL     1     -11.977  55.924  47.701  0.00  0.00    +0.000 A 
ATOM     11  C   UNL     1     -13.506  56.588  49.442  0.00  0.00    +0.000 A 
ATOM     12  C   UNL     1     -13.138  56.583  48.100  0.00  0.00    +0.000 A 
ATOM     13  H   UNL     1      -8.795  53.068  50.815  0.00  0.00    +0.000 HD
ATOM     14  H   UNL     1      -9.714  54.761  47.307  0.00  0.00    +0.000 HD
ENDROOT
BRANCH   6  15
ATOM     15  C   UNL     1      -8.216  52.933  48.393  0.00  0.00    +0.000 A 
ATOM     16  C   UNL     1      -8.593  52.019  47.266  0.00  0.00    +0.000 A 
ATOM     17  C   UNL     1      -6.939  52.993  48.810  0.00  0.00    +0.000 A 
ATOM     18  O   UNL     1      -9.747  52.073  46.826  0.00  0.00    +0.000 OA
ATOM     19  N   UNL     1      -7.635  51.165  46.763  0.00  0.00    +0.000 N 
ATOM     20  C   UNL     1      -5.940  52.090  48.240  0.00  0.00    +0.000 A 
ATOM     21  C   UNL     1      -6.300  51.168  47.254  0.00  0.00    +0.000 A 
ATOM     22  C   UNL     1      -4.618  52.081  48.701  0.00  0.00    +0.000 A 
ATOM     23  N   UNL     1      -5.426  50.276  46.738  0.00  0.00    +0.000 NA
ATOM     24  C   UNL     1      -3.716  51.163  48.188  0.00  0.00    +0.000 A 
ATOM     25  C   UNL     1      -4.165  50.288  47.216  0.00  0.00    +0.000 A 
BRANCH  17  26
ATOM     26  O   UNL     1      -6.467  53.844  49.792  0.00  0.00    +0.000 OA
ATOM     27  H   UNL     1      -6.753  54.737  49.814  0.00  0.00    +0.000 HD
ENDBRANCH  17  26
BRANCH  19  28
ATOM     28  C   UNL     1      -7.995  50.196  45.725  0.00  0.00    +0.000 C 
BRANCH  28  29
ATOM     29  C   UNL     1      -7.900  50.797  44.313  0.00  0.00    +0.000 C 
BRANCH  29  30
ATOM     30  C   UNL     1      -9.225  50.798  43.520  0.00  0.00    +0.000 C 
ATOM     31  C   UNL     1     -10.338  50.019  44.221  0.00  0.00    +0.000 C 
ATOM     32  C   UNL     1      -9.682  52.244  43.296  0.00  0.00    +0.000 C 
ENDBRANCH  29  30
ENDBRANCH  28  29
ENDBRANCH  19  28
ENDBRANCH   6  15
BRANCH  11  33
ATOM     33  N   UNL     1     -14.684  57.272  49.808  0.00  0.00    +0.000 N 
ATOM     34  H   UNL     1     -15.566  56.889  49.592  0.00  0.00    +0.000 HD
BRANCH  33  35
ATOM     35  S   UNL     1     -14.577  58.737  50.612  0.00  0.00    +0.000 S 
ATOM     36  O   UNL     1     -13.224  59.209  50.403  0.00  0.00    +0.000 OA
ATOM     37  O   UNL     1     -15.718  59.553  50.277  0.00  0.00    +0.000 OA
BRANCH  35  38
ATOM     38  C   UNL     1     -14.722  58.205  52.333  0.00  0.00    +0.000 C 
ATOM     39  C   UNL     1     -15.294  59.309  53.217  0.00  0.00    +0.000 C 
ATOM     40  C   UNL     1     -15.589  56.953  52.407  0.00  0.00    +0.000 C 
ENDBRANCH  35  38
ENDBRANCH  33  35
ENDBRANCH  11  33
TORSDOF 8
ENDMDL
MODEL 3
REMARK VINA RESULT:      -6.8      2.842      4.124
REMARK  Name = 353262
REMARK  12 active torsions:
REMARK  status: ('A' for Active; 'I' for Inactive)
REMARK    1  A    between atoms: C_6  and  C_10
REMARK    2  A    between atoms: C_12  and  N_16
REMARK    3  A    between atoms: C_14  and  O_19
REMARK    4  A    between atoms: N_16  and  S_21
REMARK    5  A    between atoms: N_18  and  C_23
REMARK    6  A    between atoms: S_21  and  C_27
REMARK    7  A    between atoms: C_23  and  C_29
REMARK    8  A    between atoms: C_27  and  C_31
REMARK    9  A    between atoms: C_27  and  C_32
REMARK   10  A    between atoms: C_29  and  C_34
REMARK   11  A    between atoms: C_34  and  C_35
REMARK   12  A    between atoms: C_34  and  C_36
REMARK                            x       y       z     vdW  Elec       q    Type
REMARK                         _______ _______ _______ _____ _____    ______ ____
ROOT
ATOM      1  S   UNL     1     -11.291  53.787  50.444  0.00  0.00    +0.000 S 
ATOM      2  O   UNL     1     -10.456  54.588  51.314  0.00  0.00    +0.000 OA
ATOM      3  O   UNL     1     -12.312  52.917  50.997  0.00  0.00    +0.000 OA
ATOM      4  N   UNL     1     -10.312  52.878  49.530  0.00  0.00    +0.000 N 
ATOM      5  C   UNL     1     -12.134  54.906  49.388  0.00  0.00    +0.000 A 
ATOM      6  C   UNL     1     -10.149  53.121  48.264  0.00  0.00    +0.000 C 
ATOM      7  C   UNL     1     -11.759  54.943  48.052  0.00  0.00    +0.000 A 
ATOM      8  C   UNL     1     -13.157  55.706  49.896  0.00  0.00    +0.000 A 
ATOM      9  N   UNL     1     -10.727  54.152  47.561  0.00  0.00    +0.000 N 
ATOM     10  C   UNL     1     -12.394  55.857  47.209  0.00  0.00    +0.000 A 
ATOM     11  C   UNL     1     -13.784  56.598  49.034  0.00  0.00    +0.000 A 
ATOM     12  C   UNL     1     -13.414  56.674  47.695  0.00  0.00    +0.000 A 
ATOM     13  H   UNL     1      -9.831  52.124  49.942  0.00  0.00    +0.000 HD
ATOM     14  H   UNL     1     -10.389  54.341  46.656  0.00  0.00    +0.000 HD
ENDROOT
BRANCH   6  15
ATOM     15  C   UNL     1      -9.270  52.153  47.512  0.00  0.00    +0.000 A 
ATOM     16  C   UNL     1      -7.943  51.758  48.087  0.00  0.00    +0.000 A 
ATOM     17  C   UNL     1      -9.678  51.630  46.342  0.00  0.00    +0.000 A 
ATOM     18  O   UNL     1      -7.648  52.161  49.217  0.00  0.00    +0.000 OA
ATOM     19  N   UNL     1      -7.113  50.956  47.333  0.00  0.00    +0.000 N 
ATOM     20  C   UNL     1      -8.783  50.764  45.577  0.00  0.00    +0.000 A 
ATOM     21  C   UNL     1      -7.506  50.464  46.058  0.00  0.00    +0.000 A 
ATOM     22  C   UNL     1      -9.152  50.259  44.325  0.00  0.00    +0.000 A 
ATOM     23  N   UNL     1      -6.623  49.714  45.361  0.00  0.00    +0.000 NA
ATOM     24  C   UNL     1      -8.251  49.500  43.595  0.00  0.00    +0.000 A 
ATOM     25  C   UNL     1      -7.010  49.257  44.153  0.00  0.00    +0.000 A 
BRANCH  17  26
ATOM     26  O   UNL     1     -10.906  51.871  45.754  0.00  0.00    +0.000 OA
ATOM     27  H   UNL     1     -11.605  52.232  46.263  0.00  0.00    +0.000 HD
ENDBRANCH  17  26
BRANCH  19  28
ATOM     28  C   UNL     1      -5.772  50.628  47.825  0.00  0.00    +0.000 C 
BRANCH  28  29
ATOM     29  C   UNL     1      -4.769  51.765  47.576  0.00  0.00    +0.000 C 
BRANCH  29  30
ATOM     30  C   UNL     1      -4.071  52.302  48.844  0.00  0.00    +0.000 C 
ATOM     31  C   UNL     1      -4.535  53.707  49.228  0.00  0.00    +0.000 C 
ATOM     32  C   UNL     1      -4.333  51.345  50.013  0.00  0.00    +0.000 C 
ENDBRANCH  29  30
ENDBRANCH  28  29
ENDBRANCH  19  28
ENDBRANCH   6  15
BRANCH  11  33
ATOM     33  N   UNL     1     -14.815  57.446  49.489  0.00  0.00    +0.000 N 
ATOM     34  H   UNL     1     -15.753  57.248  49.267  0.00  0.00    +0.000 HD
BRANCH  33  35
ATOM     35  S   UNL     1     -14.435  58.793  50.410  0.00  0.00    +0.000 S 
ATOM     36  O   UNL     1     -13.017  59.019  50.220  0.00  0.00    +0.000 OA
ATOM     37  O   UNL     1     -15.403  59.833  50.163  0.00  0.00    +0.000 OA
BRANCH  35  38
ATOM     38  C   UNL     1     -14.678  58.153  52.083  0.00  0.00    +0.000 C 
ATOM     39  C   UNL     1     -15.179  59.237  53.033  0.00  0.00    +0.000 C 
ATOM     40  C   UNL     1     -15.651  56.981  52.043  0.00  0.00    +0.000 C 
ENDBRANCH  35  38
ENDBRANCH  33  35
ENDBRANCH  11  33
TORSDOF 8
ENDMDL
MODEL 4
REMARK VINA RESULT:      -6.7      3.596      9.401
REMARK  Name = 353262
REMARK  12 active torsions:
REMARK  status: ('A' for Active; 'I' for Inactive)
REMARK    1  A    between atoms: C_6  and  C_10
REMARK    2  A    between atoms: C_12  and  N_16
REMARK    3  A    between atoms: C_14  and  O_19
REMARK    4  A    between atoms: N_16  and  S_21
REMARK    5  A    between atoms: N_18  and  C_23
REMARK    6  A    between atoms: S_21  and  C_27
REMARK    7  A    between atoms: C_23  and  C_29
REMARK    8  A    between atoms: C_27  and  C_31
REMARK    9  A    between atoms: C_27  and  C_32
REMARK   10  A    between atoms: C_29  and  C_34
REMARK   11  A    between atoms: C_34  and  C_35
REMARK   12  A    between atoms: C_34  and  C_36
REMARK                            x       y       z     vdW  Elec       q    Type
REMARK                         _______ _______ _______ _____ _____    ______ ____
ROOT
ATOM      1  S   UNL     1      -8.024  55.347  53.365  0.00  0.00    +0.000 S 
ATOM      2  O   UNL     1      -8.594  55.552  54.680  0.00  0.00    +0.000 OA
ATOM      3  O   UNL     1      -6.791  56.009  52.984  0.00  0.00    +0.000 OA
ATOM      4  N   UNL     1      -9.154  55.747  52.278  0.00  0.00    +0.000 N 
ATOM      5  C   UNL     1      -7.714  53.627  53.216  0.00  0.00    +0.000 A 
ATOM      6  C   UNL     1      -9.763  54.844  51.569  0.00  0.00    +0.000 C 
ATOM      7  C   UNL     1      -8.523  52.895  52.357  0.00  0.00    +0.000 A 
ATOM      8  C   UNL     1      -6.669  53.043  53.932  0.00  0.00    +0.000 A 
ATOM      9  N   UNL     1      -9.570  53.486  51.660  0.00  0.00    +0.000 N 
ATOM     10  C   UNL     1      -8.312  51.518  52.258  0.00  0.00    +0.000 A 
ATOM     11  C   UNL     1      -6.470  51.673  53.806  0.00  0.00    +0.000 A 
ATOM     12  C   UNL     1      -7.280  50.910  52.970  0.00  0.00    +0.000 A 
ATOM     13  H   UNL     1      -9.384  56.696  52.149  0.00  0.00    +0.000 HD
ATOM     14  H   UNL     1     -10.214  52.896  51.205  0.00  0.00    +0.000 HD
ENDROOT
BRANCH   6  15
ATOM     15  C   UNL     1     -10.738  55.356  50.539  0.00  0.00    +0.000 A 
ATOM     16  C   UNL     1     -10.463  55.132  49.083  0.00  0.00    +0.000 A 
ATOM     17  C   UNL     1     -11.859  55.994  50.920  0.00  0.00    +0.000 A 
ATOM     18  O   UNL     1      -9.489  54.440  48.768  0.00  0.00    +0.000 OA
ATOM     19  N   UNL     1     -11.312  55.700  48.158  0.00  0.00    +0.000 N 
ATOM     20  C   UNL     1     -12.753  56.566  49.915  0.00  0.00    +0.000 A 
ATOM     21  C   UNL     1     -12.458  56.445  48.555  0.00  0.00    +0.000 A 
ATOM     22  C   UNL     1     -13.890  57.295  50.281  0.00  0.00    +0.000 A 
ATOM     23  N   UNL     1     -13.223  57.004  47.591  0.00  0.00    +0.000 NA
ATOM     24  C   UNL     1     -14.676  57.883  49.303  0.00  0.00    +0.000 A 
ATOM     25  C   UNL     1     -14.303  57.710  47.983  0.00  0.00    +0.000 A 
BRANCH  17  26
ATOM     26  O   UNL     1     -12.246  56.197  52.232  0.00  0.00    +0.000 OA
ATOM     27  H   UNL     1     -12.199  55.492  52.848  0.00  0.00    +0.000 HD
ENDBRANCH  17  26
BRANCH  19  28
ATOM     28  C   UNL     1     -11.020  55.578  46.727  0.00  0.00    +0.000 C 
BRANCH  28  29
ATOM     29  C   UNL     1     -11.440  54.211  46.165  0.00  0.00    +0.000 C 
BRANCH  29  30
ATOM     30  C   UNL     1     -10.429  53.574  45.187  0.00  0.00    +0.000 C 
ATOM     31  C   UNL     1      -9.031  54.182  45.299  0.00  0.00    +0.000 C 
ATOM     32  C   UNL     1     -10.349  52.066  45.448  0.00  0.00    +0.000 C 
ENDBRANCH  29  30
ENDBRANCH  28  29
ENDBRANCH  19  28
ENDBRANCH   6  15
BRANCH  11  33
ATOM     33  N   UNL     1      -5.442  51.020  54.516  0.00  0.00    +0.000 N 
ATOM     34  H   UNL     1      -5.606  50.682  55.427  0.00  0.00    +0.000 HD
BRANCH  33  35
ATOM     35  S   UNL     1      -3.940  50.819  53.803  0.00  0.00    +0.000 S 
ATOM     36  O   UNL     1      -3.301  52.118  53.847  0.00  0.00    +0.000 OA
ATOM     37  O   UNL     1      -3.301  49.648  54.349  0.00  0.00    +0.000 OA
BRANCH  35  38
ATOM     38  C   UNL     1      -4.407  50.486  52.089  0.00  0.00    +0.000 C 
ATOM     39  C   UNL     1      -3.880  51.561  51.143  0.00  0.00    +0.000 C 
ATOM     40  C   UNL     1      -3.892  49.110  51.679  0.00  0.00    +0.000 C 
ENDBRANCH  35  38
ENDBRANCH  33  35
ENDBRANCH  11  33
TORSDOF 8
ENDMDL
MODEL 5
REMARK VINA RESULT:      -6.6      1.937      2.355
REMARK  Name = 353262
REMARK  12 active torsions:
REMARK  status: ('A' for Active; 'I' for Inactive)
REMARK    1  A    between atoms: C_6  and  C_10
REMARK    2  A    between atoms: C_12  and  N_16
REMARK    3  A    between atoms: C_14  and  O_19
REMARK    4  A    between atoms: N_16  and  S_21
REMARK    5  A    between atoms: N_18  and  C_23
REMARK    6  A    between atoms: S_21  and  C_27
REMARK    7  A    between atoms: C_23  and  C_29
REMARK    8  A    between atoms: C_27  and  C_31
REMARK    9  A    between atoms: C_27  and  C_32
REMARK   10  A    between atoms: C_29  and  C_34
REMARK   11  A    between atoms: C_34  and  C_35
REMARK   12  A    between atoms: C_34  and  C_36
REMARK                            x       y       z     vdW  Elec       q    Type
REMARK                         _______ _______ _______ _____ _____    ______ ____
ROOT
ATOM      1  S   UNL     1      -9.131  54.821  47.902  0.00  0.00    +0.000 S 
ATOM      2  O   UNL     1      -9.438  54.240  46.611  0.00  0.00    +0.000 OA
ATOM      3  O   UNL     1      -8.633  56.180  48.000  0.00  0.00    +0.000 OA
ATOM      4  N   UNL     1      -8.058  53.850  48.629  0.00  0.00    +0.000 N 
ATOM      5  C   UNL     1     -10.615  54.783  48.834  0.00  0.00    +0.000 A 
ATOM      6  C   UNL     1      -8.394  53.106  49.640  0.00  0.00    +0.000 C 
ATOM      7  C   UNL     1     -10.694  53.885  49.891  0.00  0.00    +0.000 A 
ATOM      8  C   UNL     1     -11.660  55.650  48.517  0.00  0.00    +0.000 A 
ATOM      9  N   UNL     1      -9.652  53.015  50.188  0.00  0.00    +0.000 N 
ATOM     10  C   UNL     1     -11.885  53.816  50.617  0.00  0.00    +0.000 A 
ATOM     11  C   UNL     1     -12.831  55.572  49.263  0.00  0.00    +0.000 A 
ATOM     12  C   UNL     1     -12.946  54.667  50.313  0.00  0.00    +0.000 A 
ATOM     13  H   UNL     1      -7.131  53.824  48.299  0.00  0.00    +0.000 HD
ATOM     14  H   UNL     1      -9.824  52.288  50.829  0.00  0.00    +0.000 HD
ENDROOT
BRANCH   6  15
ATOM     15  C   UNL     1      -7.283  52.308  50.273  0.00  0.00    +0.000 A 
ATOM     16  C   UNL     1      -6.940  52.529  51.715  0.00  0.00    +0.000 A 
ATOM     17  C   UNL     1      -6.613  51.387  49.557  0.00  0.00    +0.000 A 
ATOM     18  O   UNL     1      -7.650  53.293  52.378  0.00  0.00    +0.000 OA
ATOM     19  N   UNL     1      -5.854  51.865  52.242  0.00  0.00    +0.000 N 
ATOM     20  C   UNL     1      -5.479  50.682  50.151  0.00  0.00    +0.000 A 
ATOM     21  C   UNL     1      -5.090  50.948  51.466  0.00  0.00    +0.000 A 
ATOM     22  C   UNL     1      -4.719  49.769  49.411  0.00  0.00    +0.000 A 
ATOM     23  N   UNL     1      -4.016  50.364  52.041  0.00  0.00    +0.000 NA
ATOM     24  C   UNL     1      -3.608  49.172  49.985  0.00  0.00    +0.000 A 
ATOM     25  C   UNL     1      -3.300  49.500  51.292  0.00  0.00    +0.000 A 
BRANCH  17  26
ATOM     26  O   UNL     1      -6.887  51.054  48.243  0.00  0.00    +0.000 OA
ATOM     27  H   UNL     1      -6.187  50.836  47.660  0.00  0.00    +0.000 HD
ENDBRANCH  17  26
BRANCH  19  28
ATOM     28  C   UNL     1      -5.436  52.129  53.622  0.00  0.00    +0.000 C 
BRANCH  28  29
ATOM     29  C   UNL     1      -4.336  53.199  53.699  0.00  0.00    +0.000 C 
BRANCH  29  30
ATOM     30  C   UNL     1      -4.850  54.644  53.881  0.00  0.00    +0.000 C 
ATOM     31  C   UNL     1      -6.066  54.730  54.805  0.00  0.00    +0.000 C 
ATOM     32  C   UNL     1      -3.723  55.517  54.444  0.00  0.00    +0.000 C 
ENDBRANCH  29  30
ENDBRANCH  28  29
ENDBRANCH  19  28
ENDBRANCH   6  15
BRANCH  11  33
ATOM     33  N   UNL     1     -13.929  56.410  48.982  0.00  0.00    +0.000 N 
ATOM     34  H   UNL     1     -14.663  56.089  48.408  0.00  0.00    +0.000 HD
BRANCH  33  35
ATOM     35  S   UNL     1     -13.981  57.955  49.628  0.00  0.00    +0.000 S 
ATOM     36  O   UNL     1     -12.677  58.185  50.216  0.00  0.00    +0.000 OA
ATOM     37  O   UNL     1     -14.539  58.863  48.657  0.00  0.00    +0.000 OA
BRANCH  35  38
ATOM     38  C   UNL     1     -15.168  57.733  50.973  0.00  0.00    +0.000 C 
ATOM     39  C   UNL     1     -16.108  56.561  50.705  0.00  0.00    +0.000 C 
ATOM     40  C   UNL     1     -14.418  57.532  52.285  0.00  0.00    +0.000 C 
ENDBRANCH  35  38
ENDBRANCH  33  35
ENDBRANCH  11  33
TORSDOF 8
ENDMDL
MODEL 6
REMARK VINA RESULT:      -6.4      2.955      4.403
REMARK  Name = 353262
REMARK  12 active torsions:
REMARK  status: ('A' for Active; 'I' for Inactive)
REMARK    1  A    between atoms: C_6  and  C_10
REMARK    2  A    between atoms: C_12  and  N_16
REMARK    3  A    between atoms: C_14  and  O_19
REMARK    4  A    between atoms: N_16  and  S_21
REMARK    5  A    between atoms: N_18  and  C_23
REMARK    6  A    between atoms: S_21  and  C_27
REMARK    7  A    between atoms: C_23  and  C_29
REMARK    8  A    between atoms: C_27  and  C_31
REMARK    9  A    between atoms: C_27  and  C_32
REMARK   10  A    between atoms: C_29  and  C_34
REMARK   11  A    between atoms: C_34  and  C_35
REMARK   12  A    between atoms: C_34  and  C_36
REMARK                            x       y       z     vdW  Elec       q    Type
REMARK                         _______ _______ _______ _____ _____    ______ ____
ROOT
ATOM      1  S   UNL     1     -10.805  52.678  51.169  0.00  0.00    +0.000 S 
ATOM      2  O   UNL     1      -9.843  52.942  52.219  0.00  0.00    +0.000 OA
ATOM      3  O   UNL     1     -11.988  51.882  51.435  0.00  0.00    +0.000 OA
ATOM      4  N   UNL     1     -10.008  51.981  49.944  0.00  0.00    +0.000 N 
ATOM      5  C   UNL     1     -11.388  54.238  50.619  0.00  0.00    +0.000 A 
ATOM      6  C   UNL     1      -9.776  52.620  48.837  0.00  0.00    +0.000 C 
ATOM      7  C   UNL     1     -10.987  54.673  49.363  0.00  0.00    +0.000 A 
ATOM      8  C   UNL     1     -12.241  54.987  51.428  0.00  0.00    +0.000 A 
ATOM      9  N   UNL     1     -10.124  53.924  48.572  0.00  0.00    +0.000 N 
ATOM     10  C   UNL     1     -11.412  55.930  48.928  0.00  0.00    +0.000 A 
ATOM     11  C   UNL     1     -12.662  56.230  50.968  0.00  0.00    +0.000 A 
ATOM     12  C   UNL     1     -12.258  56.702  49.722  0.00  0.00    +0.000 A 
ATOM     13  H   UNL     1      -9.695  51.053  50.039  0.00  0.00    +0.000 HD
ATOM     14  H   UNL     1      -9.738  54.352  47.774  0.00  0.00    +0.000 HD
ENDROOT
BRANCH   6  15
ATOM     15  C   UNL     1      -9.092  51.832  47.748  0.00  0.00    +0.000 A 
ATOM     16  C   UNL     1      -7.830  51.084  48.056  0.00  0.00    +0.000 A 
ATOM     17  C   UNL     1      -9.619  51.780  46.512  0.00  0.00    +0.000 A 
ATOM     18  O   UNL     1      -7.436  51.053  49.227  0.00  0.00    +0.000 OA
ATOM     19  N   UNL     1      -7.167  50.458  47.023  0.00  0.00    +0.000 N 
ATOM     20  C   UNL     1      -8.903  51.088  45.441  0.00  0.00    +0.000 A 
ATOM     21  C   UNL     1      -7.678  50.467  45.695  0.00  0.00    +0.000 A 
ATOM     22  C   UNL     1      -9.391  51.074  44.129  0.00  0.00    +0.000 A 
ATOM     23  N   UNL     1      -6.953  49.864  44.726  0.00  0.00    +0.000 NA
ATOM     24  C   UNL     1      -8.652  50.470  43.125  0.00  0.00    +0.000 A 
ATOM     25  C   UNL     1      -7.449  49.883  43.472  0.00  0.00    +0.000 A 
BRANCH  17  26
ATOM     26  O   UNL     1     -10.809  52.373  46.134  0.00  0.00    +0.000 OA
ATOM     27  H   UNL     1     -11.488  52.504  46.767  0.00  0.00    +0.000 HD
ENDBRANCH  17  26
BRANCH  19  28
ATOM     28  C   UNL     1      -5.883  49.798  47.272  0.00  0.00    +0.000 C 
BRANCH  28  29
ATOM     29  C   UNL     1      -4.708  50.788  47.244  0.00  0.00    +0.000 C 
BRANCH  29  30
ATOM     30  C   UNL     1      -3.896  50.866  48.555  0.00  0.00    +0.000 C 
ATOM     31  C   UNL     1      -4.165  52.147  49.345  0.00  0.00    +0.000 C 
ATOM     32  C   UNL     1      -4.225  49.652  49.430  0.00  0.00    +0.000 C 
ENDBRANCH  29  30
ENDBRANCH  28  29
ENDBRANCH  19  28
ENDBRANCH   6  15
BRANCH  11  33
ATOM     33  N   UNL     1     -13.512  57.043  51.745  0.00  0.00    +0.000 N 
ATOM     34  H   UNL     1     -13.157  57.525  52.527  0.00  0.00    +0.000 HD
BRANCH  33  35
ATOM     35  S   UNL     1     -15.129  57.187  51.332  0.00  0.00    +0.000 S 
ATOM     36  O   UNL     1     -15.224  56.778  49.945  0.00  0.00    +0.000 OA
ATOM     37  O   UNL     1     -15.942  56.576  52.353  0.00  0.00    +0.000 OA
BRANCH  35  38
ATOM     38  C   UNL     1     -15.350  58.979  51.400  0.00  0.00    +0.000 C 
ATOM     39  C   UNL     1     -15.310  59.497  52.835  0.00  0.00    +0.000 C 
ATOM     40  C   UNL     1     -14.279  59.657  50.554  0.00  0.00    +0.000 C 
ENDBRANCH  35  38
ENDBRANCH  33  35
ENDBRANCH  11  33
TORSDOF 8
ENDMDL
MODEL 7
REMARK VINA RESULT:      -6.2      3.203      9.391
REMARK  Name = 353262
REMARK  12 active torsions:
REMARK  status: ('A' for Active; 'I' for Inactive)
REMARK    1  A    between atoms: C_6  and  C_10
REMARK    2  A    between atoms: C_12  and  N_16
REMARK    3  A    between atoms: C_14  and  O_19
REMARK    4  A    between atoms: N_16  and  S_21
REMARK    5  A    between atoms: N_18  and  C_23
REMARK    6  A    between atoms: S_21  and  C_27
REMARK    7  A    between atoms: C_23  and  C_29
REMARK    8  A    between atoms: C_27  and  C_31
REMARK    9  A    between atoms: C_27  and  C_32
REMARK   10  A    between atoms: C_29  and  C_34
REMARK   11  A    between atoms: C_34  and  C_35
REMARK   12  A    between atoms: C_34  and  C_36
REMARK                            x       y       z     vdW  Elec       q    Type
REMARK                         _______ _______ _______ _____ _____    ______ ____
ROOT
ATOM      1  S   UNL     1      -8.554  53.095  52.860  0.00  0.00    +0.000 S 
ATOM      2  O   UNL     1      -9.186  52.404  53.964  0.00  0.00    +0.000 OA
ATOM      3  O   UNL     1      -7.381  53.921  53.080  0.00  0.00    +0.000 OA
ATOM      4  N   UNL     1      -9.681  54.019  52.156  0.00  0.00    +0.000 N 
ATOM      5  C   UNL     1      -8.067  51.863  51.711  0.00  0.00    +0.000 A 
ATOM      6  C   UNL     1     -10.171  53.719  50.990  0.00  0.00    +0.000 C 
ATOM      7  C   UNL     1      -8.768  51.779  50.515  0.00  0.00    +0.000 A 
ATOM      8  C   UNL     1      -6.993  51.022  52.004  0.00  0.00    +0.000 A 
ATOM      9  N   UNL     1      -9.845  52.613  50.241  0.00  0.00    +0.000 N 
ATOM     10  C   UNL     1      -8.416  50.778  49.608  0.00  0.00    +0.000 A 
ATOM     11  C   UNL     1      -6.653  50.042  51.079  0.00  0.00    +0.000 A 
ATOM     12  C   UNL     1      -7.353  49.919  49.882  0.00  0.00    +0.000 A 
ATOM     13  H   UNL     1     -10.001  54.826  52.619  0.00  0.00    +0.000 HD
ATOM     14  H   UNL     1     -10.410  52.399  49.464  0.00  0.00    +0.000 HD
ENDROOT
BRANCH   6  15
ATOM     15  C   UNL     1     -11.157  54.703  50.413  0.00  0.00    +0.000 A 
ATOM     16  C   UNL     1     -12.145  55.378  51.316  0.00  0.00    +0.000 A 
ATOM     17  C   UNL     1     -11.141  54.993  49.100  0.00  0.00    +0.000 A 
ATOM     18  O   UNL     1     -12.058  55.182  52.533  0.00  0.00    +0.000 OA
ATOM     19  N   UNL     1     -13.103  56.192  50.752  0.00  0.00    +0.000 N 
ATOM     20  C   UNL     1     -12.157  55.879  48.534  0.00  0.00    +0.000 A 
ATOM     21  C   UNL     1     -13.141  56.440  49.351  0.00  0.00    +0.000 A 
ATOM     22  C   UNL     1     -12.208  56.145  47.161  0.00  0.00    +0.000 A 
ATOM     23  N   UNL     1     -14.134  57.219  48.866  0.00  0.00    +0.000 NA
ATOM     24  C   UNL     1     -13.228  56.933  46.650  0.00  0.00    +0.000 A 
ATOM     25  C   UNL     1     -14.158  57.442  47.536  0.00  0.00    +0.000 A 
BRANCH  17  26
ATOM     26  O   UNL     1     -10.234  54.484  48.189  0.00  0.00    +0.000 OA
ATOM     27  H   UNL     1     -10.526  54.208  47.342  0.00  0.00    +0.000 HD
ENDBRANCH  17  26
BRANCH  19  28
ATOM     28  C   UNL     1     -14.140  56.792  51.595  0.00  0.00    +0.000 C 
BRANCH  28  29
ATOM     29  C   UNL     1     -13.617  58.003  52.383  0.00  0.00    +0.000 C 
BRANCH  29  30
ATOM     30  C   UNL     1     -14.521  59.253  52.325  0.00  0.00    +0.000 C 
ATOM     31  C   UNL     1     -15.190  59.440  50.963  0.00  0.00    +0.000 C 
ATOM     32  C   UNL     1     -15.599  59.151  53.410  0.00  0.00    +0.000 C 
ENDBRANCH  29  30
ENDBRANCH  28  29
ENDBRANCH  19  28
ENDBRANCH   6  15
BRANCH  11  33
ATOM     33  N   UNL     1      -5.589  49.150  51.323  0.00  0.00    +0.000 N 
ATOM     34  H   UNL     1      -5.772  48.239  51.650  0.00  0.00    +0.000 HD
BRANCH  33  35
ATOM     35  S   UNL     1      -4.012  49.646  51.053  0.00  0.00    +0.000 S 
ATOM     36  O   UNL     1      -3.300  49.402  52.291  0.00  0.00    +0.000 OA
ATOM     37  O   UNL     1      -3.547  49.107  49.799  0.00  0.00    +0.000 OA
BRANCH  35  38
ATOM     38  C   UNL     1      -4.231  51.431  50.878  0.00  0.00    +0.000 C 
ATOM     39  C   UNL     1      -3.305  52.206  51.812  0.00  0.00    +0.000 C 
ATOM     40  C   UNL     1      -3.990  51.834  49.428  0.00  0.00    +0.000 C 
ENDBRANCH  35  38
ENDBRANCH  33  35
ENDBRANCH  11  33
TORSDOF 8
ENDMDL
MODEL 8
REMARK VINA RESULT:      -6.2      3.431      9.281
REMARK  Name = 353262
REMARK  12 active torsions:
REMARK  status: ('A' for Active; 'I' for Inactive)
REMARK    1  A    between atoms: C_6  and  C_10
REMARK    2  A    between atoms: C_12  and  N_16
REMARK    3  A    between atoms: C_14  and  O_19
REMARK    4  A    between atoms: N_16  and  S_21
REMARK    5  A    between atoms: N_18  and  C_23
REMARK    6  A    between atoms: S_21  and  C_27
REMARK    7  A    between atoms: C_23  and  C_29
REMARK    8  A    between atoms: C_27  and  C_31
REMARK    9  A    between atoms: C_27  and  C_32
REMARK   10  A    between atoms: C_29  and  C_34
REMARK   11  A    between atoms: C_34  and  C_35
REMARK   12  A    between atoms: C_34  and  C_36
REMARK                            x       y       z     vdW  Elec       q    Type
REMARK                         _______ _______ _______ _____ _____    ______ ____
ROOT
ATOM      1  S   UNL     1      -8.028  55.360  53.434  0.00  0.00    +0.000 S 
ATOM      2  O   UNL     1      -8.543  55.532  54.776  0.00  0.00    +0.000 OA
ATOM      3  O   UNL     1      -6.806  56.025  53.021  0.00  0.00    +0.000 OA
ATOM      4  N   UNL     1      -9.198  55.798  52.404  0.00  0.00    +0.000 N 
ATOM      5  C   UNL     1      -7.737  53.644  53.225  0.00  0.00    +0.000 A 
ATOM      6  C   UNL     1      -9.841  54.919  51.696  0.00  0.00    +0.000 C 
ATOM      7  C   UNL     1      -8.585  52.941  52.380  0.00  0.00    +0.000 A 
ATOM      8  C   UNL     1      -6.669  53.033  53.882  0.00  0.00    +0.000 A 
ATOM      9  N   UNL     1      -9.655  53.557  51.742  0.00  0.00    +0.000 N 
ATOM     10  C   UNL     1      -8.389  51.566  52.234  0.00  0.00    +0.000 A 
ATOM     11  C   UNL     1      -6.486  51.666  53.712  0.00  0.00    +0.000 A 
ATOM     12  C   UNL     1      -7.334  50.931  52.888  0.00  0.00    +0.000 A 
ATOM     13  H   UNL     1      -9.426  56.751  52.311  0.00  0.00    +0.000 HD
ATOM     14  H   UNL     1     -10.321  52.985  51.297  0.00  0.00    +0.000 HD
ENDROOT
BRANCH   6  15
ATOM     15  C   UNL     1     -10.853  55.466  50.721  0.00  0.00    +0.000 A 
ATOM     16  C   UNL     1     -12.132  56.055  51.233  0.00  0.00    +0.000 A 
ATOM     17  C   UNL     1     -10.605  55.445  49.399  0.00  0.00    +0.000 A 
ATOM     18  O   UNL     1     -12.280  56.169  52.454  0.00  0.00    +0.000 OA
ATOM     19  N   UNL     1     -13.085  56.452  50.320  0.00  0.00    +0.000 N 
ATOM     20  C   UNL     1     -11.627  55.894  48.456  0.00  0.00    +0.000 A 
ATOM     21  C   UNL     1     -12.861  56.358  48.918  0.00  0.00    +0.000 A 
ATOM     22  C   UNL     1     -11.426  55.820  47.072  0.00  0.00    +0.000 A 
ATOM     23  N   UNL     1     -13.857  56.731  48.084  0.00  0.00    +0.000 NA
ATOM     24  C   UNL     1     -12.443  56.188  46.207  0.00  0.00    +0.000 A 
ATOM     25  C   UNL     1     -13.631  56.634  46.758  0.00  0.00    +0.000 A 
BRANCH  17  26
ATOM     26  O   UNL     1      -9.434  54.987  48.821  0.00  0.00    +0.000 OA
ATOM     27  H   UNL     1      -8.620  55.405  49.022  0.00  0.00    +0.000 HD
ENDBRANCH  17  26
BRANCH  19  28
ATOM     28  C   UNL     1     -14.383  56.946  50.787  0.00  0.00    +0.000 C 
BRANCH  28  29
ATOM     29  C   UNL     1     -14.261  58.296  51.512  0.00  0.00    +0.000 C 
BRANCH  29  30
ATOM     30  C   UNL     1     -14.834  58.315  52.946  0.00  0.00    +0.000 C 
ATOM     31  C   UNL     1     -15.671  59.561  53.235  0.00  0.00    +0.000 C 
ATOM     32  C   UNL     1     -15.692  57.065  53.167  0.00  0.00    +0.000 C 
ENDBRANCH  29  30
ENDBRANCH  28  29
ENDBRANCH  19  28
ENDBRANCH   6  15
BRANCH  11  33
ATOM     33  N   UNL     1      -5.435  50.987  54.361  0.00  0.00    +0.000 N 
ATOM     34  H   UNL     1      -5.577  50.592  55.252  0.00  0.00    +0.000 HD
BRANCH  33  35
ATOM     35  S   UNL     1      -3.944  50.853  53.610  0.00  0.00    +0.000 S 
ATOM     36  O   UNL     1      -3.301  52.141  53.768  0.00  0.00    +0.000 OA
ATOM     37  O   UNL     1      -3.300  49.634  54.033  0.00  0.00    +0.000 OA
BRANCH  35  38
ATOM     38  C   UNL     1      -4.436  50.685  51.879  0.00  0.00    +0.000 C 
ATOM     39  C   UNL     1      -3.898  51.830  51.027  0.00  0.00    +0.000 C 
ATOM     40  C   UNL     1      -3.955  49.341  51.341  0.00  0.00    +0.000 C 
ENDBRANCH  35  38
ENDBRANCH  33  35
ENDBRANCH  11  33
TORSDOF 8
ENDMDL
MODEL 9
REMARK VINA RESULT:      -6.1      2.427      4.414
REMARK  Name = 353262
REMARK  12 active torsions:
REMARK  status: ('A' for Active; 'I' for Inactive)
REMARK    1  A    between atoms: C_6  and  C_10
REMARK    2  A    between atoms: C_12  and  N_16
REMARK    3  A    between atoms: C_14  and  O_19
REMARK    4  A    between atoms: N_16  and  S_21
REMARK    5  A    between atoms: N_18  and  C_23
REMARK    6  A    between atoms: S_21  and  C_27
REMARK    7  A    between atoms: C_23  and  C_29
REMARK    8  A    between atoms: C_27  and  C_31
REMARK    9  A    between atoms: C_27  and  C_32
REMARK   10  A    between atoms: C_29  and  C_34
REMARK   11  A    between atoms: C_34  and  C_35
REMARK   12  A    between atoms: C_34  and  C_36
REMARK                            x       y       z     vdW  Elec       q    Type
REMARK                         _______ _______ _______ _____ _____    ______ ____
ROOT
ATOM      1  S   UNL     1     -10.432  54.125  52.858  0.00  0.00    +0.000 S 
ATOM      2  O   UNL     1     -10.185  55.101  53.899  0.00  0.00    +0.000 OA
ATOM      3  O   UNL     1     -11.575  53.235  52.937  0.00  0.00    +0.000 OA
ATOM      4  N   UNL     1      -9.103  53.209  52.726  0.00  0.00    +0.000 N 
ATOM      5  C   UNL     1     -10.622  55.022  51.364  0.00  0.00    +0.000 A 
ATOM      6  C   UNL     1      -8.310  53.311  51.702  0.00  0.00    +0.000 C 
ATOM      7  C   UNL     1      -9.608  54.933  50.420  0.00  0.00    +0.000 A 
ATOM      8  C   UNL     1     -11.775  55.777  51.147  0.00  0.00    +0.000 A 
ATOM      9  N   UNL     1      -8.457  54.189  50.654  0.00  0.00    +0.000 N 
ATOM     10  C   UNL     1      -9.728  55.673  49.242  0.00  0.00    +0.000 A 
ATOM     11  C   UNL     1     -11.878  56.495  49.961  0.00  0.00    +0.000 A 
ATOM     12  C   UNL     1     -10.866  56.442  49.006  0.00  0.00    +0.000 A 
ATOM     13  H   UNL     1      -8.893  52.559  53.435  0.00  0.00    +0.000 HD
ATOM     14  H   UNL     1      -7.701  54.298  50.034  0.00  0.00    +0.000 HD
ENDROOT
BRANCH   6  15
ATOM     15  C   UNL     1      -7.151  52.347  51.664  0.00  0.00    +0.000 A 
ATOM     16  C   UNL     1      -6.985  51.434  50.487  0.00  0.00    +0.000 A 
ATOM     17  C   UNL     1      -6.257  52.317  52.669  0.00  0.00    +0.000 A 
ATOM     18  O   UNL     1      -7.751  51.567  49.527  0.00  0.00    +0.000 OA
ATOM     19  N   UNL     1      -5.981  50.490  50.523  0.00  0.00    +0.000 N 
ATOM     20  C   UNL     1      -5.189  51.319  52.668  0.00  0.00    +0.000 A 
ATOM     21  C   UNL     1      -5.080  50.400  51.621  0.00  0.00    +0.000 A 
ATOM     22  C   UNL     1      -4.285  51.217  53.732  0.00  0.00    +0.000 A 
ATOM     23  N   UNL     1      -4.145  49.424  51.603  0.00  0.00    +0.000 NA
ATOM     24  C   UNL     1      -3.329  50.214  53.731  0.00  0.00    +0.000 A 
ATOM     25  C   UNL     1      -3.301  49.349  52.652  0.00  0.00    +0.000 A 
BRANCH  17  26
ATOM     26  O   UNL     1      -6.274  53.156  53.768  0.00  0.00    +0.000 OA
ATOM     27  H   UNL     1      -5.468  53.462  54.135  0.00  0.00    +0.000 HD
ENDBRANCH  17  26
BRANCH  19  28
ATOM     28  C   UNL     1      -5.849  49.522  49.431  0.00  0.00    +0.000 C 
BRANCH  28  29
ATOM     29  C   UNL     1      -4.644  49.828  48.528  0.00  0.00    +0.000 C 
BRANCH  29  30
ATOM     30  C   UNL     1      -4.985  50.589  47.229  0.00  0.00    +0.000 C 
ATOM     31  C   UNL     1      -6.381  50.262  46.697  0.00  0.00    +0.000 C 
ATOM     32  C   UNL     1      -4.879  52.098  47.481  0.00  0.00    +0.000 C 
ENDBRANCH  29  30
ENDBRANCH  28  29
ENDBRANCH  19  28
ENDBRANCH   6  15
BRANCH  11  33
ATOM     33  N   UNL     1     -13.010  57.290  49.688  0.00  0.00    +0.000 N 
ATOM     34  H   UNL     1     -12.968  57.992  48.999  0.00  0.00    +0.000 HD
BRANCH  33  35
ATOM     35  S   UNL     1     -14.428  57.034  50.542  0.00  0.00    +0.000 S 
ATOM     36  O   UNL     1     -15.355  56.433  49.604  0.00  0.00    +0.000 OA
ATOM     37  O   UNL     1     -14.124  56.408  51.804  0.00  0.00    +0.000 OA
BRANCH  35  38
ATOM     38  C   UNL     1     -14.966  58.733  50.845  0.00  0.00    +0.000 C 
ATOM     39  C   UNL     1     -14.732  59.147  52.295  0.00  0.00    +0.000 C 
ATOM     40  C   UNL     1     -14.238  59.675  49.893  0.00  0.00    +0.000 C 
ENDBRANCH  35  38
ENDBRANCH  33  35
ENDBRANCH  11  33
TORSDOF 8
ENDMDL
