MODEL 1
REMARK VINA RESULT:      -8.1      0.000      0.000
REMARK  Name = 353134
REMARK  8 active torsions:
REMARK  status: ('A' for Active; 'I' for Inactive)
REMARK    1  A    between atoms: C_6  and  C_10
REMARK    2  A    between atoms: C_12  and  N_16
REMARK    3  A    between atoms: C_14  and  O_19
REMARK    4  A    between atoms: N_18  and  C_22
REMARK    5  A    between atoms: C_22  and  C_25
REMARK    6  A    between atoms: C_25  and  C_28
REMARK    7  A    between atoms: C_28  and  C_29
REMARK    8  A    between atoms: C_28  and  C_30
REMARK                            x       y       z     vdW  Elec       q    Type
REMARK                         _______ _______ _______ _____ _____    ______ ____
ROOT
ATOM      1  C   UNL     1     -12.328  55.759  50.644  0.00  0.00    +0.000 A 
ATOM      2  C   UNL     1     -11.634  56.723  49.717  0.00  0.00    +0.000 A 
ATOM      3  C   UNL     1     -13.574  56.101  51.014  0.00  0.00    +0.000 A 
ATOM      4  O   UNL     1     -10.413  56.810  49.675  0.00  0.00    +0.000 OA
ATOM      5  N   UNL     1     -12.510  57.278  48.750  0.00  0.00    +0.000 N 
ATOM      6  C   UNL     1     -14.070  57.414  50.614  0.00  0.00    +0.000 A 
ATOM      7  C   UNL     1     -13.590  57.968  49.413  0.00  0.00    +0.000 A 
ATOM      8  C   UNL     1     -14.885  58.175  51.449  0.00  0.00    +0.000 A 
ATOM      9  N   UNL     1     -13.887  59.227  49.032  0.00  0.00    +0.000 NA
ATOM     10  C   UNL     1     -15.144  59.491  51.100  0.00  0.00    +0.000 A 
ATOM     11  C   UNL     1     -14.634  59.964  49.897  0.00  0.00    +0.000 A 
ENDROOT
BRANCH   1  17
ATOM     12  S   UNL     1     -10.975  52.224  49.886  0.00  0.00    +0.000 S 
ATOM     13  O   UNL     1     -12.018  51.267  49.570  0.00  0.00    +0.000 OA
ATOM     14  O   UNL     1      -9.743  52.278  49.123  0.00  0.00    +0.000 OA
ATOM     15  N   UNL     1     -11.599  53.701  49.843  0.00  0.00    +0.000 N 
ATOM     16  C   UNL     1     -10.505  51.897  51.536  0.00  0.00    +0.000 A 
ATOM     17  C   UNL     1     -11.793  54.396  50.921  0.00  0.00    +0.000 C 
ATOM     18  C   UNL     1     -10.810  52.829  52.518  0.00  0.00    +0.000 A 
ATOM     19  C   UNL     1      -9.808  50.718  51.798  0.00  0.00    +0.000 A 
ATOM     20  N   UNL     1     -11.482  54.012  52.208  0.00  0.00    +0.000 N 
ATOM     21  C   UNL     1     -10.322  52.580  53.804  0.00  0.00    +0.000 A 
ATOM     22  C   UNL     1      -9.403  50.431  53.093  0.00  0.00    +0.000 A 
ATOM     23  C   UNL     1      -9.611  51.399  54.079  0.00  0.00    +0.000 A 
ATOM     24  H   UNL     1     -11.841  54.093  48.972  0.00  0.00    +0.000 HD
ATOM     25  H   UNL     1     -11.750  54.604  52.947  0.00  0.00    +0.000 HD
BRANCH  22  26
ATOM     26  N   UNL     1      -8.601  49.315  53.336  0.00  0.00    +0.000 N 
ATOM     27  H   UNL     1      -7.831  49.126  52.753  0.00  0.00    +0.000 HD
ATOM     28  H   UNL     1      -8.806  48.716  54.091  0.00  0.00    +0.000 HD
ENDBRANCH  22  26
ENDBRANCH   1  17
BRANCH   3  29
ATOM     29  O   UNL     1     -14.477  55.301  51.680  0.00  0.00    +0.000 OA
ATOM     30  H   UNL     1     -14.228  54.875  52.476  0.00  0.00    +0.000 HD
ENDBRANCH   3  29
BRANCH   5  31
ATOM     31  C   UNL     1     -12.941  56.188  47.856  0.00  0.00    +0.000 C 
BRANCH  31  32
ATOM     32  C   UNL     1     -12.281  56.009  46.497  0.00  0.00    +0.000 C 
BRANCH  32  33
ATOM     33  C   UNL     1     -11.382  54.737  46.525  0.00  0.00    +0.000 C 
ATOM     34  C   UNL     1     -11.544  53.863  45.275  0.00  0.00    +0.000 C 
ATOM     35  C   UNL     1      -9.913  55.107  46.710  0.00  0.00    +0.000 C 
ENDBRANCH  32  33
ENDBRANCH  31  32
ENDBRANCH   5  31
TORSDOF 6
ENDMDL
MODEL 2
REMARK VINA RESULT:      -8.0      2.526      5.498
REMARK  Name = 353134
REMARK  8 active torsions:
REMARK  status: ('A' for Active; 'I' for Inactive)
REMARK    1  A    between atoms: C_6  and  C_10
REMARK    2  A    between atoms: C_12  and  N_16
REMARK    3  A    between atoms: C_14  and  O_19
REMARK    4  A    between atoms: N_18  and  C_22
REMARK    5  A    between atoms: C_22  and  C_25
REMARK    6  A    between atoms: C_25  and  C_28
REMARK    7  A    between atoms: C_28  and  C_29
REMARK    8  A    between atoms: C_28  and  C_30
REMARK                            x       y       z     vdW  Elec       q    Type
REMARK                         _______ _______ _______ _____ _____    ______ ____
ROOT
ATOM      1  C   UNL     1     -12.697  54.350  49.726  0.00  0.00    +0.000 A 
ATOM      2  C   UNL     1     -12.381  54.095  51.177  0.00  0.00    +0.000 A 
ATOM      3  C   UNL     1     -13.252  55.543  49.451  0.00  0.00    +0.000 A 
ATOM      4  O   UNL     1     -12.333  52.961  51.636  0.00  0.00    +0.000 OA
ATOM      5  N   UNL     1     -11.892  55.249  51.841  0.00  0.00    +0.000 N 
ATOM      6  C   UNL     1     -13.624  56.400  50.574  0.00  0.00    +0.000 A 
ATOM      7  C   UNL     1     -12.870  56.307  51.758  0.00  0.00    +0.000 A 
ATOM      8  C   UNL     1     -14.771  57.188  50.545  0.00  0.00    +0.000 A 
ATOM      9  N   UNL     1     -13.220  56.957  52.886  0.00  0.00    +0.000 NA
ATOM     10  C   UNL     1     -15.177  57.809  51.716  0.00  0.00    +0.000 A 
ATOM     11  C   UNL     1     -14.377  57.669  52.844  0.00  0.00    +0.000 A 
ENDROOT
BRANCH   1  17
ATOM     12  S   UNL     1     -11.904  51.067  47.858  0.00  0.00    +0.000 S 
ATOM     13  O   UNL     1     -10.704  50.410  48.339  0.00  0.00    +0.000 OA
ATOM     14  O   UNL     1     -13.110  50.317  47.563  0.00  0.00    +0.000 OA
ATOM     15  N   UNL     1     -12.324  52.207  48.905  0.00  0.00    +0.000 N 
ATOM     16  C   UNL     1     -11.454  51.859  46.367  0.00  0.00    +0.000 A 
ATOM     17  C   UNL     1     -12.194  53.470  48.635  0.00  0.00    +0.000 C 
ATOM     18  C   UNL     1     -11.416  53.246  46.329  0.00  0.00    +0.000 A 
ATOM     19  C   UNL     1     -11.181  51.060  45.257  0.00  0.00    +0.000 A 
ATOM     20  N   UNL     1     -11.727  54.008  47.456  0.00  0.00    +0.000 N 
ATOM     21  C   UNL     1     -11.157  53.840  45.091  0.00  0.00    +0.000 A 
ATOM     22  C   UNL     1     -10.836  51.653  44.051  0.00  0.00    +0.000 A 
ATOM     23  C   UNL     1     -10.889  53.047  43.962  0.00  0.00    +0.000 A 
ATOM     24  H   UNL     1     -12.693  51.941  49.779  0.00  0.00    +0.000 HD
ATOM     25  H   UNL     1     -11.607  54.984  47.406  0.00  0.00    +0.000 HD
BRANCH  22  26
ATOM     26  N   UNL     1     -10.683  50.863  42.911  0.00  0.00    +0.000 N 
ATOM     27  H   UNL     1     -10.107  51.168  42.174  0.00  0.00    +0.000 HD
ATOM     28  H   UNL     1     -11.151  49.999  42.845  0.00  0.00    +0.000 HD
ENDBRANCH  22  26
ENDBRANCH   1  17
BRANCH   3  29
ATOM     29  O   UNL     1     -13.441  56.087  48.200  0.00  0.00    +0.000 OA
ATOM     30  H   UNL     1     -14.021  56.814  48.088  0.00  0.00    +0.000 HD
ENDBRANCH   3  29
BRANCH   5  31
ATOM     31  C   UNL     1     -10.582  55.582  51.255  0.00  0.00    +0.000 C 
BRANCH  31  32
ATOM     32  C   UNL     1      -9.331  54.849  51.715  0.00  0.00    +0.000 C 
BRANCH  32  33
ATOM     33  C   UNL     1      -9.394  54.642  53.258  0.00  0.00    +0.000 C 
ATOM     34  C   UNL     1      -9.494  53.164  53.659  0.00  0.00    +0.000 C 
ATOM     35  C   UNL     1      -8.194  55.284  53.948  0.00  0.00    +0.000 C 
ENDBRANCH  32  33
ENDBRANCH  31  32
ENDBRANCH   5  31
TORSDOF 6
ENDMDL
MODEL 3
REMARK VINA RESULT:      -7.9      3.292      3.719
REMARK  Name = 353134
REMARK  8 active torsions:
REMARK  status: ('A' for Active; 'I' for Inactive)
REMARK    1  A    between atoms: C_6  and  C_10
REMARK    2  A    between atoms: C_12  and  N_16
REMARK    3  A    between atoms: C_14  and  O_19
REMARK    4  A    between atoms: N_18  and  C_22
REMARK    5  A    between atoms: C_22  and  C_25
REMARK    6  A    between atoms: C_25  and  C_28
REMARK    7  A    between atoms: C_28  and  C_29
REMARK    8  A    between atoms: C_28  and  C_30
REMARK                            x       y       z     vdW  Elec       q    Type
REMARK                         _______ _______ _______ _____ _____    ______ ____
ROOT
ATOM      1  C   UNL     1     -10.370  55.721  50.893  0.00  0.00    +0.000 A 
ATOM      2  C   UNL     1     -10.646  56.421  49.588  0.00  0.00    +0.000 A 
ATOM      3  C   UNL     1     -11.453  55.350  51.597  0.00  0.00    +0.000 A 
ATOM      4  O   UNL     1      -9.845  57.204  49.094  0.00  0.00    +0.000 OA
ATOM      5  N   UNL     1     -11.758  55.873  48.899  0.00  0.00    +0.000 N 
ATOM      6  C   UNL     1     -12.762  55.782  51.116  0.00  0.00    +0.000 A 
ATOM      7  C   UNL     1     -12.935  55.961  49.731  0.00  0.00    +0.000 A 
ATOM      8  C   UNL     1     -13.780  56.148  51.992  0.00  0.00    +0.000 A 
ATOM      9  N   UNL     1     -14.062  56.483  49.208  0.00  0.00    +0.000 NA
ATOM     10  C   UNL     1     -14.918  56.746  51.472  0.00  0.00    +0.000 A 
ATOM     11  C   UNL     1     -15.013  56.886  50.093  0.00  0.00    +0.000 A 
ENDROOT
BRANCH   1  17
ATOM     12  S   UNL     1      -6.742  54.509  50.372  0.00  0.00    +0.000 S 
ATOM     13  O   UNL     1      -6.654  53.118  49.976  0.00  0.00    +0.000 OA
ATOM     14  O   UNL     1      -5.926  55.528  49.740  0.00  0.00    +0.000 OA
ATOM     15  N   UNL     1      -8.264  54.994  50.226  0.00  0.00    +0.000 N 
ATOM     16  C   UNL     1      -6.334  54.554  52.070  0.00  0.00    +0.000 A 
ATOM     17  C   UNL     1      -9.012  55.230  51.261  0.00  0.00    +0.000 C 
ATOM     18  C   UNL     1      -7.325  54.865  52.991  0.00  0.00    +0.000 A 
ATOM     19  C   UNL     1      -5.011  54.306  52.434  0.00  0.00    +0.000 A 
ATOM     20  N   UNL     1      -8.631  55.138  52.582  0.00  0.00    +0.000 N 
ATOM     21  C   UNL     1      -6.934  54.996  54.326  0.00  0.00    +0.000 A 
ATOM     22  C   UNL     1      -4.645  54.348  53.771  0.00  0.00    +0.000 A 
ATOM     23  C   UNL     1      -5.601  54.756  54.704  0.00  0.00    +0.000 A 
ATOM     24  H   UNL     1      -8.643  55.116  49.325  0.00  0.00    +0.000 HD
ATOM     25  H   UNL     1      -9.318  55.272  53.274  0.00  0.00    +0.000 HD
BRANCH  22  26
ATOM     26  N   UNL     1      -3.301  54.221  54.124  0.00  0.00    +0.000 N 
ATOM     27  H   UNL     1      -3.035  54.252  55.072  0.00  0.00    +0.000 HD
ATOM     28  H   UNL     1      -2.617  54.100  53.426  0.00  0.00    +0.000 HD
ENDBRANCH  22  26
ENDBRANCH   1  17
BRANCH   3  29
ATOM     29  O   UNL     1     -11.467  54.529  52.703  0.00  0.00    +0.000 OA
ATOM     30  H   UNL     1     -11.198  54.861  53.536  0.00  0.00    +0.000 HD
ENDBRANCH   3  29
BRANCH   5  31
ATOM     31  C   UNL     1     -11.402  54.504  48.488  0.00  0.00    +0.000 C 
BRANCH  31  32
ATOM     32  C   UNL     1     -11.939  53.934  47.184  0.00  0.00    +0.000 C 
BRANCH  32  33
ATOM     33  C   UNL     1     -11.066  54.450  46.000  0.00  0.00    +0.000 C 
ATOM     34  C   UNL     1      -9.597  54.661  46.389  0.00  0.00    +0.000 C 
ATOM     35  C   UNL     1     -11.153  53.508  44.803  0.00  0.00    +0.000 C 
ENDBRANCH  32  33
ENDBRANCH  31  32
ENDBRANCH   5  31
TORSDOF 6
ENDMDL
MODEL 4
REMARK VINA RESULT:      -7.8      2.509      3.216
REMARK  Name = 353134
REMARK  8 active torsions:
REMARK  status: ('A' for Active; 'I' for Inactive)
REMARK    1  A    between atoms: C_6  and  C_10
REMARK    2  A    between atoms: C_12  and  N_16
REMARK    3  A    between atoms: C_14  and  O_19
REMARK    4  A    between atoms: N_18  and  C_22
REMARK    5  A    between atoms: C_22  and  C_25
REMARK    6  A    between atoms: C_25  and  C_28
REMARK    7  A    between atoms: C_28  and  C_29
REMARK    8  A    between atoms: C_28  and  C_30
REMARK                            x       y       z     vdW  Elec       q    Type
REMARK                         _______ _______ _______ _____ _____    ______ ____
ROOT
ATOM      1  C   UNL     1     -10.379  55.563  50.529  0.00  0.00    +0.000 A 
ATOM      2  C   UNL     1     -10.088  55.848  49.079  0.00  0.00    +0.000 A 
ATOM      3  C   UNL     1     -11.645  55.782  50.923  0.00  0.00    +0.000 A 
ATOM      4  O   UNL     1      -8.965  56.151  48.695  0.00  0.00    +0.000 OA
ATOM      5  N   UNL     1     -11.150  55.463  48.222  0.00  0.00    +0.000 N 
ATOM      6  C   UNL     1     -12.561  56.403  49.970  0.00  0.00    +0.000 A 
ATOM      7  C   UNL     1     -12.355  56.163  48.599  0.00  0.00    +0.000 A 
ATOM      8  C   UNL     1     -13.528  57.320  50.373  0.00  0.00    +0.000 A 
ATOM      9  N   UNL     1     -13.063  56.797  47.643  0.00  0.00    +0.000 NA
ATOM     10  C   UNL     1     -14.217  58.025  49.400  0.00  0.00    +0.000 A 
ATOM     11  C   UNL     1     -13.957  57.730  48.067  0.00  0.00    +0.000 A 
ENDROOT
BRANCH   1  17
ATOM     12  S   UNL     1      -7.242  55.009  52.708  0.00  0.00    +0.000 S 
ATOM     13  O   UNL     1      -6.044  54.751  51.933  0.00  0.00    +0.000 OA
ATOM     14  O   UNL     1      -7.224  55.901  53.852  0.00  0.00    +0.000 OA
ATOM     15  N   UNL     1      -8.386  55.556  51.726  0.00  0.00    +0.000 N 
ATOM     16  C   UNL     1      -7.765  53.458  53.317  0.00  0.00    +0.000 A 
ATOM     17  C   UNL     1      -9.418  54.837  51.407  0.00  0.00    +0.000 C 
ATOM     18  C   UNL     1      -8.940  52.906  52.826  0.00  0.00    +0.000 A 
ATOM     19  C   UNL     1      -6.993  52.846  54.304  0.00  0.00    +0.000 A 
ATOM     20  N   UNL     1      -9.701  53.568  51.860  0.00  0.00    +0.000 N 
ATOM     21  C   UNL     1      -9.380  51.718  53.416  0.00  0.00    +0.000 A 
ATOM     22  C   UNL     1      -7.385  51.621  54.823  0.00  0.00    +0.000 A 
ATOM     23  C   UNL     1      -8.615  51.095  54.418  0.00  0.00    +0.000 A 
ATOM     24  H   UNL     1      -8.302  56.464  51.354  0.00  0.00    +0.000 HD
ATOM     25  H   UNL     1     -10.481  53.102  51.482  0.00  0.00    +0.000 HD
BRANCH  22  26
ATOM     26  N   UNL     1      -6.682  51.067  55.894  0.00  0.00    +0.000 N 
ATOM     27  H   UNL     1      -5.829  51.465  56.182  0.00  0.00    +0.000 HD
ATOM     28  H   UNL     1      -7.040  50.278  56.363  0.00  0.00    +0.000 HD
ENDBRANCH  22  26
ENDBRANCH   1  17
BRANCH   3  29
ATOM     29  O   UNL     1     -12.203  55.410  52.127  0.00  0.00    +0.000 OA
ATOM     30  H   UNL     1     -11.902  55.800  52.923  0.00  0.00    +0.000 HD
ENDBRANCH   3  29
BRANCH   5  31
ATOM     31  C   UNL     1     -11.257  53.994  48.271  0.00  0.00    +0.000 C 
BRANCH  31  32
ATOM     32  C   UNL     1     -10.580  53.143  47.206  0.00  0.00    +0.000 C 
BRANCH  32  33
ATOM     33  C   UNL     1     -10.423  53.981  45.902  0.00  0.00    +0.000 C 
ATOM     34  C   UNL     1      -8.959  54.153  45.475  0.00  0.00    +0.000 C 
ATOM     35  C   UNL     1     -11.226  53.369  44.757  0.00  0.00    +0.000 C 
ENDBRANCH  32  33
ENDBRANCH  31  32
ENDBRANCH   5  31
TORSDOF 6
ENDMDL
MODEL 5
REMARK VINA RESULT:      -7.7      4.153      7.562
REMARK  Name = 353134
REMARK  8 active torsions:
REMARK  status: ('A' for Active; 'I' for Inactive)
REMARK    1  A    between atoms: C_6  and  C_10
REMARK    2  A    between atoms: C_12  and  N_16
REMARK    3  A    between atoms: C_14  and  O_19
REMARK    4  A    between atoms: N_18  and  C_22
REMARK    5  A    between atoms: C_22  and  C_25
REMARK    6  A    between atoms: C_25  and  C_28
REMARK    7  A    between atoms: C_28  and  C_29
REMARK    8  A    between atoms: C_28  and  C_30
REMARK                            x       y       z     vdW  Elec       q    Type
REMARK                         _______ _______ _______ _____ _____    ______ ____
ROOT
ATOM      1  C   UNL     1      -6.877  54.821  50.256  0.00  0.00    +0.000 A 
ATOM      2  C   UNL     1      -7.301  55.892  51.227  0.00  0.00    +0.000 A 
ATOM      3  C   UNL     1      -5.922  53.983  50.694  0.00  0.00    +0.000 A 
ATOM      4  O   UNL     1      -7.768  56.959  50.847  0.00  0.00    +0.000 OA
ATOM      5  N   UNL     1      -7.356  55.426  52.565  0.00  0.00    +0.000 N 
ATOM      6  C   UNL     1      -5.293  54.272  51.980  0.00  0.00    +0.000 A 
ATOM      7  C   UNL     1      -6.060  54.929  52.960  0.00  0.00    +0.000 A 
ATOM      8  C   UNL     1      -3.939  54.042  52.202  0.00  0.00    +0.000 A 
ATOM      9  N   UNL     1      -5.528  55.355  54.123  0.00  0.00    +0.000 NA
ATOM     10  C   UNL     1      -3.366  54.533  53.365  0.00  0.00    +0.000 A 
ATOM     11  C   UNL     1      -4.191  55.170  54.284  0.00  0.00    +0.000 A 
ENDROOT
BRANCH   1  17
ATOM     12  S   UNL     1      -7.470  53.730  46.602  0.00  0.00    +0.000 S 
ATOM     13  O   UNL     1      -7.138  54.758  45.636  0.00  0.00    +0.000 OA
ATOM     14  O   UNL     1      -7.091  52.345  46.392  0.00  0.00    +0.000 OA
ATOM     15  N   UNL     1      -6.873  54.150  48.030  0.00  0.00    +0.000 N 
ATOM     16  C   UNL     1      -9.211  53.736  46.734  0.00  0.00    +0.000 A 
ATOM     17  C   UNL     1      -7.636  54.533  49.007  0.00  0.00    +0.000 C 
ATOM     18  C   UNL     1      -9.793  54.174  47.916  0.00  0.00    +0.000 A 
ATOM     19  C   UNL     1      -9.954  53.267  45.651  0.00  0.00    +0.000 A 
ATOM     20  N   UNL     1      -9.012  54.606  48.989  0.00  0.00    +0.000 N 
ATOM     21  C   UNL     1     -11.182  54.062  48.020  0.00  0.00    +0.000 A 
ATOM     22  C   UNL     1     -11.339  53.242  45.724  0.00  0.00    +0.000 A 
ATOM     23  C   UNL     1     -11.941  53.583  46.938  0.00  0.00    +0.000 A 
ATOM     24  H   UNL     1      -5.899  54.116  48.170  0.00  0.00    +0.000 HD
ATOM     25  H   UNL     1      -9.468  54.985  49.775  0.00  0.00    +0.000 HD
BRANCH  22  26
ATOM     26  N   UNL     1     -12.075  52.660  44.692  0.00  0.00    +0.000 N 
ATOM     27  H   UNL     1     -11.635  52.429  43.842  0.00  0.00    +0.000 HD
ATOM     28  H   UNL     1     -13.036  52.480  44.813  0.00  0.00    +0.000 HD
ENDBRANCH  22  26
ENDBRANCH   1  17
BRANCH   3  29
ATOM     29  O   UNL     1      -5.516  52.816  50.083  0.00  0.00    +0.000 OA
ATOM     30  H   UNL     1      -5.921  52.003  50.310  0.00  0.00    +0.000 HD
ENDBRANCH   3  29
BRANCH   5  31
ATOM     31  C   UNL     1      -8.442  54.434  52.650  0.00  0.00    +0.000 C 
BRANCH  31  32
ATOM     32  C   UNL     1      -9.727  54.769  53.391  0.00  0.00    +0.000 C 
BRANCH  32  33
ATOM     33  C   UNL     1     -10.949  54.365  52.511  0.00  0.00    +0.000 C 
ATOM     34  C   UNL     1     -11.399  55.485  51.564  0.00  0.00    +0.000 C 
ATOM     35  C   UNL     1     -10.654  53.100  51.711  0.00  0.00    +0.000 C 
ENDBRANCH  32  33
ENDBRANCH  31  32
ENDBRANCH   5  31
TORSDOF 6
ENDMDL
MODEL 6
REMARK VINA RESULT:      -7.7      3.220      5.856
REMARK  Name = 353134
REMARK  8 active torsions:
REMARK  status: ('A' for Active; 'I' for Inactive)
REMARK    1  A    between atoms: C_6  and  C_10
REMARK    2  A    between atoms: C_12  and  N_16
REMARK    3  A    between atoms: C_14  and  O_19
REMARK    4  A    between atoms: N_18  and  C_22
REMARK    5  A    between atoms: C_22  and  C_25
REMARK    6  A    between atoms: C_25  and  C_28
REMARK    7  A    between atoms: C_28  and  C_29
REMARK    8  A    between atoms: C_28  and  C_30
REMARK                            x       y       z     vdW  Elec       q    Type
REMARK                         _______ _______ _______ _____ _____    ______ ____
ROOT
ATOM      1  C   UNL     1      -9.305  53.386  48.242  0.00  0.00    +0.000 A 
ATOM      2  C   UNL     1     -10.419  52.432  47.897  0.00  0.00    +0.000 A 
ATOM      3  C   UNL     1      -8.768  54.054  47.206  0.00  0.00    +0.000 A 
ATOM      4  O   UNL     1     -10.669  51.456  48.593  0.00  0.00    +0.000 OA
ATOM      5  N   UNL     1     -11.276  52.935  46.886  0.00  0.00    +0.000 N 
ATOM      6  C   UNL     1      -9.201  53.691  45.860  0.00  0.00    +0.000 A 
ATOM      7  C   UNL     1     -10.511  53.206  45.692  0.00  0.00    +0.000 A 
ATOM      8  C   UNL     1      -8.319  53.684  44.783  0.00  0.00    +0.000 A 
ATOM      9  N   UNL     1     -10.954  52.722  44.514  0.00  0.00    +0.000 NA
ATOM     10  C   UNL     1      -8.740  53.130  43.585  0.00  0.00    +0.000 A 
ATOM     11  C   UNL     1     -10.050  52.673  43.499  0.00  0.00    +0.000 A 
ENDROOT
BRANCH   1  17
ATOM     12  S   UNL     1      -9.927  54.027  51.997  0.00  0.00    +0.000 S 
ATOM     13  O   UNL     1     -10.578  55.295  52.261  0.00  0.00    +0.000 OA
ATOM     14  O   UNL     1     -10.327  52.815  52.685  0.00  0.00    +0.000 OA
ATOM     15  N   UNL     1     -10.028  53.711  50.428  0.00  0.00    +0.000 N 
ATOM     16  C   UNL     1      -8.240  54.263  52.381  0.00  0.00    +0.000 A 
ATOM     17  C   UNL     1      -8.993  53.772  49.647  0.00  0.00    +0.000 C 
ATOM     18  C   UNL     1      -7.310  54.258  51.350  0.00  0.00    +0.000 A 
ATOM     19  C   UNL     1      -7.887  54.416  53.721  0.00  0.00    +0.000 A 
ATOM     20  N   UNL     1      -7.702  54.071  50.024  0.00  0.00    +0.000 N 
ATOM     21  C   UNL     1      -5.962  54.342  51.709  0.00  0.00    +0.000 A 
ATOM     22  C   UNL     1      -6.554  54.589  54.067  0.00  0.00    +0.000 A 
ATOM     23  C   UNL     1      -5.592  54.488  53.058  0.00  0.00    +0.000 A 
ATOM     24  H   UNL     1     -10.901  53.464  50.045  0.00  0.00    +0.000 HD
ATOM     25  H   UNL     1      -7.020  54.157  49.319  0.00  0.00    +0.000 HD
BRANCH  22  26
ATOM     26  N   UNL     1      -6.188  54.619  55.413  0.00  0.00    +0.000 N 
ATOM     27  H   UNL     1      -5.241  54.527  55.668  0.00  0.00    +0.000 HD
ATOM     28  H   UNL     1      -6.876  54.734  56.108  0.00  0.00    +0.000 HD
ENDBRANCH  22  26
ENDBRANCH   1  17
BRANCH   3  29
ATOM     29  O   UNL     1      -7.891  55.114  47.284  0.00  0.00    +0.000 OA
ATOM     30  H   UNL     1      -7.837  55.621  48.070  0.00  0.00    +0.000 HD
ENDBRANCH   3  29
BRANCH   5  31
ATOM     31  C   UNL     1     -11.981  54.106  47.437  0.00  0.00    +0.000 C 
BRANCH  31  32
ATOM     32  C   UNL     1     -12.178  55.350  46.584  0.00  0.00    +0.000 C 
BRANCH  32  33
ATOM     33  C   UNL     1     -12.438  56.574  47.512  0.00  0.00    +0.000 C 
ATOM     34  C   UNL     1     -13.876  57.101  47.416  0.00  0.00    +0.000 C 
ATOM     35  C   UNL     1     -12.106  56.242  48.964  0.00  0.00    +0.000 C 
ENDBRANCH  32  33
ENDBRANCH  31  32
ENDBRANCH   5  31
TORSDOF 6
ENDMDL
MODEL 7
REMARK VINA RESULT:      -7.6      2.939      5.561
REMARK  Name = 353134
REMARK  8 active torsions:
REMARK  status: ('A' for Active; 'I' for Inactive)
REMARK    1  A    between atoms: C_6  and  C_10
REMARK    2  A    between atoms: C_12  and  N_16
REMARK    3  A    between atoms: C_14  and  O_19
REMARK    4  A    between atoms: N_18  and  C_22
REMARK    5  A    between atoms: C_22  and  C_25
REMARK    6  A    between atoms: C_25  and  C_28
REMARK    7  A    between atoms: C_28  and  C_29
REMARK    8  A    between atoms: C_28  and  C_30
REMARK                            x       y       z     vdW  Elec       q    Type
REMARK                         _______ _______ _______ _____ _____    ______ ____
ROOT
ATOM      1  C   UNL     1     -11.931  54.591  48.850  0.00  0.00    +0.000 A 
ATOM      2  C   UNL     1     -11.968  54.061  50.260  0.00  0.00    +0.000 A 
ATOM      3  C   UNL     1     -12.676  55.687  48.620  0.00  0.00    +0.000 A 
ATOM      4  O   UNL     1     -11.758  52.881  50.510  0.00  0.00    +0.000 OA
ATOM      5  N   UNL     1     -11.990  55.093  51.232  0.00  0.00    +0.000 N 
ATOM      6  C   UNL     1     -13.546  56.161  49.693  0.00  0.00    +0.000 A 
ATOM      7  C   UNL     1     -13.145  55.933  51.022  0.00  0.00    +0.000 A 
ATOM      8  C   UNL     1     -14.803  56.698  49.433  0.00  0.00    +0.000 A 
ATOM      9  N   UNL     1     -13.943  56.214  52.072  0.00  0.00    +0.000 NA
ATOM     10  C   UNL     1     -15.657  56.930  50.499  0.00  0.00    +0.000 A 
ATOM     11  C   UNL     1     -15.187  56.680  51.783  0.00  0.00    +0.000 A 
ENDROOT
BRANCH   1  17
ATOM     12  S   UNL     1      -8.608  53.168  47.500  0.00  0.00    +0.000 S 
ATOM     13  O   UNL     1      -7.555  54.160  47.408  0.00  0.00    +0.000 OA
ATOM     14  O   UNL     1      -8.350  51.837  48.015  0.00  0.00    +0.000 OA
ATOM     15  N   UNL     1      -9.809  53.768  48.376  0.00  0.00    +0.000 N 
ATOM     16  C   UNL     1      -9.201  52.945  45.872  0.00  0.00    +0.000 A 
ATOM     17  C   UNL     1     -10.942  54.112  47.845  0.00  0.00    +0.000 C 
ATOM     18  C   UNL     1     -10.481  53.383  45.558  0.00  0.00    +0.000 A 
ATOM     19  C   UNL     1      -8.373  52.301  44.954  0.00  0.00    +0.000 A 
ATOM     20  N   UNL     1     -11.290  53.994  46.517  0.00  0.00    +0.000 N 
ATOM     21  C   UNL     1     -10.957  53.089  44.278  0.00  0.00    +0.000 A 
ATOM     22  C   UNL     1      -8.816  52.091  43.656  0.00  0.00    +0.000 A 
ATOM     23  C   UNL     1     -10.134  52.433  43.345  0.00  0.00    +0.000 A 
ATOM     24  H   UNL     1      -9.684  53.879  49.347  0.00  0.00    +0.000 HD
ATOM     25  H   UNL     1     -12.157  54.362  46.229  0.00  0.00    +0.000 HD
BRANCH  22  26
ATOM     26  N   UNL     1      -8.038  51.341  42.773  0.00  0.00    +0.000 N 
ATOM     27  H   UNL     1      -7.074  51.522  42.690  0.00  0.00    +0.000 HD
ATOM     28  H   UNL     1      -8.453  50.630  42.233  0.00  0.00    +0.000 HD
ENDBRANCH  22  26
ENDBRANCH   1  17
BRANCH   3  29
ATOM     29  O   UNL     1     -12.650  56.468  47.486  0.00  0.00    +0.000 OA
ATOM     30  H   UNL     1     -13.442  56.638  47.016  0.00  0.00    +0.000 HD
ENDBRANCH   3  29
BRANCH   5  31
ATOM     31  C   UNL     1     -10.700  55.802  51.163  0.00  0.00    +0.000 C 
BRANCH  31  32
ATOM     32  C   UNL     1      -9.458  55.192  51.796  0.00  0.00    +0.000 C 
BRANCH  32  33
ATOM     33  C   UNL     1      -8.190  55.880  51.206  0.00  0.00    +0.000 C 
ATOM     34  C   UNL     1      -7.080  54.882  50.852  0.00  0.00    +0.000 C 
ATOM     35  C   UNL     1      -8.540  56.719  49.980  0.00  0.00    +0.000 C 
ENDBRANCH  32  33
ENDBRANCH  31  32
ENDBRANCH   5  31
TORSDOF 6
ENDMDL
MODEL 8
REMARK VINA RESULT:      -7.6      3.082      6.557
REMARK  Name = 353134
REMARK  8 active torsions:
REMARK  status: ('A' for Active; 'I' for Inactive)
REMARK    1  A    between atoms: C_6  and  C_10
REMARK    2  A    between atoms: C_12  and  N_16
REMARK    3  A    between atoms: C_14  and  O_19
REMARK    4  A    between atoms: N_18  and  C_22
REMARK    5  A    between atoms: C_22  and  C_25
REMARK    6  A    between atoms: C_25  and  C_28
REMARK    7  A    between atoms: C_28  and  C_29
REMARK    8  A    between atoms: C_28  and  C_30
REMARK                            x       y       z     vdW  Elec       q    Type
REMARK                         _______ _______ _______ _____ _____    ______ ____
ROOT
ATOM      1  C   UNL     1     -11.536  53.734  47.517  0.00  0.00    +0.000 A 
ATOM      2  C   UNL     1     -11.341  54.567  46.277  0.00  0.00    +0.000 A 
ATOM      3  C   UNL     1     -11.090  52.468  47.445  0.00  0.00    +0.000 A 
ATOM      4  O   UNL     1     -12.072  55.515  46.016  0.00  0.00    +0.000 OA
ATOM      5  N   UNL     1     -10.103  54.312  45.636  0.00  0.00    +0.000 N 
ATOM      6  C   UNL     1     -10.606  51.986  46.155  0.00  0.00    +0.000 A 
ATOM      7  C   UNL     1     -10.023  52.917  45.274  0.00  0.00    +0.000 A 
ATOM      8  C   UNL     1     -10.830  50.680  45.729  0.00  0.00    +0.000 A 
ATOM      9  N   UNL     1      -9.670  52.592  44.014  0.00  0.00    +0.000 NA
ATOM     10  C   UNL     1     -10.532  50.351  44.416  0.00  0.00    +0.000 A 
ATOM     11  C   UNL     1      -9.957  51.326  43.610  0.00  0.00    +0.000 A 
ENDROOT
BRANCH   1  17
ATOM     12  S   UNL     1     -11.231  54.803  51.213  0.00  0.00    +0.000 S 
ATOM     13  O   UNL     1     -11.455  53.715  52.145  0.00  0.00    +0.000 OA
ATOM     14  O   UNL     1     -10.152  55.753  51.405  0.00  0.00    +0.000 OA
ATOM     15  N   UNL     1     -11.041  54.194  49.742  0.00  0.00    +0.000 N 
ATOM     16  C   UNL     1     -12.703  55.744  51.209  0.00  0.00    +0.000 A 
ATOM     17  C   UNL     1     -11.945  54.329  48.820  0.00  0.00    +0.000 C 
ATOM     18  C   UNL     1     -13.496  55.745  50.070  0.00  0.00    +0.000 A 
ATOM     19  C   UNL     1     -13.008  56.489  52.347  0.00  0.00    +0.000 A 
ATOM     20  N   UNL     1     -13.138  55.009  48.939  0.00  0.00    +0.000 N 
ATOM     21  C   UNL     1     -14.606  56.593  50.069  0.00  0.00    +0.000 A 
ATOM     22  C   UNL     1     -14.161  57.262  52.376  0.00  0.00    +0.000 A 
ATOM     23  C   UNL     1     -14.921  57.356  51.208  0.00  0.00    +0.000 A 
ATOM     24  H   UNL     1     -10.214  53.703  49.531  0.00  0.00    +0.000 HD
ATOM     25  H   UNL     1     -13.770  54.974  48.187  0.00  0.00    +0.000 HD
BRANCH  22  26
ATOM     26  N   UNL     1     -14.403  58.101  53.465  0.00  0.00    +0.000 N 
ATOM     27  H   UNL     1     -13.733  58.185  54.181  0.00  0.00    +0.000 HD
ATOM     28  H   UNL     1     -15.245  58.609  53.516  0.00  0.00    +0.000 HD
ENDBRANCH  22  26
ENDBRANCH   1  17
BRANCH   3  29
ATOM     29  O   UNL     1     -10.969  51.584  48.494  0.00  0.00    +0.000 OA
ATOM     30  H   UNL     1     -11.734  51.199  48.873  0.00  0.00    +0.000 HD
ENDBRANCH   3  29
BRANCH   5  31
ATOM     31  C   UNL     1      -9.029  54.772  46.534  0.00  0.00    +0.000 C 
BRANCH  31  32
ATOM     32  C   UNL     1      -7.573  54.502  46.185  0.00  0.00    +0.000 C 
BRANCH  32  33
ATOM     33  C   UNL     1      -6.947  53.576  47.271  0.00  0.00    +0.000 C 
ATOM     34  C   UNL     1      -7.714  53.610  48.599  0.00  0.00    +0.000 C 
ATOM     35  C   UNL     1      -6.842  52.138  46.772  0.00  0.00    +0.000 C 
ENDBRANCH  32  33
ENDBRANCH  31  32
ENDBRANCH   5  31
TORSDOF 6
ENDMDL
MODEL 9
REMARK VINA RESULT:      -7.5      3.417      7.327
REMARK  Name = 353134
REMARK  8 active torsions:
REMARK  status: ('A' for Active; 'I' for Inactive)
REMARK    1  A    between atoms: C_6  and  C_10
REMARK    2  A    between atoms: C_12  and  N_16
REMARK    3  A    between atoms: C_14  and  O_19
REMARK    4  A    between atoms: N_18  and  C_22
REMARK    5  A    between atoms: C_22  and  C_25
REMARK    6  A    between atoms: C_25  and  C_28
REMARK    7  A    between atoms: C_28  and  C_29
REMARK    8  A    between atoms: C_28  and  C_30
REMARK                            x       y       z     vdW  Elec       q    Type
REMARK                         _______ _______ _______ _____ _____    ______ ____
ROOT
ATOM      1  C   UNL     1      -8.575  55.043  50.322  0.00  0.00    +0.000 A 
ATOM      2  C   UNL     1      -7.690  56.010  51.063  0.00  0.00    +0.000 A 
ATOM      3  C   UNL     1      -8.064  53.814  50.130  0.00  0.00    +0.000 A 
ATOM      4  O   UNL     1      -7.787  57.221  50.907  0.00  0.00    +0.000 OA
ATOM      5  N   UNL     1      -6.969  55.395  52.117  0.00  0.00    +0.000 N 
ATOM      6  C   UNL     1      -6.675  53.584  50.516  0.00  0.00    +0.000 A 
ATOM      7  C   UNL     1      -6.151  54.330  51.588  0.00  0.00    +0.000 A 
ATOM      8  C   UNL     1      -5.834  52.760  49.773  0.00  0.00    +0.000 A 
ATOM      9  N   UNL     1      -4.847  54.282  51.929  0.00  0.00    +0.000 NA
ATOM     10  C   UNL     1      -4.481  52.752  50.071  0.00  0.00    +0.000 A 
ATOM     11  C   UNL     1      -4.042  53.516  51.146  0.00  0.00    +0.000 A 
ENDROOT
BRANCH   1  17
ATOM     12  S   UNL     1     -11.916  55.056  48.390  0.00  0.00    +0.000 S 
ATOM     13  O   UNL     1     -11.981  56.080  47.365  0.00  0.00    +0.000 OA
ATOM     14  O   UNL     1     -12.395  53.709  48.144  0.00  0.00    +0.000 OA
ATOM     15  N   UNL     1     -10.397  54.914  48.883  0.00  0.00    +0.000 N 
ATOM     16  C   UNL     1     -12.854  55.661  49.734  0.00  0.00    +0.000 A 
ATOM     17  C   UNL     1     -10.013  55.324  50.052  0.00  0.00    +0.000 C 
ATOM     18  C   UNL     1     -12.197  56.012  50.906  0.00  0.00    +0.000 A 
ATOM     19  C   UNL     1     -14.238  55.736  49.587  0.00  0.00    +0.000 A 
ATOM     20  N   UNL     1     -10.812  55.891  51.022  0.00  0.00    +0.000 N 
ATOM     21  C   UNL     1     -12.993  56.387  51.991  0.00  0.00    +0.000 A 
ATOM     22  C   UNL     1     -15.018  56.196  50.639  0.00  0.00    +0.000 A 
ATOM     23  C   UNL     1     -14.391  56.460  51.859  0.00  0.00    +0.000 A 
ATOM     24  H   UNL     1      -9.735  54.502  48.280  0.00  0.00    +0.000 HD
ATOM     25  H   UNL     1     -10.381  56.228  51.840  0.00  0.00    +0.000 HD
BRANCH  22  26
ATOM     26  N   UNL     1     -16.409  56.157  50.536  0.00  0.00    +0.000 N 
ATOM     27  H   UNL     1     -16.848  55.405  50.077  0.00  0.00    +0.000 HD
ATOM     28  H   UNL     1     -16.952  56.881  50.924  0.00  0.00    +0.000 HD
ENDBRANCH  22  26
ENDBRANCH   1  17
BRANCH   3  29
ATOM     29  O   UNL     1      -8.744  52.709  49.669  0.00  0.00    +0.000 OA
ATOM     30  H   UNL     1      -9.436  52.338  50.179  0.00  0.00    +0.000 HD
ENDBRANCH   3  29
BRANCH   5  31
ATOM     31  C   UNL     1      -7.943  54.967  53.137  0.00  0.00    +0.000 C 
BRANCH  31  32
ATOM     32  C   UNL     1      -7.719  53.679  53.915  0.00  0.00    +0.000 C 
BRANCH  32  33
ATOM     33  C   UNL     1      -8.814  52.643  53.521  0.00  0.00    +0.000 C 
ATOM     34  C   UNL     1      -8.874  51.445  54.478  0.00  0.00    +0.000 C 
ATOM     35  C   UNL     1     -10.187  53.302  53.433  0.00  0.00    +0.000 C 
ENDBRANCH  32  33
ENDBRANCH  31  32
ENDBRANCH   5  31
TORSDOF 6
ENDMDL
