MODEL 1
REMARK VINA RESULT:      -7.7      0.000      0.000
REMARK  Name = 353164
REMARK  10 active torsions:
REMARK  status: ('A' for Active; 'I' for Inactive)
REMARK    1  A    between atoms: C_6  and  C_10
REMARK    2  A    between atoms: C_12  and  N_16
REMARK    3  A    between atoms: C_14  and  O_19
REMARK    4  A    between atoms: N_16  and  C_21
REMARK    5  A    between atoms: N_18  and  C_23
REMARK    6  A    between atoms: C_21  and  C_25
REMARK    7  A    between atoms: C_23  and  C_27
REMARK    8  A    between atoms: C_27  and  C_32
REMARK    9  A    between atoms: C_32  and  C_33
REMARK   10  A    between atoms: C_32  and  C_34
REMARK                            x       y       z     vdW  Elec       q    Type
REMARK                         _______ _______ _______ _____ _____    ______ ____
ROOT
ATOM      1  S   UNL     1     -11.510  55.291  49.667  0.00  0.00    +0.000 S 
ATOM      2  O   UNL     1     -12.313  54.277  49.014  0.00  0.00    +0.000 OA
ATOM      3  O   UNL     1     -10.742  56.238  48.882  0.00  0.00    +0.000 OA
ATOM      4  N   UNL     1     -10.492  54.539  50.674  0.00  0.00    +0.000 N 
ATOM      5  C   UNL     1     -12.617  56.248  50.632  0.00  0.00    +0.000 A 
ATOM      6  C   UNL     1     -10.637  54.618  51.964  0.00  0.00    +0.000 C 
ATOM      7  C   UNL     1     -12.539  56.143  52.008  0.00  0.00    +0.000 A 
ATOM      8  C   UNL     1     -13.532  57.093  50.004  0.00  0.00    +0.000 A 
ATOM      9  N   UNL     1     -11.646  55.275  52.624  0.00  0.00    +0.000 N 
ATOM     10  C   UNL     1     -13.449  56.867  52.774  0.00  0.00    +0.000 A 
ATOM     11  C   UNL     1     -14.404  57.867  50.770  0.00  0.00    +0.000 A 
ATOM     12  C   UNL     1     -14.371  57.719  52.161  0.00  0.00    +0.000 A 
ATOM     13  H   UNL     1      -9.748  54.011  50.304  0.00  0.00    +0.000 HD
ATOM     14  H   UNL     1     -11.744  55.123  53.591  0.00  0.00    +0.000 HD
ENDROOT
BRANCH   6  15
ATOM     15  C   UNL     1      -9.573  53.942  52.800  0.00  0.00    +0.000 A 
ATOM     16  C   UNL     1      -8.169  54.454  52.759  0.00  0.00    +0.000 A 
ATOM     17  C   UNL     1      -9.893  52.906  53.595  0.00  0.00    +0.000 A 
ATOM     18  O   UNL     1      -7.930  55.481  52.113  0.00  0.00    +0.000 OA
ATOM     19  N   UNL     1      -7.199  53.765  53.459  0.00  0.00    +0.000 N 
ATOM     20  C   UNL     1      -8.846  52.211  54.344  0.00  0.00    +0.000 A 
ATOM     21  C   UNL     1      -7.514  52.623  54.243  0.00  0.00    +0.000 A 
ATOM     22  C   UNL     1      -9.132  51.094  55.137  0.00  0.00    +0.000 A 
ATOM     23  N   UNL     1      -6.503  51.977  54.872  0.00  0.00    +0.000 NA
ATOM     24  C   UNL     1      -8.104  50.419  55.780  0.00  0.00    +0.000 A 
ATOM     25  C   UNL     1      -6.817  50.894  55.616  0.00  0.00    +0.000 A 
BRANCH  17  26
ATOM     26  O   UNL     1     -11.169  52.397  53.760  0.00  0.00    +0.000 OA
ATOM     27  H   UNL     1     -11.695  52.676  54.483  0.00  0.00    +0.000 HD
ENDBRANCH  17  26
BRANCH  19  28
ATOM     28  C   UNL     1      -5.801  54.186  53.368  0.00  0.00    +0.000 C 
BRANCH  28  29
ATOM     29  C   UNL     1      -5.199  53.870  51.992  0.00  0.00    +0.000 C 
BRANCH  29  30
ATOM     30  C   UNL     1      -4.158  52.733  51.995  0.00  0.00    +0.000 C 
ATOM     31  C   UNL     1      -3.347  52.675  53.291  0.00  0.00    +0.000 C 
ATOM     32  C   UNL     1      -4.868  51.391  51.782  0.00  0.00    +0.000 C 
ENDBRANCH  29  30
ENDBRANCH  28  29
ENDBRANCH  19  28
ENDBRANCH   6  15
BRANCH  11  33
ATOM     33  N   UNL     1     -15.364  58.623  50.088  0.00  0.00    +0.000 N 
ATOM     34  H   UNL     1     -16.026  58.195  49.499  0.00  0.00    +0.000 HD
BRANCH  33  35
ATOM     35  C   UNL     1     -15.345  60.088  50.283  0.00  0.00    +0.000 C 
BRANCH  35  36
ATOM     36  C   UNL     1     -14.314  60.733  49.353  0.00  0.00    +0.000 C 
ATOM     37  O   UNL     1     -13.131  60.865  49.645  0.00  0.00    +0.000 OA
ATOM     38  N   UNL     1     -14.804  61.153  48.148  0.00  0.00    +0.000 N 
ATOM     39  H   UNL     1     -15.759  61.035  47.938  0.00  0.00    +0.000 HD
ATOM     40  H   UNL     1     -14.204  61.572  47.491  0.00  0.00    +0.000 HD
ENDBRANCH  35  36
ENDBRANCH  33  35
ENDBRANCH  11  33
TORSDOF 8
ENDMDL
MODEL 2
REMARK VINA RESULT:      -7.1      4.683      6.291
REMARK  Name = 353164
REMARK  10 active torsions:
REMARK  status: ('A' for Active; 'I' for Inactive)
REMARK    1  A    between atoms: C_6  and  C_10
REMARK    2  A    between atoms: C_12  and  N_16
REMARK    3  A    between atoms: C_14  and  O_19
REMARK    4  A    between atoms: N_16  and  C_21
REMARK    5  A    between atoms: N_18  and  C_23
REMARK    6  A    between atoms: C_21  and  C_25
REMARK    7  A    between atoms: C_23  and  C_27
REMARK    8  A    between atoms: C_27  and  C_32
REMARK    9  A    between atoms: C_32  and  C_33
REMARK   10  A    between atoms: C_32  and  C_34
REMARK                            x       y       z     vdW  Elec       q    Type
REMARK                         _______ _______ _______ _____ _____    ______ ____
ROOT
ATOM      1  S   UNL     1     -11.680  54.943  50.467  0.00  0.00    +0.000 S 
ATOM      2  O   UNL     1     -10.737  55.664  51.297  0.00  0.00    +0.000 OA
ATOM      3  O   UNL     1     -12.609  54.001  51.059  0.00  0.00    +0.000 OA
ATOM      4  N   UNL     1     -10.835  54.161  49.330  0.00  0.00    +0.000 N 
ATOM      5  C   UNL     1     -12.663  56.157  49.671  0.00  0.00    +0.000 A 
ATOM      6  C   UNL     1     -10.876  54.532  48.084  0.00  0.00    +0.000 C 
ATOM      7  C   UNL     1     -12.504  56.333  48.310  0.00  0.00    +0.000 A 
ATOM      8  C   UNL     1     -13.580  56.901  50.413  0.00  0.00    +0.000 A 
ATOM      9  N   UNL     1     -11.566  55.610  47.585  0.00  0.00    +0.000 N 
ATOM     10  C   UNL     1     -13.251  57.329  47.686  0.00  0.00    +0.000 A 
ATOM     11  C   UNL     1     -14.375  57.858  49.780  0.00  0.00    +0.000 A 
ATOM     12  C   UNL     1     -14.175  58.083  48.413  0.00  0.00    +0.000 A 
ATOM     13  H   UNL     1     -10.279  53.391  49.585  0.00  0.00    +0.000 HD
ATOM     14  H   UNL     1     -11.384  55.887  46.659  0.00  0.00    +0.000 HD
ENDROOT
BRANCH   6  15
ATOM     15  C   UNL     1     -10.111  53.671  47.104  0.00  0.00    +0.000 A 
ATOM     16  C   UNL     1      -8.766  53.139  47.484  0.00  0.00    +0.000 A 
ATOM     17  C   UNL     1     -10.648  53.364  45.910  0.00  0.00    +0.000 A 
ATOM     18  O   UNL     1      -8.352  53.339  48.632  0.00  0.00    +0.000 OA
ATOM     19  N   UNL     1      -8.050  52.433  46.540  0.00  0.00    +0.000 N 
ATOM     20  C   UNL     1      -9.872  52.593  44.938  0.00  0.00    +0.000 A 
ATOM     21  C   UNL     1      -8.577  52.167  45.247  0.00  0.00    +0.000 A 
ATOM     22  C   UNL     1     -10.375  52.302  43.665  0.00  0.00    +0.000 A 
ATOM     23  N   UNL     1      -7.800  51.499  44.361  0.00  0.00    +0.000 NA
ATOM     24  C   UNL     1      -9.585  51.626  42.746  0.00  0.00    +0.000 A 
ATOM     25  C   UNL     1      -8.314  51.251  43.137  0.00  0.00    +0.000 A 
BRANCH  17  26
ATOM     26  O   UNL     1     -11.908  53.745  45.485  0.00  0.00    +0.000 OA
ATOM     27  H   UNL     1     -12.211  54.617  45.643  0.00  0.00    +0.000 HD
ENDBRANCH  17  26
BRANCH  19  28
ATOM     28  C   UNL     1      -6.694  51.976  46.849  0.00  0.00    +0.000 C 
BRANCH  28  29
ATOM     29  C   UNL     1      -5.699  53.142  46.906  0.00  0.00    +0.000 C 
BRANCH  29  30
ATOM     30  C   UNL     1      -4.771  53.131  48.138  0.00  0.00    +0.000 C 
ATOM     31  C   UNL     1      -4.960  54.357  49.034  0.00  0.00    +0.000 C 
ATOM     32  C   UNL     1      -5.026  51.860  48.956  0.00  0.00    +0.000 C 
ENDBRANCH  29  30
ENDBRANCH  28  29
ENDBRANCH  19  28
ENDBRANCH   6  15
BRANCH  11  33
ATOM     33  N   UNL     1     -15.208  58.640  50.587  0.00  0.00    +0.000 N 
ATOM     34  H   UNL     1     -16.152  58.791  50.352  0.00  0.00    +0.000 HD
BRANCH  33  35
ATOM     35  C   UNL     1     -14.616  59.233  51.805  0.00  0.00    +0.000 C 
BRANCH  35  36
ATOM     36  C   UNL     1     -15.300  58.672  53.054  0.00  0.00    +0.000 C 
ATOM     37  O   UNL     1     -15.497  57.476  53.235  0.00  0.00    +0.000 OA
ATOM     38  N   UNL     1     -15.675  59.607  53.979  0.00  0.00    +0.000 N 
ATOM     39  H   UNL     1     -15.505  60.562  53.809  0.00  0.00    +0.000 HD
ATOM     40  H   UNL     1     -16.115  59.326  54.812  0.00  0.00    +0.000 HD
ENDBRANCH  35  36
ENDBRANCH  33  35
ENDBRANCH  11  33
TORSDOF 8
ENDMDL
MODEL 3
REMARK VINA RESULT:      -7.1      2.423      3.164
REMARK  Name = 353164
REMARK  10 active torsions:
REMARK  status: ('A' for Active; 'I' for Inactive)
REMARK    1  A    between atoms: C_6  and  C_10
REMARK    2  A    between atoms: C_12  and  N_16
REMARK    3  A    between atoms: C_14  and  O_19
REMARK    4  A    between atoms: N_16  and  C_21
REMARK    5  A    between atoms: N_18  and  C_23
REMARK    6  A    between atoms: C_21  and  C_25
REMARK    7  A    between atoms: C_23  and  C_27
REMARK    8  A    between atoms: C_27  and  C_32
REMARK    9  A    between atoms: C_32  and  C_33
REMARK   10  A    between atoms: C_32  and  C_34
REMARK                            x       y       z     vdW  Elec       q    Type
REMARK                         _______ _______ _______ _____ _____    ______ ____
ROOT
ATOM      1  S   UNL     1     -11.316  54.751  48.193  0.00  0.00    +0.000 S 
ATOM      2  O   UNL     1     -12.300  53.803  47.715  0.00  0.00    +0.000 OA
ATOM      3  O   UNL     1     -10.890  55.855  47.354  0.00  0.00    +0.000 OA
ATOM      4  N   UNL     1      -9.998  53.917  48.624  0.00  0.00    +0.000 N 
ATOM      5  C   UNL     1     -11.992  55.476  49.639  0.00  0.00    +0.000 A 
ATOM      6  C   UNL     1      -9.660  53.785  49.873  0.00  0.00    +0.000 C 
ATOM      7  C   UNL     1     -11.416  55.164  50.855  0.00  0.00    +0.000 A 
ATOM      8  C   UNL     1     -13.075  56.349  49.534  0.00  0.00    +0.000 A 
ATOM      9  N   UNL     1     -10.358  54.268  50.952  0.00  0.00    +0.000 N 
ATOM     10  C   UNL     1     -11.982  55.701  52.007  0.00  0.00    +0.000 A 
ATOM     11  C   UNL     1     -13.607  56.939  50.682  0.00  0.00    +0.000 A 
ATOM     12  C   UNL     1     -13.066  56.579  51.921  0.00  0.00    +0.000 A 
ATOM     13  H   UNL     1      -9.441  53.500  47.927  0.00  0.00    +0.000 HD
ATOM     14  H   UNL     1     -10.094  53.961  51.849  0.00  0.00    +0.000 HD
ENDROOT
BRANCH   6  15
ATOM     15  C   UNL     1      -8.364  53.056  50.142  0.00  0.00    +0.000 A 
ATOM     16  C   UNL     1      -7.208  53.800  50.732  0.00  0.00    +0.000 A 
ATOM     17  C   UNL     1      -8.259  51.741  49.880  0.00  0.00    +0.000 A 
ATOM     18  O   UNL     1      -7.372  54.977  51.073  0.00  0.00    +0.000 OA
ATOM     19  N   UNL     1      -6.008  53.135  50.883  0.00  0.00    +0.000 N 
ATOM     20  C   UNL     1      -6.979  51.059  50.074  0.00  0.00    +0.000 A 
ATOM     21  C   UNL     1      -5.866  51.765  50.538  0.00  0.00    +0.000 A 
ATOM     22  C   UNL     1      -6.816  49.705  49.757  0.00  0.00    +0.000 A 
ATOM     23  N   UNL     1      -4.647  51.190  50.680  0.00  0.00    +0.000 NA
ATOM     24  C   UNL     1      -5.571  49.107  49.892  0.00  0.00    +0.000 A 
ATOM     25  C   UNL     1      -4.526  49.886  50.350  0.00  0.00    +0.000 A 
BRANCH  17  26
ATOM     26  O   UNL     1      -9.282  50.944  49.399  0.00  0.00    +0.000 OA
ATOM     27  H   UNL     1      -9.131  50.379  48.667  0.00  0.00    +0.000 HD
ENDBRANCH  17  26
BRANCH  19  28
ATOM     28  C   UNL     1      -4.834  53.859  51.372  0.00  0.00    +0.000 C 
BRANCH  28  29
ATOM     29  C   UNL     1      -4.643  53.680  52.884  0.00  0.00    +0.000 C 
BRANCH  29  30
ATOM     30  C   UNL     1      -5.001  54.921  53.726  0.00  0.00    +0.000 C 
ATOM     31  C   UNL     1      -6.080  54.636  54.773  0.00  0.00    +0.000 C 
ATOM     32  C   UNL     1      -3.741  55.444  54.425  0.00  0.00    +0.000 C 
ENDBRANCH  29  30
ENDBRANCH  28  29
ENDBRANCH  19  28
ENDBRANCH   6  15
BRANCH  11  33
ATOM     33  N   UNL     1     -14.751  57.730  50.529  0.00  0.00    +0.000 N 
ATOM     34  H   UNL     1     -15.602  57.343  50.221  0.00  0.00    +0.000 HD
BRANCH  33  35
ATOM     35  C   UNL     1     -14.633  59.169  50.845  0.00  0.00    +0.000 C 
BRANCH  35  36
ATOM     36  C   UNL     1     -13.931  59.907  49.702  0.00  0.00    +0.000 C 
ATOM     37  O   UNL     1     -13.038  60.728  49.877  0.00  0.00    +0.000 OA
ATOM     38  N   UNL     1     -14.365  59.579  48.448  0.00  0.00    +0.000 N 
ATOM     39  H   UNL     1     -15.085  58.916  48.334  0.00  0.00    +0.000 HD
ATOM     40  H   UNL     1     -13.960  60.005  47.659  0.00  0.00    +0.000 HD
ENDBRANCH  35  36
ENDBRANCH  33  35
ENDBRANCH  11  33
TORSDOF 8
ENDMDL
MODEL 4
REMARK VINA RESULT:      -7.1      3.709      5.719
REMARK  Name = 353164
REMARK  10 active torsions:
REMARK  status: ('A' for Active; 'I' for Inactive)
REMARK    1  A    between atoms: C_6  and  C_10
REMARK    2  A    between atoms: C_12  and  N_16
REMARK    3  A    between atoms: C_14  and  O_19
REMARK    4  A    between atoms: N_16  and  C_21
REMARK    5  A    between atoms: N_18  and  C_23
REMARK    6  A    between atoms: C_21  and  C_25
REMARK    7  A    between atoms: C_23  and  C_27
REMARK    8  A    between atoms: C_27  and  C_32
REMARK    9  A    between atoms: C_32  and  C_33
REMARK   10  A    between atoms: C_32  and  C_34
REMARK                            x       y       z     vdW  Elec       q    Type
REMARK                         _______ _______ _______ _____ _____    ______ ____
ROOT
ATOM      1  S   UNL     1     -13.419  58.982  49.312  0.00  0.00    +0.000 S 
ATOM      2  O   UNL     1     -14.556  59.113  48.423  0.00  0.00    +0.000 OA
ATOM      3  O   UNL     1     -12.552  60.116  49.568  0.00  0.00    +0.000 OA
ATOM      4  N   UNL     1     -12.502  57.769  48.761  0.00  0.00    +0.000 N 
ATOM      5  C   UNL     1     -14.066  58.506  50.870  0.00  0.00    +0.000 A 
ATOM      6  C   UNL     1     -12.423  56.638  49.399  0.00  0.00    +0.000 C 
ATOM      7  C   UNL     1     -13.812  57.223  51.316  0.00  0.00    +0.000 A 
ATOM      8  C   UNL     1     -14.803  59.420  51.623  0.00  0.00    +0.000 A 
ATOM      9  N   UNL     1     -13.104  56.310  50.545  0.00  0.00    +0.000 N 
ATOM     10  C   UNL     1     -14.365  56.830  52.531  0.00  0.00    +0.000 A 
ATOM     11  C   UNL     1     -15.306  59.049  52.870  0.00  0.00    +0.000 A 
ATOM     12  C   UNL     1     -15.104  57.732  53.300  0.00  0.00    +0.000 A 
ATOM     13  H   UNL     1     -11.994  57.888  47.926  0.00  0.00    +0.000 HD
ATOM     14  H   UNL     1     -13.092  55.370  50.838  0.00  0.00    +0.000 HD
ENDROOT
BRANCH   6  15
ATOM     15  C   UNL     1     -11.468  55.614  48.830  0.00  0.00    +0.000 A 
ATOM     16  C   UNL     1     -10.473  54.954  49.731  0.00  0.00    +0.000 A 
ATOM     17  C   UNL     1     -11.531  55.278  47.529  0.00  0.00    +0.000 A 
ATOM     18  O   UNL     1     -10.518  55.194  50.942  0.00  0.00    +0.000 OA
ATOM     19  N   UNL     1      -9.553  54.091  49.171  0.00  0.00    +0.000 N 
ATOM     20  C   UNL     1     -10.556  54.341  46.970  0.00  0.00    +0.000 A 
ATOM     21  C   UNL     1      -9.563  53.787  47.783  0.00  0.00    +0.000 A 
ATOM     22  C   UNL     1     -10.554  54.011  45.610  0.00  0.00    +0.000 A 
ATOM     23  N   UNL     1      -8.605  52.959  47.299  0.00  0.00    +0.000 NA
ATOM     24  C   UNL     1      -9.574  53.171  45.102  0.00  0.00    +0.000 A 
ATOM     25  C   UNL     1      -8.627  52.677  45.979  0.00  0.00    +0.000 A 
BRANCH  17  26
ATOM     26  O   UNL     1     -12.453  55.774  46.626  0.00  0.00    +0.000 OA
ATOM     27  H   UNL     1     -12.293  55.702  45.706  0.00  0.00    +0.000 HD
ENDBRANCH  17  26
BRANCH  19  28
ATOM     28  C   UNL     1      -8.509  53.499  50.008  0.00  0.00    +0.000 C 
BRANCH  28  29
ATOM     29  C   UNL     1      -7.273  54.403  50.103  0.00  0.00    +0.000 C 
BRANCH  29  30
ATOM     30  C   UNL     1      -6.954  54.904  51.526  0.00  0.00    +0.000 C 
ATOM     31  C   UNL     1      -7.383  56.354  51.755  0.00  0.00    +0.000 C 
ATOM     32  C   UNL     1      -7.651  54.002  52.552  0.00  0.00    +0.000 C 
ENDBRANCH  29  30
ENDBRANCH  28  29
ENDBRANCH  19  28
ENDBRANCH   6  15
BRANCH  11  33
ATOM     33  N   UNL     1     -16.118  59.972  53.539  0.00  0.00    +0.000 N 
ATOM     34  H   UNL     1     -16.636  60.648  53.045  0.00  0.00    +0.000 HD
BRANCH  33  35
ATOM     35  C   UNL     1     -16.166  59.896  55.014  0.00  0.00    +0.000 C 
BRANCH  35  36
ATOM     36  C   UNL     1     -17.162  60.920  55.566  0.00  0.00    +0.000 C 
ATOM     37  O   UNL     1     -17.572  61.877  54.920  0.00  0.00    +0.000 OA
ATOM     38  N   UNL     1     -17.582  60.687  56.846  0.00  0.00    +0.000 N 
ATOM     39  H   UNL     1     -17.237  59.910  57.343  0.00  0.00    +0.000 HD
ATOM     40  H   UNL     1     -18.227  61.297  57.271  0.00  0.00    +0.000 HD
ENDBRANCH  35  36
ENDBRANCH  33  35
ENDBRANCH  11  33
TORSDOF 8
ENDMDL
MODEL 5
REMARK VINA RESULT:      -7.0      4.300      5.616
REMARK  Name = 353164
REMARK  10 active torsions:
REMARK  status: ('A' for Active; 'I' for Inactive)
REMARK    1  A    between atoms: C_6  and  C_10
REMARK    2  A    between atoms: C_12  and  N_16
REMARK    3  A    between atoms: C_14  and  O_19
REMARK    4  A    between atoms: N_16  and  C_21
REMARK    5  A    between atoms: N_18  and  C_23
REMARK    6  A    between atoms: C_21  and  C_25
REMARK    7  A    between atoms: C_23  and  C_27
REMARK    8  A    between atoms: C_27  and  C_32
REMARK    9  A    between atoms: C_32  and  C_33
REMARK   10  A    between atoms: C_32  and  C_34
REMARK                            x       y       z     vdW  Elec       q    Type
REMARK                         _______ _______ _______ _____ _____    ______ ____
ROOT
ATOM      1  S   UNL     1     -11.524  54.706  50.669  0.00  0.00    +0.000 S 
ATOM      2  O   UNL     1     -10.642  55.573  51.425  0.00  0.00    +0.000 OA
ATOM      3  O   UNL     1     -12.471  53.846  51.352  0.00  0.00    +0.000 OA
ATOM      4  N   UNL     1     -10.602  53.775  49.719  0.00  0.00    +0.000 N 
ATOM      5  C   UNL     1     -12.477  55.753  49.637  0.00  0.00    +0.000 A 
ATOM      6  C   UNL     1     -10.576  53.943  48.430  0.00  0.00    +0.000 C 
ATOM      7  C   UNL     1     -12.243  55.716  48.276  0.00  0.00    +0.000 A 
ATOM      8  C   UNL     1     -13.448  56.583  50.199  0.00  0.00    +0.000 A 
ATOM      9  N   UNL     1     -11.252  54.910  47.729  0.00  0.00    +0.000 N 
ATOM     10  C   UNL     1     -12.967  56.582  47.461  0.00  0.00    +0.000 A 
ATOM     11  C   UNL     1     -14.219  57.407  49.379  0.00  0.00    +0.000 A 
ATOM     12  C   UNL     1     -13.944  57.418  48.007  0.00  0.00    +0.000 A 
ATOM     13  H   UNL     1     -10.050  53.068  50.125  0.00  0.00    +0.000 HD
ATOM     14  H   UNL     1     -11.021  55.042  46.781  0.00  0.00    +0.000 HD
ENDROOT
BRANCH   6  15
ATOM     15  C   UNL     1      -9.742  52.956  47.644  0.00  0.00    +0.000 A 
ATOM     16  C   UNL     1      -8.337  52.674  48.071  0.00  0.00    +0.000 A 
ATOM     17  C   UNL     1     -10.269  52.318  46.584  0.00  0.00    +0.000 A 
ATOM     18  O   UNL     1      -7.921  53.185  49.117  0.00  0.00    +0.000 OA
ATOM     19  N   UNL     1      -7.568  51.841  47.285  0.00  0.00    +0.000 N 
ATOM     20  C   UNL     1      -9.433  51.421  45.784  0.00  0.00    +0.000 A 
ATOM     21  C   UNL     1      -8.092  51.219  46.120  0.00  0.00    +0.000 A 
ATOM     22  C   UNL     1      -9.930  50.784  44.642  0.00  0.00    +0.000 A 
ATOM     23  N   UNL     1      -7.265  50.444  45.378  0.00  0.00    +0.000 NA
ATOM     24  C   UNL     1      -9.091  49.993  43.870  0.00  0.00    +0.000 A 
ATOM     25  C   UNL     1      -7.777  49.857  44.274  0.00  0.00    +0.000 A 
BRANCH  17  26
ATOM     26  O   UNL     1     -11.573  52.453  46.145  0.00  0.00    +0.000 OA
ATOM     27  H   UNL     1     -12.219  52.838  46.704  0.00  0.00    +0.000 HD
ENDBRANCH  17  26
BRANCH  19  28
ATOM     28  C   UNL     1      -6.162  51.615  47.625  0.00  0.00    +0.000 C 
BRANCH  28  29
ATOM     29  C   UNL     1      -5.301  52.854  47.342  0.00  0.00    +0.000 C 
BRANCH  29  30
ATOM     30  C   UNL     1      -4.370  53.263  48.501  0.00  0.00    +0.000 C 
ATOM     31  C   UNL     1      -4.764  54.600  49.133  0.00  0.00    +0.000 C 
ATOM     32  C   UNL     1      -4.383  52.171  49.576  0.00  0.00    +0.000 C 
ENDBRANCH  29  30
ENDBRANCH  28  29
ENDBRANCH  19  28
ENDBRANCH   6  15
BRANCH  11  33
ATOM     33  N   UNL     1     -15.110  58.287  50.004  0.00  0.00    +0.000 N 
ATOM     34  H   UNL     1     -16.081  58.131  49.982  0.00  0.00    +0.000 HD
BRANCH  33  35
ATOM     35  C   UNL     1     -14.536  59.460  50.697  0.00  0.00    +0.000 C 
BRANCH  35  36
ATOM     36  C   UNL     1     -13.851  60.388  49.690  0.00  0.00    +0.000 C 
ATOM     37  O   UNL     1     -12.659  60.666  49.733  0.00  0.00    +0.000 OA
ATOM     38  N   UNL     1     -14.668  60.887  48.714  0.00  0.00    +0.000 N 
ATOM     39  H   UNL     1     -15.623  60.648  48.702  0.00  0.00    +0.000 HD
ATOM     40  H   UNL     1     -14.302  61.486  48.025  0.00  0.00    +0.000 HD
ENDBRANCH  35  36
ENDBRANCH  33  35
ENDBRANCH  11  33
TORSDOF 8
ENDMDL
MODEL 6
REMARK VINA RESULT:      -6.8      4.733      6.388
REMARK  Name = 353164
REMARK  10 active torsions:
REMARK  status: ('A' for Active; 'I' for Inactive)
REMARK    1  A    between atoms: C_6  and  C_10
REMARK    2  A    between atoms: C_12  and  N_16
REMARK    3  A    between atoms: C_14  and  O_19
REMARK    4  A    between atoms: N_16  and  C_21
REMARK    5  A    between atoms: N_18  and  C_23
REMARK    6  A    between atoms: C_21  and  C_25
REMARK    7  A    between atoms: C_23  and  C_27
REMARK    8  A    between atoms: C_27  and  C_32
REMARK    9  A    between atoms: C_32  and  C_33
REMARK   10  A    between atoms: C_32  and  C_34
REMARK                            x       y       z     vdW  Elec       q    Type
REMARK                         _______ _______ _______ _____ _____    ______ ____
ROOT
ATOM      1  S   UNL     1      -9.550  54.645  51.061  0.00  0.00    +0.000 S 
ATOM      2  O   UNL     1      -8.764  55.861  51.119  0.00  0.00    +0.000 OA
ATOM      3  O   UNL     1      -9.542  53.710  52.169  0.00  0.00    +0.000 OA
ATOM      4  N   UNL     1      -9.112  53.840  49.727  0.00  0.00    +0.000 N 
ATOM      5  C   UNL     1     -11.218  55.148  50.865  0.00  0.00    +0.000 A 
ATOM      6  C   UNL     1      -9.910  53.743  48.705  0.00  0.00    +0.000 C 
ATOM      7  C   UNL     1     -11.835  54.903  49.653  0.00  0.00    +0.000 A 
ATOM      8  C   UNL     1     -11.884  55.765  51.924  0.00  0.00    +0.000 A 
ATOM      9  N   UNL     1     -11.153  54.317  48.594  0.00  0.00    +0.000 N 
ATOM     10  C   UNL     1     -13.143  55.344  49.481  0.00  0.00    +0.000 A 
ATOM     11  C   UNL     1     -13.217  56.153  51.776  0.00  0.00    +0.000 A 
ATOM     12  C   UNL     1     -13.827  55.963  50.531  0.00  0.00    +0.000 A 
ATOM     13  H   UNL     1      -8.225  53.417  49.688  0.00  0.00    +0.000 HD
ATOM     14  H   UNL     1     -11.588  54.313  47.711  0.00  0.00    +0.000 HD
ENDROOT
BRANCH   6  15
ATOM     15  C   UNL     1      -9.421  52.895  47.552  0.00  0.00    +0.000 A 
ATOM     16  C   UNL     1      -8.770  51.578  47.832  0.00  0.00    +0.000 A 
ATOM     17  C   UNL     1      -9.596  53.308  46.285  0.00  0.00    +0.000 A 
ATOM     18  O   UNL     1      -8.731  51.170  48.999  0.00  0.00    +0.000 OA
ATOM     19  N   UNL     1      -8.251  50.865  46.770  0.00  0.00    +0.000 N 
ATOM     20  C   UNL     1      -9.055  52.518  45.179  0.00  0.00    +0.000 A 
ATOM     21  C   UNL     1      -8.363  51.330  45.433  0.00  0.00    +0.000 A 
ATOM     22  C   UNL     1      -9.167  52.944  43.851  0.00  0.00    +0.000 A 
ATOM     23  N   UNL     1      -7.796  50.594  44.447  0.00  0.00    +0.000 NA
ATOM     24  C   UNL     1      -8.584  52.202  42.834  0.00  0.00    +0.000 A 
ATOM     25  C   UNL     1      -7.912  51.046  43.179  0.00  0.00    +0.000 A 
BRANCH  17  26
ATOM     26  O   UNL     1     -10.244  54.472  45.912  0.00  0.00    +0.000 OA
ATOM     27  H   UNL     1     -10.161  55.243  46.438  0.00  0.00    +0.000 HD
ENDBRANCH  17  26
BRANCH  19  28
ATOM     28  C   UNL     1      -7.527  49.617  47.018  0.00  0.00    +0.000 C 
BRANCH  28  29
ATOM     29  C   UNL     1      -6.247  49.852  47.831  0.00  0.00    +0.000 C 
BRANCH  29  30
ATOM     30  C   UNL     1      -5.214  50.771  47.146  0.00  0.00    +0.000 C 
ATOM     31  C   UNL     1      -5.169  52.172  47.759  0.00  0.00    +0.000 C 
ATOM     32  C   UNL     1      -3.824  50.132  47.239  0.00  0.00    +0.000 C 
ENDBRANCH  29  30
ENDBRANCH  28  29
ENDBRANCH  19  28
ENDBRANCH   6  15
BRANCH  11  33
ATOM     33  N   UNL     1     -13.805  56.853  52.835  0.00  0.00    +0.000 N 
ATOM     34  H   UNL     1     -13.324  56.998  53.682  0.00  0.00    +0.000 HD
BRANCH  33  35
ATOM     35  C   UNL     1     -15.178  57.365  52.636  0.00  0.00    +0.000 C 
BRANCH  35  36
ATOM     36  C   UNL     1     -15.167  58.893  52.550  0.00  0.00    +0.000 C 
ATOM     37  O   UNL     1     -14.885  59.509  51.530  0.00  0.00    +0.000 OA
ATOM     38  N   UNL     1     -15.508  59.540  53.706  0.00  0.00    +0.000 N 
ATOM     39  H   UNL     1     -15.730  59.021  54.513  0.00  0.00    +0.000 HD
ATOM     40  H   UNL     1     -15.531  60.524  53.731  0.00  0.00    +0.000 HD
ENDBRANCH  35  36
ENDBRANCH  33  35
ENDBRANCH  11  33
TORSDOF 8
ENDMDL
MODEL 7
REMARK VINA RESULT:      -6.8      2.478      3.970
REMARK  Name = 353164
REMARK  10 active torsions:
REMARK  status: ('A' for Active; 'I' for Inactive)
REMARK    1  A    between atoms: C_6  and  C_10
REMARK    2  A    between atoms: C_12  and  N_16
REMARK    3  A    between atoms: C_14  and  O_19
REMARK    4  A    between atoms: N_16  and  C_21
REMARK    5  A    between atoms: N_18  and  C_23
REMARK    6  A    between atoms: C_21  and  C_25
REMARK    7  A    between atoms: C_23  and  C_27
REMARK    8  A    between atoms: C_27  and  C_32
REMARK    9  A    between atoms: C_32  and  C_33
REMARK   10  A    between atoms: C_32  and  C_34
REMARK                            x       y       z     vdW  Elec       q    Type
REMARK                         _______ _______ _______ _____ _____    ______ ____
ROOT
ATOM      1  S   UNL     1     -11.009  54.505  47.947  0.00  0.00    +0.000 S 
ATOM      2  O   UNL     1     -11.880  53.451  47.468  0.00  0.00    +0.000 OA
ATOM      3  O   UNL     1     -10.773  55.687  47.140  0.00  0.00    +0.000 OA
ATOM      4  N   UNL     1      -9.574  53.840  48.287  0.00  0.00    +0.000 N 
ATOM      5  C   UNL     1     -11.710  55.077  49.449  0.00  0.00    +0.000 A 
ATOM      6  C   UNL     1      -9.165  53.708  49.515  0.00  0.00    +0.000 C 
ATOM      7  C   UNL     1     -11.041  54.800  50.626  0.00  0.00    +0.000 A 
ATOM      8  C   UNL     1     -12.903  55.799  49.426  0.00  0.00    +0.000 A 
ATOM      9  N   UNL     1      -9.871  54.052  50.641  0.00  0.00    +0.000 N 
ATOM     10  C   UNL     1     -11.621  55.212  51.822  0.00  0.00    +0.000 A 
ATOM     11  C   UNL     1     -13.455  56.269  50.619  0.00  0.00    +0.000 A 
ATOM     12  C   UNL     1     -12.815  55.938  51.818  0.00  0.00    +0.000 A 
ATOM     13  H   UNL     1      -8.999  53.529  47.552  0.00  0.00    +0.000 HD
ATOM     14  H   UNL     1      -9.528  53.750  51.513  0.00  0.00    +0.000 HD
ENDROOT
BRANCH   6  15
ATOM     15  C   UNL     1      -7.772  53.151  49.700  0.00  0.00    +0.000 A 
ATOM     16  C   UNL     1      -6.858  53.772  50.708  0.00  0.00    +0.000 A 
ATOM     17  C   UNL     1      -7.367  52.087  48.984  0.00  0.00    +0.000 A 
ATOM     18  O   UNL     1      -7.298  54.670  51.434  0.00  0.00    +0.000 OA
ATOM     19  N   UNL     1      -5.562  53.304  50.793  0.00  0.00    +0.000 N 
ATOM     20  C   UNL     1      -5.994  51.599  49.115  0.00  0.00    +0.000 A 
ATOM     21  C   UNL     1      -5.101  52.229  49.987  0.00  0.00    +0.000 A 
ATOM     22  C   UNL     1      -5.520  50.532  48.345  0.00  0.00    +0.000 A 
ATOM     23  N   UNL     1      -3.806  51.850  50.101  0.00  0.00    +0.000 NA
ATOM     24  C   UNL     1      -4.193  50.139  48.447  0.00  0.00    +0.000 A 
ATOM     25  C   UNL     1      -3.382  50.825  49.330  0.00  0.00    +0.000 A 
BRANCH  17  26
ATOM     26  O   UNL     1      -8.151  51.396  48.077  0.00  0.00    +0.000 OA
ATOM     27  H   UNL     1      -8.292  50.477  48.185  0.00  0.00    +0.000 HD
ENDBRANCH  17  26
BRANCH  19  28
ATOM     28  C   UNL     1      -4.616  53.950  51.705  0.00  0.00    +0.000 C 
BRANCH  28  29
ATOM     29  C   UNL     1      -4.448  53.157  53.008  0.00  0.00    +0.000 C 
BRANCH  29  30
ATOM     30  C   UNL     1      -5.100  53.811  54.243  0.00  0.00    +0.000 C 
ATOM     31  C   UNL     1      -5.287  55.321  54.085  0.00  0.00    +0.000 C 
ATOM     32  C   UNL     1      -6.460  53.156  54.508  0.00  0.00    +0.000 C 
ENDBRANCH  29  30
ENDBRANCH  28  29
ENDBRANCH  19  28
ENDBRANCH   6  15
BRANCH  11  33
ATOM     33  N   UNL     1     -14.700  56.903  50.546  0.00  0.00    +0.000 N 
ATOM     34  H   UNL     1     -15.146  57.056  49.682  0.00  0.00    +0.000 HD
BRANCH  33  35
ATOM     35  C   UNL     1     -15.320  57.337  51.816  0.00  0.00    +0.000 C 
BRANCH  35  36
ATOM     36  C   UNL     1     -15.007  58.812  52.083  0.00  0.00    +0.000 C 
ATOM     37  O   UNL     1     -14.625  59.588  51.215  0.00  0.00    +0.000 OA
ATOM     38  N   UNL     1     -15.194  59.219  53.375  0.00  0.00    +0.000 N 
ATOM     39  H   UNL     1     -15.501  58.575  54.054  0.00  0.00    +0.000 HD
ATOM     40  H   UNL     1     -15.021  60.154  53.626  0.00  0.00    +0.000 HD
ENDBRANCH  35  36
ENDBRANCH  33  35
ENDBRANCH  11  33
TORSDOF 8
ENDMDL
MODEL 8
REMARK VINA RESULT:      -6.8      3.022      4.685
REMARK  Name = 353164
REMARK  10 active torsions:
REMARK  status: ('A' for Active; 'I' for Inactive)
REMARK    1  A    between atoms: C_6  and  C_10
REMARK    2  A    between atoms: C_12  and  N_16
REMARK    3  A    between atoms: C_14  and  O_19
REMARK    4  A    between atoms: N_16  and  C_21
REMARK    5  A    between atoms: N_18  and  C_23
REMARK    6  A    between atoms: C_21  and  C_25
REMARK    7  A    between atoms: C_23  and  C_27
REMARK    8  A    between atoms: C_27  and  C_32
REMARK    9  A    between atoms: C_32  and  C_33
REMARK   10  A    between atoms: C_32  and  C_34
REMARK                            x       y       z     vdW  Elec       q    Type
REMARK                         _______ _______ _______ _____ _____    ______ ____
ROOT
ATOM      1  S   UNL     1     -10.952  54.356  51.433  0.00  0.00    +0.000 S 
ATOM      2  O   UNL     1     -10.760  55.428  52.389  0.00  0.00    +0.000 OA
ATOM      3  O   UNL     1     -11.823  53.240  51.747  0.00  0.00    +0.000 OA
ATOM      4  N   UNL     1      -9.493  53.761  51.063  0.00  0.00    +0.000 N 
ATOM      5  C   UNL     1     -11.616  55.097  49.990  0.00  0.00    +0.000 A 
ATOM      6  C   UNL     1      -8.962  53.957  49.893  0.00  0.00    +0.000 C 
ATOM      7  C   UNL     1     -10.817  55.160  48.864  0.00  0.00    +0.000 A 
ATOM      8  C   UNL     1     -12.921  55.589  50.001  0.00  0.00    +0.000 A 
ATOM      9  N   UNL     1      -9.508  54.696  48.872  0.00  0.00    +0.000 N 
ATOM     10  C   UNL     1     -11.327  55.790  47.733  0.00  0.00    +0.000 A 
ATOM     11  C   UNL     1     -13.458  56.165  48.849  0.00  0.00    +0.000 A 
ATOM     12  C   UNL     1     -12.633  56.288  47.726  0.00  0.00    +0.000 A 
ATOM     13  H   UNL     1      -8.999  53.241  51.736  0.00  0.00    +0.000 HD
ATOM     14  H   UNL     1      -8.937  54.911  48.099  0.00  0.00    +0.000 HD
ENDROOT
BRANCH   6  15
ATOM     15  C   UNL     1      -7.634  53.280  49.639  0.00  0.00    +0.000 A 
ATOM     16  C   UNL     1      -6.453  53.633  50.486  0.00  0.00    +0.000 A 
ATOM     17  C   UNL     1      -7.523  52.347  48.677  0.00  0.00    +0.000 A 
ATOM     18  O   UNL     1      -6.615  54.405  51.438  0.00  0.00    +0.000 OA
ATOM     19  N   UNL     1      -5.232  53.070  50.175  0.00  0.00    +0.000 N 
ATOM     20  C   UNL     1      -6.218  51.750  48.388  0.00  0.00    +0.000 A 
ATOM     21  C   UNL     1      -5.088  52.139  49.112  0.00  0.00    +0.000 A 
ATOM     22  C   UNL     1      -6.052  50.818  47.357  0.00  0.00    +0.000 A 
ATOM     23  N   UNL     1      -3.851  51.656  48.844  0.00  0.00    +0.000 NA
ATOM     24  C   UNL     1      -4.789  50.322  47.068  0.00  0.00    +0.000 A 
ATOM     25  C   UNL     1      -3.728  50.771  47.831  0.00  0.00    +0.000 A 
BRANCH  17  26
ATOM     26  O   UNL     1      -8.563  51.897  47.884  0.00  0.00    +0.000 OA
ATOM     27  H   UNL     1      -9.083  51.170  48.162  0.00  0.00    +0.000 HD
ENDBRANCH  17  26
BRANCH  19  28
ATOM     28  C   UNL     1      -4.039  53.463  50.926  0.00  0.00    +0.000 C 
BRANCH  28  29
ATOM     29  C   UNL     1      -3.726  52.475  52.058  0.00  0.00    +0.000 C 
BRANCH  29  30
ATOM     30  C   UNL     1      -3.895  53.053  53.477  0.00  0.00    +0.000 C 
ATOM     31  C   UNL     1      -3.697  54.569  53.527  0.00  0.00    +0.000 C 
ATOM     32  C   UNL     1      -5.291  52.706  54.006  0.00  0.00    +0.000 C 
ENDBRANCH  29  30
ENDBRANCH  28  29
ENDBRANCH  19  28
ENDBRANCH   6  15
BRANCH  11  33
ATOM     33  N   UNL     1     -14.735  56.728  48.945  0.00  0.00    +0.000 N 
ATOM     34  H   UNL     1     -15.391  56.635  48.217  0.00  0.00    +0.000 HD
BRANCH  33  35
ATOM     35  C   UNL     1     -15.063  57.469  50.182  0.00  0.00    +0.000 C 
BRANCH  35  36
ATOM     36  C   UNL     1     -16.067  56.677  51.024  0.00  0.00    +0.000 C 
ATOM     37  O   UNL     1     -17.021  56.075  50.547  0.00  0.00    +0.000 OA
ATOM     38  N   UNL     1     -15.820  56.676  52.369  0.00  0.00    +0.000 N 
ATOM     39  H   UNL     1     -15.046  57.168  52.727  0.00  0.00    +0.000 HD
ATOM     40  H   UNL     1     -16.416  56.184  52.978  0.00  0.00    +0.000 HD
ENDBRANCH  35  36
ENDBRANCH  33  35
ENDBRANCH  11  33
TORSDOF 8
ENDMDL
MODEL 9
REMARK VINA RESULT:      -6.8      2.034      3.840
REMARK  Name = 353164
REMARK  10 active torsions:
REMARK  status: ('A' for Active; 'I' for Inactive)
REMARK    1  A    between atoms: C_6  and  C_10
REMARK    2  A    between atoms: C_12  and  N_16
REMARK    3  A    between atoms: C_14  and  O_19
REMARK    4  A    between atoms: N_16  and  C_21
REMARK    5  A    between atoms: N_18  and  C_23
REMARK    6  A    between atoms: C_21  and  C_25
REMARK    7  A    between atoms: C_23  and  C_27
REMARK    8  A    between atoms: C_27  and  C_32
REMARK    9  A    between atoms: C_32  and  C_33
REMARK   10  A    between atoms: C_32  and  C_34
REMARK                            x       y       z     vdW  Elec       q    Type
REMARK                         _______ _______ _______ _____ _____    ______ ____
ROOT
ATOM      1  S   UNL     1     -11.354  54.770  47.915  0.00  0.00    +0.000 S 
ATOM      2  O   UNL     1     -12.351  53.882  47.352  0.00  0.00    +0.000 OA
ATOM      3  O   UNL     1     -10.776  55.829  47.111  0.00  0.00    +0.000 OA
ATOM      4  N   UNL     1     -10.144  53.855  48.478  0.00  0.00    +0.000 N 
ATOM      5  C   UNL     1     -12.115  55.560  49.282  0.00  0.00    +0.000 A 
ATOM      6  C   UNL     1      -9.937  53.720  49.754  0.00  0.00    +0.000 C 
ATOM      7  C   UNL     1     -11.679  55.229  50.551  0.00  0.00    +0.000 A 
ATOM      8  C   UNL     1     -13.120  56.503  49.066  0.00  0.00    +0.000 A 
ATOM      9  N   UNL     1     -10.700  54.265  50.757  0.00  0.00    +0.000 N 
ATOM     10  C   UNL     1     -12.315  55.821  51.638  0.00  0.00    +0.000 A 
ATOM     11  C   UNL     1     -13.717  57.145  50.152  0.00  0.00    +0.000 A 
ATOM     12  C   UNL     1     -13.323  56.768  51.440  0.00  0.00    +0.000 A 
ATOM     13  H   UNL     1      -9.553  53.390  47.842  0.00  0.00    +0.000 HD
ATOM     14  H   UNL     1     -10.544  53.956  51.678  0.00  0.00    +0.000 HD
ENDROOT
BRANCH   6  15
ATOM     15  C   UNL     1      -8.725  52.909  50.154  0.00  0.00    +0.000 A 
ATOM     16  C   UNL     1      -8.850  51.880  51.232  0.00  0.00    +0.000 A 
ATOM     17  C   UNL     1      -7.550  53.092  49.526  0.00  0.00    +0.000 A 
ATOM     18  O   UNL     1      -9.968  51.651  51.707  0.00  0.00    +0.000 OA
ATOM     19  N   UNL     1      -7.711  51.218  51.642  0.00  0.00    +0.000 N 
ATOM     20  C   UNL     1      -6.365  52.357  49.968  0.00  0.00    +0.000 A 
ATOM     21  C   UNL     1      -6.448  51.459  51.036  0.00  0.00    +0.000 A 
ATOM     22  C   UNL     1      -5.113  52.563  49.377  0.00  0.00    +0.000 A 
ATOM     23  N   UNL     1      -5.368  50.798  51.516  0.00  0.00    +0.000 NA
ATOM     24  C   UNL     1      -3.998  51.897  49.866  0.00  0.00    +0.000 A 
ATOM     25  C   UNL     1      -4.175  51.034  50.930  0.00  0.00    +0.000 A 
BRANCH  17  26
ATOM     26  O   UNL     1      -7.341  53.966  48.474  0.00  0.00    +0.000 OA
ATOM     27  H   UNL     1      -7.795  53.841  47.664  0.00  0.00    +0.000 HD
ENDBRANCH  17  26
BRANCH  19  28
ATOM     28  C   UNL     1      -7.782  50.271  52.755  0.00  0.00    +0.000 C 
BRANCH  28  29
ATOM     29  C   UNL     1      -7.814  50.988  54.112  0.00  0.00    +0.000 C 
BRANCH  29  30
ATOM     30  C   UNL     1      -8.891  50.467  55.085  0.00  0.00    +0.000 C 
ATOM     31  C   UNL     1      -8.315  50.057  56.442  0.00  0.00    +0.000 C 
ATOM     32  C   UNL     1      -9.956  51.549  55.292  0.00  0.00    +0.000 C 
ENDBRANCH  29  30
ENDBRANCH  28  29
ENDBRANCH  19  28
ENDBRANCH   6  15
BRANCH  11  33
ATOM     33  N   UNL     1     -14.784  58.009  49.882  0.00  0.00    +0.000 N 
ATOM     34  H   UNL     1     -15.529  57.734  49.299  0.00  0.00    +0.000 HD
BRANCH  33  35
ATOM     35  C   UNL     1     -14.751  59.349  50.504  0.00  0.00    +0.000 C 
BRANCH  35  36
ATOM     36  C   UNL     1     -13.939  60.316  49.639  0.00  0.00    +0.000 C 
ATOM     37  O   UNL     1     -12.764  60.589  49.854  0.00  0.00    +0.000 OA
ATOM     38  N   UNL     1     -14.618  60.857  48.582  0.00  0.00    +0.000 N 
ATOM     39  H   UNL     1     -15.561  60.620  48.431  0.00  0.00    +0.000 HD
ATOM     40  H   UNL     1     -14.163  61.483  47.974  0.00  0.00    +0.000 HD
ENDBRANCH  35  36
ENDBRANCH  33  35
ENDBRANCH  11  33
TORSDOF 8
ENDMDL
