MODEL 1
REMARK VINA RESULT:      -9.2      0.000      0.000
REMARK  Name = 352866
REMARK  5 active torsions:
REMARK  status: ('A' for Active; 'I' for Inactive)
REMARK    1  A    between atoms: C_6  and  C_10
REMARK    2  A    between atoms: C_11  and  O_15
REMARK    3  A    between atoms: C_14  and  O_19
REMARK    4  A    between atoms: N_18  and  C_22
REMARK    5  A    between atoms: C_22  and  C_25
REMARK                            x       y       z     vdW  Elec       q    Type
REMARK                         _______ _______ _______ _____ _____    ______ ____
ROOT
ATOM      1  C   UNL     1     -10.672  55.755  50.820  0.00  0.00    +0.000 A 
ATOM      2  C   UNL     1     -10.094  56.215  49.524  0.00  0.00    +0.000 A 
ATOM      3  C   UNL     1     -12.018  55.746  50.883  0.00  0.00    +0.000 A 
ATOM      4  O   UNL     1      -9.094  56.921  49.492  0.00  0.00    +0.000 OA
ATOM      5  N   UNL     1     -10.762  55.657  48.408  0.00  0.00    +0.000 N 
ATOM      6  C   UNL     1     -12.752  56.226  49.708  0.00  0.00    +0.000 A 
ATOM      7  C   UNL     1     -12.148  56.064  48.439  0.00  0.00    +0.000 A 
ATOM      8  C   UNL     1     -13.975  56.883  49.804  0.00  0.00    +0.000 A 
ATOM      9  N   UNL     1     -12.701  56.545  47.309  0.00  0.00    +0.000 NA
ATOM     10  C   UNL     1     -14.523  57.432  48.654  0.00  0.00    +0.000 A 
ATOM     11  C   UNL     1     -13.861  57.236  47.448  0.00  0.00    +0.000 A 
ENDROOT
BRANCH   1  17
ATOM     12  S   UNL     1      -9.526  52.630  52.719  0.00  0.00    +0.000 S 
ATOM     13  O   UNL     1     -10.351  52.195  53.828  0.00  0.00    +0.000 OA
ATOM     14  O   UNL     1      -9.034  51.681  51.729  0.00  0.00    +0.000 OA
ATOM     15  N   UNL     1     -10.332  53.776  51.953  0.00  0.00    +0.000 N 
ATOM     16  C   UNL     1      -8.101  53.379  53.424  0.00  0.00    +0.000 A 
ATOM     17  C   UNL     1      -9.834  54.959  51.755  0.00  0.00    +0.000 C 
ATOM     18  C   UNL     1      -7.802  54.701  53.097  0.00  0.00    +0.000 A 
ATOM     19  C   UNL     1      -7.333  52.600  54.293  0.00  0.00    +0.000 A 
ATOM     20  N   UNL     1      -8.643  55.442  52.252  0.00  0.00    +0.000 N 
ATOM     21  C   UNL     1      -6.671  55.243  53.724  0.00  0.00    +0.000 A 
ATOM     22  C   UNL     1      -6.214  53.157  54.887  0.00  0.00    +0.000 A 
ATOM     23  C   UNL     1      -5.887  54.481  54.605  0.00  0.00    +0.000 A 
ATOM     24  H   UNL     1     -11.237  53.579  51.619  0.00  0.00    +0.000 HD
ATOM     25  H   UNL     1      -8.369  56.354  52.000  0.00  0.00    +0.000 HD
BRANCH  21  26
ATOM     26  O   UNL     1      -6.248  56.532  53.558  0.00  0.00    +0.000 OA
ATOM     27  H   UNL     1      -5.360  56.707  53.314  0.00  0.00    +0.000 HD
ENDBRANCH  21  26
ENDBRANCH   1  17
BRANCH   3  28
ATOM     28  O   UNL     1     -12.780  55.167  51.871  0.00  0.00    +0.000 OA
ATOM     29  H   UNL     1     -12.671  54.258  52.075  0.00  0.00    +0.000 HD
ENDBRANCH   3  28
BRANCH   5  30
ATOM     30  C   UNL     1     -10.565  54.187  48.401  0.00  0.00    +0.000 C 
BRANCH  30  31
ATOM     31  C   UNL     1     -11.022  53.355  47.234  0.00  0.00    +0.000 A 
ATOM     32  C   UNL     1     -11.934  52.307  47.358  0.00  0.00    +0.000 A 
ATOM     33  C   UNL     1     -10.645  53.771  45.939  0.00  0.00    +0.000 A 
ATOM     34  C   UNL     1     -12.420  51.659  46.218  0.00  0.00    +0.000 A 
ATOM     35  C   UNL     1     -11.128  53.123  44.803  0.00  0.00    +0.000 A 
ATOM     36  C   UNL     1     -12.012  52.060  44.944  0.00  0.00    +0.000 A 
ENDBRANCH  30  31
ENDBRANCH   5  30
TORSDOF 5
ENDMDL
MODEL 2
REMARK VINA RESULT:      -8.6      1.034      2.290
REMARK  Name = 352866
REMARK  5 active torsions:
REMARK  status: ('A' for Active; 'I' for Inactive)
REMARK    1  A    between atoms: C_6  and  C_10
REMARK    2  A    between atoms: C_11  and  O_15
REMARK    3  A    between atoms: C_14  and  O_19
REMARK    4  A    between atoms: N_18  and  C_22
REMARK    5  A    between atoms: C_22  and  C_25
REMARK                            x       y       z     vdW  Elec       q    Type
REMARK                         _______ _______ _______ _____ _____    ______ ____
ROOT
ATOM      1  C   UNL     1     -10.300  55.778  50.907  0.00  0.00    +0.000 A 
ATOM      2  C   UNL     1      -9.923  56.363  49.588  0.00  0.00    +0.000 A 
ATOM      3  C   UNL     1     -11.621  55.606  51.108  0.00  0.00    +0.000 A 
ATOM      4  O   UNL     1      -9.019  57.184  49.494  0.00  0.00    +0.000 OA
ATOM      5  N   UNL     1     -10.642  55.782  48.517  0.00  0.00    +0.000 N 
ATOM      6  C   UNL     1     -12.529  56.049  50.046  0.00  0.00    +0.000 A 
ATOM      7  C   UNL     1     -12.053  56.019  48.715  0.00  0.00    +0.000 A 
ATOM      8  C   UNL     1     -13.801  56.551  50.307  0.00  0.00    +0.000 A 
ATOM      9  N   UNL     1     -12.777  56.483  47.677  0.00  0.00    +0.000 NA
ATOM     10  C   UNL     1     -14.530  57.084  49.253  0.00  0.00    +0.000 A 
ATOM     11  C   UNL     1     -13.986  57.024  47.975  0.00  0.00    +0.000 A 
ENDROOT
BRANCH   1  17
ATOM     12  S   UNL     1      -6.896  55.186  52.565  0.00  0.00    +0.000 S 
ATOM     13  O   UNL     1      -5.793  54.831  51.694  0.00  0.00    +0.000 OA
ATOM     14  O   UNL     1      -6.741  56.197  53.602  0.00  0.00    +0.000 OA
ATOM     15  N   UNL     1      -8.117  55.616  51.629  0.00  0.00    +0.000 N 
ATOM     16  C   UNL     1      -7.370  53.710  53.392  0.00  0.00    +0.000 A 
ATOM     17  C   UNL     1      -9.280  55.045  51.703  0.00  0.00    +0.000 C 
ATOM     18  C   UNL     1      -8.685  53.260  53.271  0.00  0.00    +0.000 A 
ATOM     19  C   UNL     1      -6.388  53.050  54.136  0.00  0.00    +0.000 A 
ATOM     20  N   UNL     1      -9.610  53.948  52.469  0.00  0.00    +0.000 N 
ATOM     21  C   UNL     1      -8.980  52.058  53.929  0.00  0.00    +0.000 A 
ATOM     22  C   UNL     1      -6.713  51.873  54.786  0.00  0.00    +0.000 A 
ATOM     23  C   UNL     1      -8.009  51.375  54.678  0.00  0.00    +0.000 A 
ATOM     24  H   UNL     1      -7.983  56.339  50.974  0.00  0.00    +0.000 HD
ATOM     25  H   UNL     1     -10.542  53.632  52.454  0.00  0.00    +0.000 HD
BRANCH  21  26
ATOM     26  O   UNL     1     -10.202  51.445  53.889  0.00  0.00    +0.000 OA
ATOM     27  H   UNL     1     -10.873  51.699  54.492  0.00  0.00    +0.000 HD
ENDBRANCH  21  26
ENDBRANCH   1  17
BRANCH   3  28
ATOM     28  O   UNL     1     -12.200  54.895  52.135  0.00  0.00    +0.000 OA
ATOM     29  H   UNL     1     -12.184  53.958  52.123  0.00  0.00    +0.000 HD
ENDBRANCH   3  28
BRANCH   5  30
ATOM     30  C   UNL     1     -10.282  54.348  48.402  0.00  0.00    +0.000 C 
BRANCH  30  31
ATOM     31  C   UNL     1     -10.845  53.498  47.296  0.00  0.00    +0.000 A 
ATOM     32  C   UNL     1     -11.761  52.470  47.518  0.00  0.00    +0.000 A 
ATOM     33  C   UNL     1     -10.567  53.879  45.966  0.00  0.00    +0.000 A 
ATOM     34  C   UNL     1     -12.348  51.805  46.437  0.00  0.00    +0.000 A 
ATOM     35  C   UNL     1     -11.151  53.214  44.888  0.00  0.00    +0.000 A 
ATOM     36  C   UNL     1     -12.038  52.170  45.125  0.00  0.00    +0.000 A 
ENDBRANCH  30  31
ENDBRANCH   5  30
TORSDOF 5
ENDMDL
MODEL 3
REMARK VINA RESULT:      -8.6      1.907      2.486
REMARK  Name = 352866
REMARK  5 active torsions:
REMARK  status: ('A' for Active; 'I' for Inactive)
REMARK    1  A    between atoms: C_6  and  C_10
REMARK    2  A    between atoms: C_11  and  O_15
REMARK    3  A    between atoms: C_14  and  O_19
REMARK    4  A    between atoms: N_18  and  C_22
REMARK    5  A    between atoms: C_22  and  C_25
REMARK                            x       y       z     vdW  Elec       q    Type
REMARK                         _______ _______ _______ _____ _____    ______ ____
ROOT
ATOM      1  C   UNL     1      -9.589  55.742  50.997  0.00  0.00    +0.000 A 
ATOM      2  C   UNL     1      -9.904  56.357  49.675  0.00  0.00    +0.000 A 
ATOM      3  C   UNL     1     -10.655  55.376  51.734  0.00  0.00    +0.000 A 
ATOM      4  O   UNL     1      -9.255  57.303  49.246  0.00  0.00    +0.000 OA
ATOM      5  N   UNL     1     -10.923  55.659  48.986  0.00  0.00    +0.000 N 
ATOM      6  C   UNL     1     -11.985  55.662  51.186  0.00  0.00    +0.000 A 
ATOM      7  C   UNL     1     -12.129  55.684  49.780  0.00  0.00    +0.000 A 
ATOM      8  C   UNL     1     -13.078  55.971  51.991  0.00  0.00    +0.000 A 
ATOM      9  N   UNL     1     -13.288  56.019  49.177  0.00  0.00    +0.000 NA
ATOM     10  C   UNL     1     -14.257  56.373  51.380  0.00  0.00    +0.000 A 
ATOM     11  C   UNL     1     -14.313  56.376  49.991  0.00  0.00    +0.000 A 
ENDROOT
BRANCH   1  17
ATOM     12  S   UNL     1      -6.126  54.390  50.066  0.00  0.00    +0.000 S 
ATOM     13  O   UNL     1      -6.069  53.050  49.515  0.00  0.00    +0.000 OA
ATOM     14  O   UNL     1      -5.386  55.486  49.456  0.00  0.00    +0.000 OA
ATOM     15  N   UNL     1      -7.666  54.806  50.135  0.00  0.00    +0.000 N 
ATOM     16  C   UNL     1      -5.545  54.271  51.720  0.00  0.00    +0.000 A 
ATOM     17  C   UNL     1      -8.233  55.182  51.241  0.00  0.00    +0.000 C 
ATOM     18  C   UNL     1      -6.374  54.694  52.759  0.00  0.00    +0.000 A 
ATOM     19  C   UNL     1      -4.264  53.747  51.912  0.00  0.00    +0.000 A 
ATOM     20  N   UNL     1      -7.670  55.168  52.498  0.00  0.00    +0.000 N 
ATOM     21  C   UNL     1      -5.858  54.536  54.053  0.00  0.00    +0.000 A 
ATOM     22  C   UNL     1      -3.776  53.616  53.200  0.00  0.00    +0.000 A 
ATOM     23  C   UNL     1      -4.576  54.007  54.270  0.00  0.00    +0.000 A 
ATOM     24  H   UNL     1      -8.204  54.778  49.310  0.00  0.00    +0.000 HD
ATOM     25  H   UNL     1      -8.204  55.510  53.252  0.00  0.00    +0.000 HD
BRANCH  21  26
ATOM     26  O   UNL     1      -6.542  54.856  55.193  0.00  0.00    +0.000 OA
ATOM     27  H   UNL     1      -6.274  55.591  55.709  0.00  0.00    +0.000 HD
ENDBRANCH  21  26
ENDBRANCH   1  17
BRANCH   3  28
ATOM     28  O   UNL     1     -10.629  54.602  52.871  0.00  0.00    +0.000 OA
ATOM     29  H   UNL     1      -9.808  54.319  53.226  0.00  0.00    +0.000 HD
ENDBRANCH   3  28
BRANCH   5  30
ATOM     30  C   UNL     1     -10.447  54.294  48.655  0.00  0.00    +0.000 C 
BRANCH  30  31
ATOM     31  C   UNL     1     -10.955  53.576  47.434  0.00  0.00    +0.000 A 
ATOM     32  C   UNL     1     -11.745  52.428  47.500  0.00  0.00    +0.000 A 
ATOM     33  C   UNL     1     -10.770  54.196  46.179  0.00  0.00    +0.000 A 
ATOM     34  C   UNL     1     -12.296  51.886  46.335  0.00  0.00    +0.000 A 
ATOM     35  C   UNL     1     -11.317  53.653  45.018  0.00  0.00    +0.000 A 
ATOM     36  C   UNL     1     -12.076  52.491  45.096  0.00  0.00    +0.000 A 
ENDBRANCH  30  31
ENDBRANCH   5  30
TORSDOF 5
ENDMDL
MODEL 4
REMARK VINA RESULT:      -8.5      2.043      4.597
REMARK  Name = 352866
REMARK  5 active torsions:
REMARK  status: ('A' for Active; 'I' for Inactive)
REMARK    1  A    between atoms: C_6  and  C_10
REMARK    2  A    between atoms: C_11  and  O_15
REMARK    3  A    between atoms: C_14  and  O_19
REMARK    4  A    between atoms: N_18  and  C_22
REMARK    5  A    between atoms: C_22  and  C_25
REMARK                            x       y       z     vdW  Elec       q    Type
REMARK                         _______ _______ _______ _____ _____    ______ ____
ROOT
ATOM      1  C   UNL     1      -9.809  53.166  48.509  0.00  0.00    +0.000 A 
ATOM      2  C   UNL     1     -11.191  53.174  47.948  0.00  0.00    +0.000 A 
ATOM      3  C   UNL     1      -8.818  53.055  47.604  0.00  0.00    +0.000 A 
ATOM      4  O   UNL     1     -12.107  52.588  48.512  0.00  0.00    +0.000 OA
ATOM      5  N   UNL     1     -11.303  53.998  46.804  0.00  0.00    +0.000 N 
ATOM      6  C   UNL     1      -9.201  52.909  46.196  0.00  0.00    +0.000 A 
ATOM      7  C   UNL     1     -10.416  53.500  45.778  0.00  0.00    +0.000 A 
ATOM      8  C   UNL     1      -8.454  52.166  45.288  0.00  0.00    +0.000 A 
ATOM      9  N   UNL     1     -10.899  53.353  44.528  0.00  0.00    +0.000 NA
ATOM     10  C   UNL     1      -8.971  51.960  44.017  0.00  0.00    +0.000 A 
ATOM     11  C   UNL     1     -10.177  52.569  43.688  0.00  0.00    +0.000 A 
ENDROOT
BRANCH   1  17
ATOM     12  S   UNL     1     -10.664  54.007  52.149  0.00  0.00    +0.000 S 
ATOM     13  O   UNL     1     -11.545  55.136  52.373  0.00  0.00    +0.000 OA
ATOM     14  O   UNL     1     -10.866  52.744  52.846  0.00  0.00    +0.000 OA
ATOM     15  N   UNL     1     -10.664  53.714  50.579  0.00  0.00    +0.000 N 
ATOM     16  C   UNL     1      -9.048  54.547  52.577  0.00  0.00    +0.000 A 
ATOM     17  C   UNL     1      -9.571  53.693  49.879  0.00  0.00    +0.000 C 
ATOM     18  C   UNL     1      -8.037  54.477  51.619  0.00  0.00    +0.000 A 
ATOM     19  C   UNL     1      -8.858  55.030  53.874  0.00  0.00    +0.000 A 
ATOM     20  N   UNL     1      -8.308  54.023  50.318  0.00  0.00    +0.000 N 
ATOM     21  C   UNL     1      -6.782  54.958  52.021  0.00  0.00    +0.000 A 
ATOM     22  C   UNL     1      -7.605  55.485  54.247  0.00  0.00    +0.000 A 
ATOM     23  C   UNL     1      -6.569  55.452  53.317  0.00  0.00    +0.000 A 
ATOM     24  H   UNL     1     -11.522  53.544  50.126  0.00  0.00    +0.000 HD
ATOM     25  H   UNL     1      -7.556  53.935  49.687  0.00  0.00    +0.000 HD
BRANCH  21  26
ATOM     26  O   UNL     1      -5.685  55.006  51.207  0.00  0.00    +0.000 OA
ATOM     27  H   UNL     1      -5.038  55.672  51.332  0.00  0.00    +0.000 HD
ENDBRANCH  21  26
ENDBRANCH   1  17
BRANCH   3  28
ATOM     28  O   UNL     1      -7.475  53.242  47.844  0.00  0.00    +0.000 OA
ATOM     29  H   UNL     1      -7.117  53.038  48.686  0.00  0.00    +0.000 HD
ENDBRANCH   3  28
BRANCH   5  30
ATOM     30  C   UNL     1     -11.050  55.409  47.187  0.00  0.00    +0.000 C 
BRANCH  30  31
ATOM     31  C   UNL     1     -12.108  56.218  47.886  0.00  0.00    +0.000 A 
ATOM     32  C   UNL     1     -11.980  56.662  49.202  0.00  0.00    +0.000 A 
ATOM     33  C   UNL     1     -13.192  56.693  47.117  0.00  0.00    +0.000 A 
ATOM     34  C   UNL     1     -12.937  57.521  49.751  0.00  0.00    +0.000 A 
ATOM     35  C   UNL     1     -14.147  57.547  47.665  0.00  0.00    +0.000 A 
ATOM     36  C   UNL     1     -14.023  57.956  48.988  0.00  0.00    +0.000 A 
ENDBRANCH  30  31
ENDBRANCH   5  30
TORSDOF 5
ENDMDL
MODEL 5
REMARK VINA RESULT:      -8.5      2.216      2.464
REMARK  Name = 352866
REMARK  5 active torsions:
REMARK  status: ('A' for Active; 'I' for Inactive)
REMARK    1  A    between atoms: C_6  and  C_10
REMARK    2  A    between atoms: C_11  and  O_15
REMARK    3  A    between atoms: C_14  and  O_19
REMARK    4  A    between atoms: N_18  and  C_22
REMARK    5  A    between atoms: C_22  and  C_25
REMARK                            x       y       z     vdW  Elec       q    Type
REMARK                         _______ _______ _______ _____ _____    ______ ____
ROOT
ATOM      1  C   UNL     1     -10.491  55.426  50.752  0.00  0.00    +0.000 A 
ATOM      2  C   UNL     1     -10.975  55.912  49.427  0.00  0.00    +0.000 A 
ATOM      3  C   UNL     1     -11.402  55.446  51.744  0.00  0.00    +0.000 A 
ATOM      4  O   UNL     1     -10.260  56.596  48.704  0.00  0.00    +0.000 OA
ATOM      5  N   UNL     1     -12.255  55.406  49.102  0.00  0.00    +0.000 N 
ATOM      6  C   UNL     1     -12.731  55.979  51.429  0.00  0.00    +0.000 A 
ATOM      7  C   UNL     1     -13.201  55.843  50.102  0.00  0.00    +0.000 A 
ATOM      8  C   UNL     1     -13.506  56.661  52.363  0.00  0.00    +0.000 A 
ATOM      9  N   UNL     1     -14.370  56.373  49.692  0.00  0.00    +0.000 NA
ATOM     10  C   UNL     1     -14.683  57.259  51.935  0.00  0.00    +0.000 A 
ATOM     11  C   UNL     1     -15.069  57.085  50.612  0.00  0.00    +0.000 A 
ENDROOT
BRANCH   1  17
ATOM     12  S   UNL     1      -8.450  52.243  51.376  0.00  0.00    +0.000 S 
ATOM     13  O   UNL     1      -8.219  51.870  52.758  0.00  0.00    +0.000 OA
ATOM     14  O   UNL     1      -8.878  51.257  50.392  0.00  0.00    +0.000 OA
ATOM     15  N   UNL     1      -9.512  53.435  51.381  0.00  0.00    +0.000 N 
ATOM     16  C   UNL     1      -6.933  52.900  50.779  0.00  0.00    +0.000 A 
ATOM     17  C   UNL     1      -9.269  54.581  50.821  0.00  0.00    +0.000 C 
ATOM     18  C   UNL     1      -6.914  54.197  50.268  0.00  0.00    +0.000 A 
ATOM     19  C   UNL     1      -5.807  52.077  50.853  0.00  0.00    +0.000 A 
ATOM     20  N   UNL     1      -8.075  54.987  50.266  0.00  0.00    +0.000 N 
ATOM     21  C   UNL     1      -5.663  54.666  49.844  0.00  0.00    +0.000 A 
ATOM     22  C   UNL     1      -4.588  52.562  50.414  0.00  0.00    +0.000 A 
ATOM     23  C   UNL     1      -4.517  53.859  49.913  0.00  0.00    +0.000 A 
ATOM     24  H   UNL     1     -10.381  53.297  51.823  0.00  0.00    +0.000 HD
ATOM     25  H   UNL     1      -8.035  55.877  49.846  0.00  0.00    +0.000 HD
BRANCH  21  26
ATOM     26  O   UNL     1      -5.444  55.924  49.354  0.00  0.00    +0.000 OA
ATOM     27  H   UNL     1      -5.619  56.112  48.453  0.00  0.00    +0.000 HD
ENDBRANCH  21  26
ENDBRANCH   1  17
BRANCH   3  28
ATOM     28  O   UNL     1     -11.270  54.854  52.979  0.00  0.00    +0.000 OA
ATOM     29  H   UNL     1     -11.107  53.932  53.042  0.00  0.00    +0.000 HD
ENDBRANCH   3  28
BRANCH   5  30
ATOM     30  C   UNL     1     -12.177  53.932  48.949  0.00  0.00    +0.000 C 
BRANCH  30  31
ATOM     31  C   UNL     1     -12.010  53.307  47.591  0.00  0.00    +0.000 A 
ATOM     32  C   UNL     1     -12.357  51.984  47.315  0.00  0.00    +0.000 A 
ATOM     33  C   UNL     1     -11.653  54.149  46.517  0.00  0.00    +0.000 A 
ATOM     34  C   UNL     1     -12.303  51.502  46.003  0.00  0.00    +0.000 A 
ATOM     35  C   UNL     1     -11.596  53.667  45.210  0.00  0.00    +0.000 A 
ATOM     36  C   UNL     1     -11.915  52.338  44.955  0.00  0.00    +0.000 A 
ENDBRANCH  30  31
ENDBRANCH   5  30
TORSDOF 5
ENDMDL
MODEL 6
REMARK VINA RESULT:      -8.3      1.827      4.412
REMARK  Name = 352866
REMARK  5 active torsions:
REMARK  status: ('A' for Active; 'I' for Inactive)
REMARK    1  A    between atoms: C_6  and  C_10
REMARK    2  A    between atoms: C_11  and  O_15
REMARK    3  A    between atoms: C_14  and  O_19
REMARK    4  A    between atoms: N_18  and  C_22
REMARK    5  A    between atoms: C_22  and  C_25
REMARK                            x       y       z     vdW  Elec       q    Type
REMARK                         _______ _______ _______ _____ _____    ______ ____
ROOT
ATOM      1  C   UNL     1      -9.369  53.551  49.525  0.00  0.00    +0.000 A 
ATOM      2  C   UNL     1     -10.856  53.435  49.489  0.00  0.00    +0.000 A 
ATOM      3  C   UNL     1      -8.779  53.798  48.339  0.00  0.00    +0.000 A 
ATOM      4  O   UNL     1     -11.442  52.598  50.164  0.00  0.00    +0.000 OA
ATOM      5  N   UNL     1     -11.455  54.442  48.697  0.00  0.00    +0.000 N 
ATOM      6  C   UNL     1      -9.643  53.877  47.158  0.00  0.00    +0.000 A 
ATOM      7  C   UNL     1     -10.973  54.323  47.341  0.00  0.00    +0.000 A 
ATOM      8  C   UNL     1      -9.224  53.473  45.894  0.00  0.00    +0.000 A 
ATOM      9  N   UNL     1     -11.870  54.351  46.335  0.00  0.00    +0.000 NA
ATOM     10  C   UNL     1     -10.157  53.444  44.866  0.00  0.00    +0.000 A 
ATOM     11  C   UNL     1     -11.446  53.891  45.131  0.00  0.00    +0.000 A 
ENDROOT
BRANCH   1  17
ATOM     12  S   UNL     1      -9.053  53.889  53.329  0.00  0.00    +0.000 S 
ATOM     13  O   UNL     1      -9.656  55.059  53.938  0.00  0.00    +0.000 OA
ATOM     14  O   UNL     1      -9.246  52.562  53.897  0.00  0.00    +0.000 OA
ATOM     15  N   UNL     1      -9.529  53.853  51.805  0.00  0.00    +0.000 N 
ATOM     16  C   UNL     1      -7.318  54.170  53.326  0.00  0.00    +0.000 A 
ATOM     17  C   UNL     1      -8.686  53.822  50.817  0.00  0.00    +0.000 C 
ATOM     18  C   UNL     1      -6.632  54.141  52.112  0.00  0.00    +0.000 A 
ATOM     19  C   UNL     1      -6.708  54.415  54.559  0.00  0.00    +0.000 A 
ATOM     20  N   UNL     1      -7.316  53.935  50.903  0.00  0.00    +0.000 N 
ATOM     21  C   UNL     1      -5.257  54.408  52.183  0.00  0.00    +0.000 A 
ATOM     22  C   UNL     1      -5.347  54.662  54.599  0.00  0.00    +0.000 A 
ATOM     23  C   UNL     1      -4.624  54.662  53.410  0.00  0.00    +0.000 A 
ATOM     24  H   UNL     1     -10.493  53.854  51.607  0.00  0.00    +0.000 HD
ATOM     25  H   UNL     1      -6.789  53.865  50.074  0.00  0.00    +0.000 HD
BRANCH  21  26
ATOM     26  O   UNL     1      -4.432  54.464  51.095  0.00  0.00    +0.000 OA
ATOM     27  H   UNL     1      -3.752  53.828  50.990  0.00  0.00    +0.000 HD
ENDBRANCH  21  26
ENDBRANCH   1  17
BRANCH   3  28
ATOM     28  O   UNL     1      -7.465  54.160  48.147  0.00  0.00    +0.000 OA
ATOM     29  H   UNL     1      -6.987  54.574  48.839  0.00  0.00    +0.000 HD
ENDBRANCH   3  28
BRANCH   5  30
ATOM     30  C   UNL     1     -11.202  55.768  49.313  0.00  0.00    +0.000 C 
BRANCH  30  31
ATOM     31  C   UNL     1     -12.300  56.507  50.028  0.00  0.00    +0.000 A 
ATOM     32  C   UNL     1     -13.105  57.461  49.406  0.00  0.00    +0.000 A 
ATOM     33  C   UNL     1     -12.638  56.085  51.332  0.00  0.00    +0.000 A 
ATOM     34  C   UNL     1     -14.193  58.014  50.088  0.00  0.00    +0.000 A 
ATOM     35  C   UNL     1     -13.721  56.639  52.012  0.00  0.00    +0.000 A 
ATOM     36  C   UNL     1     -14.496  57.612  51.390  0.00  0.00    +0.000 A 
ENDBRANCH  30  31
ENDBRANCH   5  30
TORSDOF 5
ENDMDL
MODEL 7
REMARK VINA RESULT:      -8.3      2.736      6.438
REMARK  Name = 352866
REMARK  5 active torsions:
REMARK  status: ('A' for Active; 'I' for Inactive)
REMARK    1  A    between atoms: C_6  and  C_10
REMARK    2  A    between atoms: C_11  and  O_15
REMARK    3  A    between atoms: C_14  and  O_19
REMARK    4  A    between atoms: N_18  and  C_22
REMARK    5  A    between atoms: C_22  and  C_25
REMARK                            x       y       z     vdW  Elec       q    Type
REMARK                         _______ _______ _______ _____ _____    ______ ____
ROOT
ATOM      1  C   UNL     1     -12.560  54.313  49.448  0.00  0.00    +0.000 A 
ATOM      2  C   UNL     1     -12.331  53.994  50.887  0.00  0.00    +0.000 A 
ATOM      3  C   UNL     1     -13.166  55.491  49.205  0.00  0.00    +0.000 A 
ATOM      4  O   UNL     1     -12.480  52.857  51.315  0.00  0.00    +0.000 OA
ATOM      5  N   UNL     1     -11.839  55.105  51.612  0.00  0.00    +0.000 N 
ATOM      6  C   UNL     1     -13.570  56.294  50.363  0.00  0.00    +0.000 A 
ATOM      7  C   UNL     1     -12.808  56.174  51.548  0.00  0.00    +0.000 A 
ATOM      8  C   UNL     1     -14.699  57.108  50.354  0.00  0.00    +0.000 A 
ATOM      9  N   UNL     1     -13.146  56.804  52.692  0.00  0.00    +0.000 NA
ATOM     10  C   UNL     1     -15.087  57.714  51.542  0.00  0.00    +0.000 A 
ATOM     11  C   UNL     1     -14.287  57.538  52.665  0.00  0.00    +0.000 A 
ENDROOT
BRANCH   1  17
ATOM     12  S   UNL     1     -11.650  51.437  47.083  0.00  0.00    +0.000 S 
ATOM     13  O   UNL     1     -11.041  50.264  47.678  0.00  0.00    +0.000 OA
ATOM     14  O   UNL     1     -12.734  51.315  46.118  0.00  0.00    +0.000 OA
ATOM     15  N   UNL     1     -12.153  52.366  48.281  0.00  0.00    +0.000 N 
ATOM     16  C   UNL     1     -10.360  52.302  46.261  0.00  0.00    +0.000 A 
ATOM     17  C   UNL     1     -11.773  53.602  48.405  0.00  0.00    +0.000 C 
ATOM     18  C   UNL     1     -10.102  53.626  46.616  0.00  0.00    +0.000 A 
ATOM     19  C   UNL     1      -9.646  51.605  45.283  0.00  0.00    +0.000 A 
ATOM     20  N   UNL     1     -10.828  54.251  47.641  0.00  0.00    +0.000 N 
ATOM     21  C   UNL     1      -9.036  54.240  45.942  0.00  0.00    +0.000 A 
ATOM     22  C   UNL     1      -8.608  52.242  44.625  0.00  0.00    +0.000 A 
ATOM     23  C   UNL     1      -8.301  53.558  44.959  0.00  0.00    +0.000 A 
ATOM     24  H   UNL     1     -12.772  51.990  48.948  0.00  0.00    +0.000 HD
ATOM     25  H   UNL     1     -10.655  55.204  47.824  0.00  0.00    +0.000 HD
BRANCH  21  26
ATOM     26  O   UNL     1      -8.612  55.516  46.186  0.00  0.00    +0.000 OA
ATOM     27  H   UNL     1      -8.335  56.062  45.476  0.00  0.00    +0.000 HD
ENDBRANCH  21  26
ENDBRANCH   1  17
BRANCH   3  28
ATOM     28  O   UNL     1     -13.289  56.103  47.978  0.00  0.00    +0.000 OA
ATOM     29  H   UNL     1     -14.089  56.533  47.747  0.00  0.00    +0.000 HD
ENDBRANCH   3  28
BRANCH   5  30
ATOM     30  C   UNL     1     -10.498  55.475  51.097  0.00  0.00    +0.000 C 
BRANCH  30  31
ATOM     31  C   UNL     1      -9.288  55.415  51.988  0.00  0.00    +0.000 A 
ATOM     32  C   UNL     1      -8.030  55.873  51.594  0.00  0.00    +0.000 A 
ATOM     33  C   UNL     1      -9.479  55.045  53.337  0.00  0.00    +0.000 A 
ATOM     34  C   UNL     1      -6.977  55.913  52.514  0.00  0.00    +0.000 A 
ATOM     35  C   UNL     1      -8.428  55.082  54.252  0.00  0.00    +0.000 A 
ATOM     36  C   UNL     1      -7.172  55.510  53.836  0.00  0.00    +0.000 A 
ENDBRANCH  30  31
ENDBRANCH   5  30
TORSDOF 5
ENDMDL
MODEL 8
REMARK VINA RESULT:      -8.2      2.182      2.726
REMARK  Name = 352866
REMARK  5 active torsions:
REMARK  status: ('A' for Active; 'I' for Inactive)
REMARK    1  A    between atoms: C_6  and  C_10
REMARK    2  A    between atoms: C_11  and  O_15
REMARK    3  A    between atoms: C_14  and  O_19
REMARK    4  A    between atoms: N_18  and  C_22
REMARK    5  A    between atoms: C_22  and  C_25
REMARK                            x       y       z     vdW  Elec       q    Type
REMARK                         _______ _______ _______ _____ _____    ______ ____
ROOT
ATOM      1  C   UNL     1      -9.974  55.629  51.056  0.00  0.00    +0.000 A 
ATOM      2  C   UNL     1      -9.985  56.459  49.817  0.00  0.00    +0.000 A 
ATOM      3  C   UNL     1     -11.181  55.212  51.486  0.00  0.00    +0.000 A 
ATOM      4  O   UNL     1      -9.240  57.423  49.694  0.00  0.00    +0.000 OA
ATOM      5  N   UNL     1     -10.848  55.935  48.826  0.00  0.00    +0.000 N 
ATOM      6  C   UNL     1     -12.356  55.653  50.728  0.00  0.00    +0.000 A 
ATOM      7  C   UNL     1     -12.195  55.903  49.345  0.00  0.00    +0.000 A 
ATOM      8  C   UNL     1     -13.589  55.893  51.328  0.00  0.00    +0.000 A 
ATOM      9  N   UNL     1     -13.190  56.391  48.578  0.00  0.00    +0.000 NA
ATOM     10  C   UNL     1     -14.601  56.450  50.559  0.00  0.00    +0.000 A 
ATOM     11  C   UNL     1     -14.359  56.673  49.209  0.00  0.00    +0.000 A 
ENDROOT
BRANCH   1  17
ATOM     12  S   UNL     1      -7.568  53.871  53.466  0.00  0.00    +0.000 S 
ATOM     13  O   UNL     1      -6.920  54.695  54.468  0.00  0.00    +0.000 OA
ATOM     14  O   UNL     1      -8.171  52.592  53.820  0.00  0.00    +0.000 OA
ATOM     15  N   UNL     1      -8.685  54.771  52.765  0.00  0.00    +0.000 N 
ATOM     16  C   UNL     1      -6.349  53.515  52.252  0.00  0.00    +0.000 A 
ATOM     17  C   UNL     1      -8.714  54.963  51.481  0.00  0.00    +0.000 C 
ATOM     18  C   UNL     1      -6.590  53.876  50.927  0.00  0.00    +0.000 A 
ATOM     19  C   UNL     1      -5.180  52.883  52.685  0.00  0.00    +0.000 A 
ATOM     20  N   UNL     1      -7.768  54.551  50.568  0.00  0.00    +0.000 N 
ATOM     21  C   UNL     1      -5.558  53.593  50.021  0.00  0.00    +0.000 A 
ATOM     22  C   UNL     1      -4.185  52.604  51.766  0.00  0.00    +0.000 A 
ATOM     23  C   UNL     1      -4.374  52.964  50.434  0.00  0.00    +0.000 A 
ATOM     24  H   UNL     1      -9.376  55.194  53.325  0.00  0.00    +0.000 HD
ATOM     25  H   UNL     1      -7.928  54.739  49.614  0.00  0.00    +0.000 HD
BRANCH  21  26
ATOM     26  O   UNL     1      -5.600  53.911  48.692  0.00  0.00    +0.000 OA
ATOM     27  H   UNL     1      -4.806  54.092  48.229  0.00  0.00    +0.000 HD
ENDBRANCH  21  26
ENDBRANCH   1  17
BRANCH   3  28
ATOM     28  O   UNL     1     -11.414  54.270  52.460  0.00  0.00    +0.000 OA
ATOM     29  H   UNL     1     -11.947  54.484  53.202  0.00  0.00    +0.000 HD
ENDBRANCH   3  28
BRANCH   5  30
ATOM     30  C   UNL     1     -10.341  54.613  48.381  0.00  0.00    +0.000 C 
BRANCH  30  31
ATOM     31  C   UNL     1      -9.677  54.455  47.041  0.00  0.00    +0.000 A 
ATOM     32  C   UNL     1      -8.403  54.948  46.761  0.00  0.00    +0.000 A 
ATOM     33  C   UNL     1     -10.301  53.619  46.090  0.00  0.00    +0.000 A 
ATOM     34  C   UNL     1      -7.787  54.653  45.540  0.00  0.00    +0.000 A 
ATOM     35  C   UNL     1      -9.688  53.327  44.872  0.00  0.00    +0.000 A 
ATOM     36  C   UNL     1      -8.432  53.852  44.594  0.00  0.00    +0.000 A 
ENDBRANCH  30  31
ENDBRANCH   5  30
TORSDOF 5
ENDMDL
MODEL 9
REMARK VINA RESULT:      -8.1      3.042      7.121
REMARK  Name = 352866
REMARK  5 active torsions:
REMARK  status: ('A' for Active; 'I' for Inactive)
REMARK    1  A    between atoms: C_6  and  C_10
REMARK    2  A    between atoms: C_11  and  O_15
REMARK    3  A    between atoms: C_14  and  O_19
REMARK    4  A    between atoms: N_18  and  C_22
REMARK    5  A    between atoms: C_22  and  C_25
REMARK                            x       y       z     vdW  Elec       q    Type
REMARK                         _______ _______ _______ _____ _____    ______ ____
ROOT
ATOM      1  C   UNL     1     -12.024  54.230  47.835  0.00  0.00    +0.000 A 
ATOM      2  C   UNL     1     -12.125  53.481  49.121  0.00  0.00    +0.000 A 
ATOM      3  C   UNL     1     -12.545  55.472  47.846  0.00  0.00    +0.000 A 
ATOM      4  O   UNL     1     -12.380  52.283  49.137  0.00  0.00    +0.000 OA
ATOM      5  N   UNL     1     -11.792  54.282  50.238  0.00  0.00    +0.000 N 
ATOM      6  C   UNL     1     -13.186  55.925  49.084  0.00  0.00    +0.000 A 
ATOM      7  C   UNL     1     -12.708  55.397  50.306  0.00  0.00    +0.000 A 
ATOM      8  C   UNL     1     -14.274  56.793  49.093  0.00  0.00    +0.000 A 
ATOM      9  N   UNL     1     -13.283  55.683  51.491  0.00  0.00    +0.000 NA
ATOM     10  C   UNL     1     -14.908  57.047  50.301  0.00  0.00    +0.000 A 
ATOM     11  C   UNL     1     -14.380  56.482  51.456  0.00  0.00    +0.000 A 
ENDROOT
BRANCH   1  17
ATOM     12  S   UNL     1      -8.590  53.988  46.150  0.00  0.00    +0.000 S 
ATOM     13  O   UNL     1      -8.127  55.157  45.429  0.00  0.00    +0.000 OA
ATOM     14  O   UNL     1      -7.712  53.270  47.065  0.00  0.00    +0.000 OA
ATOM     15  N   UNL     1      -9.902  54.418  46.954  0.00  0.00    +0.000 N 
ATOM     16  C   UNL     1      -9.086  52.820  44.934  0.00  0.00    +0.000 A 
ATOM     17  C   UNL     1     -11.035  53.800  46.811  0.00  0.00    +0.000 C 
ATOM     18  C   UNL     1     -10.394  52.337  44.955  0.00  0.00    +0.000 A 
ATOM     19  C   UNL     1      -8.129  52.433  43.992  0.00  0.00    +0.000 A 
ATOM     20  N   UNL     1     -11.318  52.804  45.903  0.00  0.00    +0.000 N 
ATOM     21  C   UNL     1     -10.727  51.435  43.934  0.00  0.00    +0.000 A 
ATOM     22  C   UNL     1      -8.482  51.531  43.004  0.00  0.00    +0.000 A 
ATOM     23  C   UNL     1      -9.784  51.036  42.974  0.00  0.00    +0.000 A 
ATOM     24  H   UNL     1      -9.849  55.177  47.579  0.00  0.00    +0.000 HD
ATOM     25  H   UNL     1     -12.216  52.398  45.921  0.00  0.00    +0.000 HD
BRANCH  21  26
ATOM     26  O   UNL     1     -11.970  50.891  43.770  0.00  0.00    +0.000 OA
ATOM     27  H   UNL     1     -12.723  51.333  44.110  0.00  0.00    +0.000 HD
ENDBRANCH  21  26
ENDBRANCH   1  17
BRANCH   3  28
ATOM     28  O   UNL     1     -12.384  56.429  46.869  0.00  0.00    +0.000 OA
ATOM     29  H   UNL     1     -13.097  56.995  46.646  0.00  0.00    +0.000 HD
ENDBRANCH   3  28
BRANCH   5  30
ATOM     30  C   UNL     1     -10.365  54.680  50.152  0.00  0.00    +0.000 C 
BRANCH  30  31
ATOM     31  C   UNL     1      -9.582  55.013  51.393  0.00  0.00    +0.000 A 
ATOM     32  C   UNL     1      -9.962  54.591  52.667  0.00  0.00    +0.000 A 
ATOM     33  C   UNL     1      -8.321  55.625  51.232  0.00  0.00    +0.000 A 
ATOM     34  C   UNL     1      -9.122  54.819  53.762  0.00  0.00    +0.000 A 
ATOM     35  C   UNL     1      -7.486  55.855  52.325  0.00  0.00    +0.000 A 
ATOM     36  C   UNL     1      -7.892  55.457  53.594  0.00  0.00    +0.000 A 
ENDBRANCH  30  31
ENDBRANCH   5  30
TORSDOF 5
ENDMDL
