MODEL 1
REMARK VINA RESULT:      -9.0      0.000      0.000
REMARK  Name = 353028
REMARK  6 active torsions:
REMARK  status: ('A' for Active; 'I' for Inactive)
REMARK    1  A    between atoms: C_6  and  C_10
REMARK    2  A    between atoms: C_14  and  O_18
REMARK    3  A    between atoms: C_15  and  O_20
REMARK    4  A    between atoms: N_17  and  C_22
REMARK    5  A    between atoms: O_20  and  C_24
REMARK    6  A    between atoms: C_22  and  C_26
REMARK                            x       y       z     vdW  Elec       q    Type
REMARK                         _______ _______ _______ _____ _____    ______ ____
ROOT
ATOM      1  C   UNL     1     -10.324  55.317  50.511  0.00  0.00    +0.000 A 
ATOM      2  C   UNL     1      -9.979  55.232  49.059  0.00  0.00    +0.000 A 
ATOM      3  C   UNL     1     -11.532  55.778  50.879  0.00  0.00    +0.000 A 
ATOM      4  O   UNL     1      -8.849  54.837  48.752  0.00  0.00    +0.000 OA
ATOM      5  N   UNL     1     -10.937  55.578  48.128  0.00  0.00    +0.000 N 
ATOM      6  C   UNL     1     -12.482  56.250  49.870  0.00  0.00    +0.000 A 
ATOM      7  C   UNL     1     -12.188  56.125  48.509  0.00  0.00    +0.000 A 
ATOM      8  C   UNL     1     -13.684  56.870  50.231  0.00  0.00    +0.000 A 
ATOM      9  N   UNL     1     -13.032  56.559  47.542  0.00  0.00    +0.000 NA
ATOM     10  C   UNL     1     -14.539  57.350  49.249  0.00  0.00    +0.000 A 
ATOM     11  C   UNL     1     -14.175  57.167  47.930  0.00  0.00    +0.000 A 
ENDROOT
BRANCH   1  17
ATOM     12  S   UNL     1      -7.002  55.100  52.594  0.00  0.00    +0.000 S 
ATOM     13  O   UNL     1      -6.920  56.121  53.620  0.00  0.00    +0.000 OA
ATOM     14  O   UNL     1      -5.838  54.763  51.798  0.00  0.00    +0.000 OA
ATOM     15  N   UNL     1      -8.192  55.513  51.582  0.00  0.00    +0.000 N 
ATOM     16  C   UNL     1      -7.468  53.622  53.413  0.00  0.00    +0.000 A 
ATOM     17  C   UNL     1      -9.317  54.855  51.547  0.00  0.00    +0.000 C 
ATOM     18  C   UNL     1      -8.742  53.129  53.190  0.00  0.00    +0.000 A 
ATOM     19  C   UNL     1      -6.557  52.975  54.250  0.00  0.00    +0.000 A 
ATOM     20  N   UNL     1      -9.641  53.787  52.353  0.00  0.00    +0.000 N 
ATOM     21  C   UNL     1      -9.132  51.983  53.888  0.00  0.00    +0.000 A 
ATOM     22  C   UNL     1      -6.950  51.814  54.916  0.00  0.00    +0.000 A 
ATOM     23  C   UNL     1      -8.244  51.319  54.746  0.00  0.00    +0.000 A 
ATOM     24  H   UNL     1      -8.065  56.281  50.979  0.00  0.00    +0.000 HD
ATOM     25  H   UNL     1     -10.572  53.467  52.340  0.00  0.00    +0.000 HD
BRANCH  23  26
ATOM     26  O   UNL     1      -8.763  50.208  55.349  0.00  0.00    +0.000 OA
ATOM     27  C   UNL     1      -8.199  49.839  56.601  0.00  0.00    +0.000 C 
ENDBRANCH  23  26
ENDBRANCH   1  17
BRANCH   3  28
ATOM     28  O   UNL     1     -11.982  55.863  52.185  0.00  0.00    +0.000 OA
ATOM     29  H   UNL     1     -11.539  55.394  52.865  0.00  0.00    +0.000 HD
ENDBRANCH   3  28
BRANCH   5  30
ATOM     30  C   UNL     1     -10.654  55.377  46.706  0.00  0.00    +0.000 C 
BRANCH  30  31
ATOM     31  C   UNL     1     -11.048  53.986  46.247  0.00  0.00    +0.000 A 
ATOM     32  C   UNL     1     -10.670  53.519  44.981  0.00  0.00    +0.000 A 
ATOM     33  C   UNL     1     -11.855  53.169  47.053  0.00  0.00    +0.000 A 
ATOM     34  C   UNL     1     -11.121  52.281  44.520  0.00  0.00    +0.000 A 
ATOM     35  C   UNL     1     -12.316  51.937  46.587  0.00  0.00    +0.000 A 
ATOM     36  C   UNL     1     -11.957  51.498  45.315  0.00  0.00    +0.000 A 
ENDBRANCH  30  31
ENDBRANCH   5  30
TORSDOF 5
ENDMDL
MODEL 2
REMARK VINA RESULT:      -8.8      1.498      2.758
REMARK  Name = 353028
REMARK  6 active torsions:
REMARK  status: ('A' for Active; 'I' for Inactive)
REMARK    1  A    between atoms: C_6  and  C_10
REMARK    2  A    between atoms: C_14  and  O_18
REMARK    3  A    between atoms: C_15  and  O_20
REMARK    4  A    between atoms: N_17  and  C_22
REMARK    5  A    between atoms: O_20  and  C_24
REMARK    6  A    between atoms: C_22  and  C_26
REMARK                            x       y       z     vdW  Elec       q    Type
REMARK                         _______ _______ _______ _____ _____    ______ ____
ROOT
ATOM      1  C   UNL     1     -10.531  54.609  50.394  0.00  0.00    +0.000 A 
ATOM      2  C   UNL     1      -9.996  54.858  49.020  0.00  0.00    +0.000 A 
ATOM      3  C   UNL     1     -11.788  54.982  50.693  0.00  0.00    +0.000 A 
ATOM      4  O   UNL     1      -8.827  54.535  48.785  0.00  0.00    +0.000 OA
ATOM      5  N   UNL     1     -10.831  55.415  48.073  0.00  0.00    +0.000 N 
ATOM      6  C   UNL     1     -12.607  55.680  49.700  0.00  0.00    +0.000 A 
ATOM      7  C   UNL     1     -12.134  55.868  48.399  0.00  0.00    +0.000 A 
ATOM      8  C   UNL     1     -13.862  56.208  50.029  0.00  0.00    +0.000 A 
ATOM      9  N   UNL     1     -12.854  56.518  47.453  0.00  0.00    +0.000 NA
ATOM     10  C   UNL     1     -14.591  56.907  49.077  0.00  0.00    +0.000 A 
ATOM     11  C   UNL     1     -14.052  57.029  47.812  0.00  0.00    +0.000 A 
ENDROOT
BRANCH   1  17
ATOM     12  S   UNL     1      -9.356  52.002  53.086  0.00  0.00    +0.000 S 
ATOM     13  O   UNL     1      -8.866  50.773  52.494  0.00  0.00    +0.000 OA
ATOM     14  O   UNL     1     -10.198  51.965  54.265  0.00  0.00    +0.000 OA
ATOM     15  N   UNL     1     -10.146  52.820  51.938  0.00  0.00    +0.000 N 
ATOM     16  C   UNL     1      -7.936  52.925  53.538  0.00  0.00    +0.000 A 
ATOM     17  C   UNL     1      -9.659  53.915  51.422  0.00  0.00    +0.000 C 
ATOM     18  C   UNL     1      -7.647  54.070  52.815  0.00  0.00    +0.000 A 
ATOM     19  C   UNL     1      -7.145  52.504  54.608  0.00  0.00    +0.000 A 
ATOM     20  N   UNL     1      -8.445  54.477  51.747  0.00  0.00    +0.000 N 
ATOM     21  C   UNL     1      -6.484  54.772  53.138  0.00  0.00    +0.000 A 
ATOM     22  C   UNL     1      -6.005  53.233  54.940  0.00  0.00    +0.000 A 
ATOM     23  C   UNL     1      -5.663  54.365  54.199  0.00  0.00    +0.000 A 
ATOM     24  H   UNL     1     -11.016  52.485  51.620  0.00  0.00    +0.000 HD
ATOM     25  H   UNL     1      -8.117  55.217  51.187  0.00  0.00    +0.000 HD
BRANCH  23  26
ATOM     26  O   UNL     1      -4.567  55.157  54.403  0.00  0.00    +0.000 OA
ATOM     27  C   UNL     1      -3.370  54.774  53.740  0.00  0.00    +0.000 C 
ENDBRANCH  23  26
ENDBRANCH   1  17
BRANCH   3  28
ATOM     28  O   UNL     1     -12.408  54.768  51.911  0.00  0.00    +0.000 OA
ATOM     29  H   UNL     1     -13.246  55.151  52.084  0.00  0.00    +0.000 HD
ENDBRANCH   3  28
BRANCH   5  30
ATOM     30  C   UNL     1     -10.359  55.544  46.694  0.00  0.00    +0.000 C 
BRANCH  30  31
ATOM     31  C   UNL     1     -10.475  54.234  45.937  0.00  0.00    +0.000 A 
ATOM     32  C   UNL     1      -9.339  53.628  45.383  0.00  0.00    +0.000 A 
ATOM     33  C   UNL     1     -11.729  53.643  45.719  0.00  0.00    +0.000 A 
ATOM     34  C   UNL     1      -9.462  52.479  44.598  0.00  0.00    +0.000 A 
ATOM     35  C   UNL     1     -11.852  52.502  44.924  0.00  0.00    +0.000 A 
ATOM     36  C   UNL     1     -10.719  51.927  44.356  0.00  0.00    +0.000 A 
ENDBRANCH  30  31
ENDBRANCH   5  30
TORSDOF 5
ENDMDL
MODEL 3
REMARK VINA RESULT:      -8.6      1.662      4.333
REMARK  Name = 353028
REMARK  6 active torsions:
REMARK  status: ('A' for Active; 'I' for Inactive)
REMARK    1  A    between atoms: C_6  and  C_10
REMARK    2  A    between atoms: C_14  and  O_18
REMARK    3  A    between atoms: C_15  and  O_20
REMARK    4  A    between atoms: N_17  and  C_22
REMARK    5  A    between atoms: O_20  and  C_24
REMARK    6  A    between atoms: C_22  and  C_26
REMARK                            x       y       z     vdW  Elec       q    Type
REMARK                         _______ _______ _______ _____ _____    ______ ____
ROOT
ATOM      1  C   UNL     1      -9.805  54.757  50.733  0.00  0.00    +0.000 A 
ATOM      2  C   UNL     1     -11.253  54.815  51.103  0.00  0.00    +0.000 A 
ATOM      3  C   UNL     1      -9.435  55.003  49.464  0.00  0.00    +0.000 A 
ATOM      4  O   UNL     1     -11.565  54.551  52.269  0.00  0.00    +0.000 OA
ATOM      5  N   UNL     1     -12.170  55.178  50.138  0.00  0.00    +0.000 N 
ATOM      6  C   UNL     1     -10.446  55.267  48.438  0.00  0.00    +0.000 A 
ATOM      7  C   UNL     1     -11.795  55.375  48.786  0.00  0.00    +0.000 A 
ATOM      8  C   UNL     1     -10.102  55.380  47.085  0.00  0.00    +0.000 A 
ATOM      9  N   UNL     1     -12.764  55.606  47.868  0.00  0.00    +0.000 NA
ATOM     10  C   UNL     1     -11.091  55.582  46.133  0.00  0.00    +0.000 A 
ATOM     11  C   UNL     1     -12.396  55.693  46.570  0.00  0.00    +0.000 A 
ENDROOT
BRANCH   1  17
ATOM     12  S   UNL     1      -6.490  54.951  52.830  0.00  0.00    +0.000 S 
ATOM     13  O   UNL     1      -6.495  56.045  53.780  0.00  0.00    +0.000 OA
ATOM     14  O   UNL     1      -5.298  54.650  52.062  0.00  0.00    +0.000 OA
ATOM     15  N   UNL     1      -7.702  55.196  51.790  0.00  0.00    +0.000 N 
ATOM     16  C   UNL     1      -6.845  53.503  53.752  0.00  0.00    +0.000 A 
ATOM     17  C   UNL     1      -8.772  54.451  51.800  0.00  0.00    +0.000 C 
ATOM     18  C   UNL     1      -8.075  52.897  53.563  0.00  0.00    +0.000 A 
ATOM     19  C   UNL     1      -5.892  52.990  54.635  0.00  0.00    +0.000 A 
ATOM     20  N   UNL     1      -9.017  53.421  52.681  0.00  0.00    +0.000 N 
ATOM     21  C   UNL     1      -8.379  51.777  54.341  0.00  0.00    +0.000 A 
ATOM     22  C   UNL     1      -6.198  51.853  55.381  0.00  0.00    +0.000 A 
ATOM     23  C   UNL     1      -7.448  51.247  55.245  0.00  0.00    +0.000 A 
ATOM     24  H   UNL     1      -7.631  55.927  51.133  0.00  0.00    +0.000 HD
ATOM     25  H   UNL     1      -9.920  53.029  52.689  0.00  0.00    +0.000 HD
BRANCH  23  26
ATOM     26  O   UNL     1      -7.883  50.145  55.927  0.00  0.00    +0.000 OA
ATOM     27  C   UNL     1      -9.266  49.832  55.819  0.00  0.00    +0.000 C 
ENDBRANCH  23  26
ENDBRANCH   1  17
BRANCH   3  28
ATOM     28  O   UNL     1      -8.128  55.022  49.010  0.00  0.00    +0.000 OA
ATOM     29  H   UNL     1      -7.615  55.802  49.091  0.00  0.00    +0.000 HD
ENDBRANCH   3  28
BRANCH   5  30
ATOM     30  C   UNL     1     -13.571  55.361  50.521  0.00  0.00    +0.000 C 
BRANCH  30  31
ATOM     31  C   UNL     1     -13.821  56.747  51.087  0.00  0.00    +0.000 A 
ATOM     32  C   UNL     1     -14.091  56.921  52.451  0.00  0.00    +0.000 A 
ATOM     33  C   UNL     1     -13.853  57.868  50.244  0.00  0.00    +0.000 A 
ATOM     34  C   UNL     1     -14.423  58.183  52.950  0.00  0.00    +0.000 A 
ATOM     35  C   UNL     1     -14.198  59.126  50.741  0.00  0.00    +0.000 A 
ATOM     36  C   UNL     1     -14.492  59.280  52.093  0.00  0.00    +0.000 A 
ENDBRANCH  30  31
ENDBRANCH   5  30
TORSDOF 5
ENDMDL
MODEL 4
REMARK VINA RESULT:      -8.5      2.252      3.012
REMARK  Name = 353028
REMARK  6 active torsions:
REMARK  status: ('A' for Active; 'I' for Inactive)
REMARK    1  A    between atoms: C_6  and  C_10
REMARK    2  A    between atoms: C_14  and  O_18
REMARK    3  A    between atoms: C_15  and  O_20
REMARK    4  A    between atoms: N_17  and  C_22
REMARK    5  A    between atoms: O_20  and  C_24
REMARK    6  A    between atoms: C_22  and  C_26
REMARK                            x       y       z     vdW  Elec       q    Type
REMARK                         _______ _______ _______ _____ _____    ______ ____
ROOT
ATOM      1  C   UNL     1     -10.195  55.342  50.779  0.00  0.00    +0.000 A 
ATOM      2  C   UNL     1     -10.320  55.511  49.298  0.00  0.00    +0.000 A 
ATOM      3  C   UNL     1     -11.285  55.471  51.555  0.00  0.00    +0.000 A 
ATOM      4  O   UNL     1      -9.295  55.421  48.615  0.00  0.00    +0.000 OA
ATOM      5  N   UNL     1     -11.571  55.740  48.760  0.00  0.00    +0.000 N 
ATOM      6  C   UNL     1     -12.575  55.832  50.963  0.00  0.00    +0.000 A 
ATOM      7  C   UNL     1     -12.711  55.939  49.576  0.00  0.00    +0.000 A 
ATOM      8  C   UNL     1     -13.690  56.116  51.760  0.00  0.00    +0.000 A 
ATOM      9  N   UNL     1     -13.882  56.283  48.988  0.00  0.00    +0.000 NA
ATOM     10  C   UNL     1     -14.885  56.503  51.169  0.00  0.00    +0.000 A 
ATOM     11  C   UNL     1     -14.932  56.566  49.790  0.00  0.00    +0.000 A 
ENDROOT
BRANCH   1  17
ATOM     12  S   UNL     1      -7.159  55.321  53.271  0.00  0.00    +0.000 S 
ATOM     13  O   UNL     1      -7.389  54.470  54.421  0.00  0.00    +0.000 OA
ATOM     14  O   UNL     1      -6.529  56.617  53.429  0.00  0.00    +0.000 OA
ATOM     15  N   UNL     1      -8.580  55.548  52.534  0.00  0.00    +0.000 N 
ATOM     16  C   UNL     1      -6.122  54.410  52.191  0.00  0.00    +0.000 A 
ATOM     17  C   UNL     1      -8.846  55.000  51.380  0.00  0.00    +0.000 C 
ATOM     18  C   UNL     1      -6.666  53.941  51.008  0.00  0.00    +0.000 A 
ATOM     19  C   UNL     1      -4.786  54.190  52.532  0.00  0.00    +0.000 A 
ATOM     20  N   UNL     1      -8.002  54.166  50.681  0.00  0.00    +0.000 N 
ATOM     21  C   UNL     1      -5.855  53.165  50.176  0.00  0.00    +0.000 A 
ATOM     22  C   UNL     1      -3.979  53.442  51.676  0.00  0.00    +0.000 A 
ATOM     23  C   UNL     1      -4.514  52.917  50.499  0.00  0.00    +0.000 A 
ATOM     24  H   UNL     1      -9.261  56.112  52.967  0.00  0.00    +0.000 HD
ATOM     25  H   UNL     1      -8.368  53.695  49.898  0.00  0.00    +0.000 HD
BRANCH  23  26
ATOM     26  O   UNL     1      -3.843  52.153  49.584  0.00  0.00    +0.000 OA
ATOM     27  C   UNL     1      -4.305  52.214  48.241  0.00  0.00    +0.000 C 
ENDBRANCH  23  26
ENDBRANCH   1  17
BRANCH   3  28
ATOM     28  O   UNL     1     -11.304  55.296  52.927  0.00  0.00    +0.000 OA
ATOM     29  H   UNL     1     -12.010  54.830  53.331  0.00  0.00    +0.000 HD
ENDBRANCH   3  28
BRANCH   5  30
ATOM     30  C   UNL     1     -11.723  55.779  47.305  0.00  0.00    +0.000 C 
BRANCH  30  31
ATOM     31  C   UNL     1     -11.756  54.385  46.707  0.00  0.00    +0.000 A 
ATOM     32  C   UNL     1     -11.478  54.185  45.348  0.00  0.00    +0.000 A 
ATOM     33  C   UNL     1     -12.134  53.281  47.487  0.00  0.00    +0.000 A 
ATOM     34  C   UNL     1     -11.611  52.917  44.778  0.00  0.00    +0.000 A 
ATOM     35  C   UNL     1     -12.278  52.017  46.914  0.00  0.00    +0.000 A 
ATOM     36  C   UNL     1     -12.027  51.839  45.556  0.00  0.00    +0.000 A 
ENDBRANCH  30  31
ENDBRANCH   5  30
TORSDOF 5
ENDMDL
MODEL 5
REMARK VINA RESULT:      -8.5      3.677      6.847
REMARK  Name = 353028
REMARK  6 active torsions:
REMARK  status: ('A' for Active; 'I' for Inactive)
REMARK    1  A    between atoms: C_6  and  C_10
REMARK    2  A    between atoms: C_14  and  O_18
REMARK    3  A    between atoms: C_15  and  O_20
REMARK    4  A    between atoms: N_17  and  C_22
REMARK    5  A    between atoms: O_20  and  C_24
REMARK    6  A    between atoms: C_22  and  C_26
REMARK                            x       y       z     vdW  Elec       q    Type
REMARK                         _______ _______ _______ _____ _____    ______ ____
ROOT
ATOM      1  C   UNL     1     -10.215  54.600  47.709  0.00  0.00    +0.000 A 
ATOM      2  C   UNL     1      -8.736  54.762  47.555  0.00  0.00    +0.000 A 
ATOM      3  C   UNL     1     -10.918  53.982  46.744  0.00  0.00    +0.000 A 
ATOM      4  O   UNL     1      -8.123  55.364  48.443  0.00  0.00    +0.000 OA
ATOM      5  N   UNL     1      -8.121  54.218  46.446  0.00  0.00    +0.000 N 
ATOM      6  C   UNL     1     -10.252  53.523  45.524  0.00  0.00    +0.000 A 
ATOM      7  C   UNL     1      -8.863  53.623  45.396  0.00  0.00    +0.000 A 
ATOM      8  C   UNL     1     -10.979  53.010  44.442  0.00  0.00    +0.000 A 
ATOM      9  N   UNL     1      -8.207  53.222  44.280  0.00  0.00    +0.000 NA
ATOM     10  C   UNL     1     -10.320  52.630  43.281  0.00  0.00    +0.000 A 
ATOM     11  C   UNL     1      -8.945  52.749  43.251  0.00  0.00    +0.000 A 
ENDROOT
BRANCH   1  17
ATOM     12  S   UNL     1     -11.403  54.796  51.448  0.00  0.00    +0.000 S 
ATOM     13  O   UNL     1     -10.376  55.312  52.332  0.00  0.00    +0.000 OA
ATOM     14  O   UNL     1     -12.229  53.677  51.854  0.00  0.00    +0.000 OA
ATOM     15  N   UNL     1     -10.697  54.408  50.047  0.00  0.00    +0.000 N 
ATOM     16  C   UNL     1     -12.506  56.127  51.155  0.00  0.00    +0.000 A 
ATOM     17  C   UNL     1     -10.897  55.109  48.964  0.00  0.00    +0.000 C 
ATOM     18  C   UNL     1     -12.520  56.695  49.893  0.00  0.00    +0.000 A 
ATOM     19  C   UNL     1     -13.345  56.571  52.178  0.00  0.00    +0.000 A 
ATOM     20  N   UNL     1     -11.675  56.242  48.881  0.00  0.00    +0.000 N 
ATOM     21  C   UNL     1     -13.357  57.792  49.677  0.00  0.00    +0.000 A 
ATOM     22  C   UNL     1     -14.199  57.647  51.939  0.00  0.00    +0.000 A 
ATOM     23  C   UNL     1     -14.201  58.269  50.690  0.00  0.00    +0.000 A 
ATOM     24  H   UNL     1     -10.101  53.625  50.009  0.00  0.00    +0.000 HD
ATOM     25  H   UNL     1     -11.631  56.769  48.051  0.00  0.00    +0.000 HD
BRANCH  23  26
ATOM     26  O   UNL     1     -14.970  59.341  50.328  0.00  0.00    +0.000 OA
ATOM     27  C   UNL     1     -14.352  60.322  49.506  0.00  0.00    +0.000 C 
ENDBRANCH  23  26
ENDBRANCH   1  17
BRANCH   3  28
ATOM     28  O   UNL     1     -12.278  53.734  46.791  0.00  0.00    +0.000 OA
ATOM     29  H   UNL     1     -12.887  54.427  46.620  0.00  0.00    +0.000 HD
ENDBRANCH   3  28
BRANCH   5  30
ATOM     30  C   UNL     1      -6.661  54.260  46.349  0.00  0.00    +0.000 C 
BRANCH  30  31
ATOM     31  C   UNL     1      -6.010  53.231  47.255  0.00  0.00    +0.000 A 
ATOM     32  C   UNL     1      -5.034  53.616  48.184  0.00  0.00    +0.000 A 
ATOM     33  C   UNL     1      -6.324  51.869  47.132  0.00  0.00    +0.000 A 
ATOM     34  C   UNL     1      -4.362  52.656  48.943  0.00  0.00    +0.000 A 
ATOM     35  C   UNL     1      -5.643  50.908  47.881  0.00  0.00    +0.000 A 
ATOM     36  C   UNL     1      -4.655  51.303  48.779  0.00  0.00    +0.000 A 
ENDBRANCH  30  31
ENDBRANCH   5  30
TORSDOF 5
ENDMDL
MODEL 6
REMARK VINA RESULT:      -8.3      3.259      7.709
REMARK  Name = 353028
REMARK  6 active torsions:
REMARK  status: ('A' for Active; 'I' for Inactive)
REMARK    1  A    between atoms: C_6  and  C_10
REMARK    2  A    between atoms: C_14  and  O_18
REMARK    3  A    between atoms: C_15  and  O_20
REMARK    4  A    between atoms: N_17  and  C_22
REMARK    5  A    between atoms: O_20  and  C_24
REMARK    6  A    between atoms: C_22  and  C_26
REMARK                            x       y       z     vdW  Elec       q    Type
REMARK                         _______ _______ _______ _____ _____    ______ ____
ROOT
ATOM      1  C   UNL     1      -9.867  53.717  52.260  0.00  0.00    +0.000 A 
ATOM      2  C   UNL     1      -8.432  54.086  52.058  0.00  0.00    +0.000 A 
ATOM      3  C   UNL     1     -10.197  52.848  53.232  0.00  0.00    +0.000 A 
ATOM      4  O   UNL     1      -8.156  54.860  51.136  0.00  0.00    +0.000 OA
ATOM      5  N   UNL     1      -7.486  53.566  52.918  0.00  0.00    +0.000 N 
ATOM      6  C   UNL     1      -9.156  52.223  54.048  0.00  0.00    +0.000 A 
ATOM      7  C   UNL     1      -7.818  52.602  53.902  0.00  0.00    +0.000 A 
ATOM      8  C   UNL     1      -9.457  51.208  54.965  0.00  0.00    +0.000 A 
ATOM      9  N   UNL     1      -6.822  52.041  54.628  0.00  0.00    +0.000 NA
ATOM     10  C   UNL     1      -8.439  50.602  55.688  0.00  0.00    +0.000 A 
ATOM     11  C   UNL     1      -7.149  51.053  55.491  0.00  0.00    +0.000 A 
ENDROOT
BRANCH   1  17
ATOM     12  S   UNL     1     -11.790  54.879  49.038  0.00  0.00    +0.000 S 
ATOM     13  O   UNL     1     -12.558  53.809  48.433  0.00  0.00    +0.000 OA
ATOM     14  O   UNL     1     -11.036  55.801  48.213  0.00  0.00    +0.000 OA
ATOM     15  N   UNL     1     -10.768  54.211  50.097  0.00  0.00    +0.000 N 
ATOM     16  C   UNL     1     -12.938  55.859  49.929  0.00  0.00    +0.000 A 
ATOM     17  C   UNL     1     -10.932  54.349  51.384  0.00  0.00    +0.000 C 
ATOM     18  C   UNL     1     -12.889  55.823  51.312  0.00  0.00    +0.000 A 
ATOM     19  C   UNL     1     -13.854  56.654  49.239  0.00  0.00    +0.000 A 
ATOM     20  N   UNL     1     -11.969  55.023  51.988  0.00  0.00    +0.000 N 
ATOM     21  C   UNL     1     -13.842  56.560  52.020  0.00  0.00    +0.000 A 
ATOM     22  C   UNL     1     -14.779  57.409  49.960  0.00  0.00    +0.000 A 
ATOM     23  C   UNL     1     -14.783  57.357  51.354  0.00  0.00    +0.000 A 
ATOM     24  H   UNL     1     -10.003  53.688  49.764  0.00  0.00    +0.000 HD
ATOM     25  H   UNL     1     -12.070  54.933  52.963  0.00  0.00    +0.000 HD
BRANCH  23  26
ATOM     26  O   UNL     1     -15.642  58.028  52.180  0.00  0.00    +0.000 OA
ATOM     27  C   UNL     1     -15.133  59.188  52.825  0.00  0.00    +0.000 C 
ENDBRANCH  23  26
ENDBRANCH   1  17
BRANCH   3  28
ATOM     28  O   UNL     1     -11.489  52.463  53.542  0.00  0.00    +0.000 OA
ATOM     29  H   UNL     1     -11.907  52.799  54.311  0.00  0.00    +0.000 HD
ENDBRANCH   3  28
BRANCH   5  30
ATOM     30  C   UNL     1      -6.099  54.021  52.810  0.00  0.00    +0.000 C 
BRANCH  30  31
ATOM     31  C   UNL     1      -5.418  53.456  51.577  0.00  0.00    +0.000 A 
ATOM     32  C   UNL     1      -4.928  54.309  50.579  0.00  0.00    +0.000 A 
ATOM     33  C   UNL     1      -5.329  52.068  51.383  0.00  0.00    +0.000 A 
ATOM     34  C   UNL     1      -4.396  53.784  49.399  0.00  0.00    +0.000 A 
ATOM     35  C   UNL     1      -4.809  51.545  50.198  0.00  0.00    +0.000 A 
ATOM     36  C   UNL     1      -4.352  52.405  49.202  0.00  0.00    +0.000 A 
ENDBRANCH  30  31
ENDBRANCH   5  30
TORSDOF 5
ENDMDL
MODEL 7
REMARK VINA RESULT:      -8.2      3.451      7.817
REMARK  Name = 353028
REMARK  6 active torsions:
REMARK  status: ('A' for Active; 'I' for Inactive)
REMARK    1  A    between atoms: C_6  and  C_10
REMARK    2  A    between atoms: C_14  and  O_18
REMARK    3  A    between atoms: C_15  and  O_20
REMARK    4  A    between atoms: N_17  and  C_22
REMARK    5  A    between atoms: O_20  and  C_24
REMARK    6  A    between atoms: C_22  and  C_26
REMARK                            x       y       z     vdW  Elec       q    Type
REMARK                         _______ _______ _______ _____ _____    ______ ____
ROOT
ATOM      1  C   UNL     1      -8.626  55.010  50.515  0.00  0.00    +0.000 A 
ATOM      2  C   UNL     1      -7.303  54.834  49.839  0.00  0.00    +0.000 A 
ATOM      3  C   UNL     1      -8.687  55.026  51.858  0.00  0.00    +0.000 A 
ATOM      4  O   UNL     1      -7.283  54.789  48.605  0.00  0.00    +0.000 OA
ATOM      5  N   UNL     1      -6.167  54.749  50.618  0.00  0.00    +0.000 N 
ATOM      6  C   UNL     1      -7.478  54.813  52.655  0.00  0.00    +0.000 A 
ATOM      7  C   UNL     1      -6.231  54.701  52.032  0.00  0.00    +0.000 A 
ATOM      8  C   UNL     1      -7.535  54.678  54.047  0.00  0.00    +0.000 A 
ATOM      9  N   UNL     1      -5.089  54.492  52.730  0.00  0.00    +0.000 NA
ATOM     10  C   UNL     1      -6.375  54.428  54.768  0.00  0.00    +0.000 A 
ATOM     11  C   UNL     1      -5.186  54.350  54.071  0.00  0.00    +0.000 A 
ENDROOT
BRANCH   1  17
ATOM     12  S   UNL     1     -11.279  54.472  47.669  0.00  0.00    +0.000 S 
ATOM     13  O   UNL     1     -12.164  53.356  47.936  0.00  0.00    +0.000 OA
ATOM     14  O   UNL     1     -10.753  54.690  46.336  0.00  0.00    +0.000 OA
ATOM     15  N   UNL     1     -10.026  54.362  48.684  0.00  0.00    +0.000 N 
ATOM     16  C   UNL     1     -12.183  55.919  48.072  0.00  0.00    +0.000 A 
ATOM     17  C   UNL     1      -9.875  55.196  49.675  0.00  0.00    +0.000 C 
ATOM     18  C   UNL     1     -11.801  56.634  49.193  0.00  0.00    +0.000 A 
ATOM     19  C   UNL     1     -13.245  56.322  47.260  0.00  0.00    +0.000 A 
ATOM     20  N   UNL     1     -10.740  56.218  49.996  0.00  0.00    +0.000 N 
ATOM     21  C   UNL     1     -12.559  57.754  49.546  0.00  0.00    +0.000 A 
ATOM     22  C   UNL     1     -13.972  57.460  47.606  0.00  0.00    +0.000 A 
ATOM     23  C   UNL     1     -13.639  58.175  48.757  0.00  0.00    +0.000 A 
ATOM     24  H   UNL     1      -9.362  53.647  48.552  0.00  0.00    +0.000 HD
ATOM     25  H   UNL     1     -10.602  56.686  50.850  0.00  0.00    +0.000 HD
BRANCH  23  26
ATOM     26  O   UNL     1     -14.277  59.292  49.221  0.00  0.00    +0.000 OA
ATOM     27  C   UNL     1     -13.468  60.273  49.855  0.00  0.00    +0.000 C 
ENDBRANCH  23  26
ENDBRANCH   1  17
BRANCH   3  28
ATOM     28  O   UNL     1      -9.841  55.223  52.595  0.00  0.00    +0.000 OA
ATOM     29  H   UNL     1      -9.976  54.748  53.391  0.00  0.00    +0.000 HD
ENDBRANCH   3  28
BRANCH   5  30
ATOM     30  C   UNL     1      -4.858  54.706  49.965  0.00  0.00    +0.000 C 
BRANCH  30  31
ATOM     31  C   UNL     1      -4.541  53.320  49.435  0.00  0.00    +0.000 A 
ATOM     32  C   UNL     1      -4.317  52.254  50.316  0.00  0.00    +0.000 A 
ATOM     33  C   UNL     1      -4.398  53.097  48.057  0.00  0.00    +0.000 A 
ATOM     34  C   UNL     1      -3.923  51.006  49.830  0.00  0.00    +0.000 A 
ATOM     35  C   UNL     1      -3.993  51.853  47.572  0.00  0.00    +0.000 A 
ATOM     36  C   UNL     1      -3.745  50.810  48.462  0.00  0.00    +0.000 A 
ENDBRANCH  30  31
ENDBRANCH   5  30
TORSDOF 5
ENDMDL
MODEL 8
REMARK VINA RESULT:      -8.2      3.714      7.890
REMARK  Name = 353028
REMARK  6 active torsions:
REMARK  status: ('A' for Active; 'I' for Inactive)
REMARK    1  A    between atoms: C_6  and  C_10
REMARK    2  A    between atoms: C_14  and  O_18
REMARK    3  A    between atoms: C_15  and  O_20
REMARK    4  A    between atoms: N_17  and  C_22
REMARK    5  A    between atoms: O_20  and  C_24
REMARK    6  A    between atoms: C_22  and  C_26
REMARK                            x       y       z     vdW  Elec       q    Type
REMARK                         _______ _______ _______ _____ _____    ______ ____
ROOT
ATOM      1  C   UNL     1     -11.230  54.567  50.963  0.00  0.00    +0.000 A 
ATOM      2  C   UNL     1      -9.796  54.909  50.707  0.00  0.00    +0.000 A 
ATOM      3  C   UNL     1     -11.558  53.317  51.332  0.00  0.00    +0.000 A 
ATOM      4  O   UNL     1      -9.530  56.056  50.336  0.00  0.00    +0.000 OA
ATOM      5  N   UNL     1      -8.836  53.938  50.913  0.00  0.00    +0.000 N 
ATOM      6  C   UNL     1     -10.528  52.280  51.425  0.00  0.00    +0.000 A 
ATOM      7  C   UNL     1      -9.181  52.603  51.240  0.00  0.00    +0.000 A 
ATOM      8  C   UNL     1     -10.859  50.941  51.663  0.00  0.00    +0.000 A 
ATOM      9  N   UNL     1      -8.197  51.674  51.305  0.00  0.00    +0.000 NA
ATOM     10  C   UNL     1      -9.862  49.976  51.697  0.00  0.00    +0.000 A 
ATOM     11  C   UNL     1      -8.557  50.389  51.520  0.00  0.00    +0.000 A 
ENDROOT
BRANCH   1  17
ATOM     12  S   UNL     1     -13.492  57.346  49.354  0.00  0.00    +0.000 S 
ATOM     13  O   UNL     1     -14.592  56.794  48.588  0.00  0.00    +0.000 OA
ATOM     14  O   UNL     1     -12.747  58.484  48.855  0.00  0.00    +0.000 OA
ATOM     15  N   UNL     1     -12.441  56.151  49.637  0.00  0.00    +0.000 N 
ATOM     16  C   UNL     1     -14.173  57.852  50.888  0.00  0.00    +0.000 A 
ATOM     17  C   UNL     1     -12.289  55.644  50.830  0.00  0.00    +0.000 C 
ATOM     18  C   UNL     1     -13.836  57.128  52.019  0.00  0.00    +0.000 A 
ATOM     19  C   UNL     1     -15.015  58.963  50.942  0.00  0.00    +0.000 A 
ATOM     20  N   UNL     1     -12.995  56.019  51.951  0.00  0.00    +0.000 N 
ATOM     21  C   UNL     1     -14.425  57.497  53.232  0.00  0.00    +0.000 A 
ATOM     22  C   UNL     1     -15.570  59.339  52.164  0.00  0.00    +0.000 A 
ATOM     23  C   UNL     1     -15.285  58.601  53.313  0.00  0.00    +0.000 A 
ATOM     24  H   UNL     1     -11.904  55.797  48.892  0.00  0.00    +0.000 HD
ATOM     25  H   UNL     1     -12.901  55.465  52.759  0.00  0.00    +0.000 HD
BRANCH  23  26
ATOM     26  O   UNL     1     -15.774  58.846  54.567  0.00  0.00    +0.000 OA
ATOM     27  C   UNL     1     -16.388  60.111  54.776  0.00  0.00    +0.000 C 
ENDBRANCH  23  26
ENDBRANCH   1  17
BRANCH   3  28
ATOM     28  O   UNL     1     -12.839  52.892  51.636  0.00  0.00    +0.000 OA
ATOM     29  H   UNL     1     -12.966  52.120  52.152  0.00  0.00    +0.000 HD
ENDBRANCH   3  28
BRANCH   5  30
ATOM     30  C   UNL     1      -7.423  54.297  50.790  0.00  0.00    +0.000 C 
BRANCH  30  31
ATOM     31  C   UNL     1      -6.775  54.499  52.147  0.00  0.00    +0.000 A 
ATOM     32  C   UNL     1      -5.503  53.976  52.414  0.00  0.00    +0.000 A 
ATOM     33  C   UNL     1      -7.467  55.151  53.180  0.00  0.00    +0.000 A 
ATOM     34  C   UNL     1      -4.953  54.072  53.694  0.00  0.00    +0.000 A 
ATOM     35  C   UNL     1      -6.922  55.236  54.462  0.00  0.00    +0.000 A 
ATOM     36  C   UNL     1      -5.669  54.686  54.721  0.00  0.00    +0.000 A 
ENDBRANCH  30  31
ENDBRANCH   5  30
TORSDOF 5
ENDMDL
MODEL 9
REMARK VINA RESULT:      -8.1      2.165      5.118
REMARK  Name = 353028
REMARK  6 active torsions:
REMARK  status: ('A' for Active; 'I' for Inactive)
REMARK    1  A    between atoms: C_6  and  C_10
REMARK    2  A    between atoms: C_14  and  O_18
REMARK    3  A    between atoms: C_15  and  O_20
REMARK    4  A    between atoms: N_17  and  C_22
REMARK    5  A    between atoms: O_20  and  C_24
REMARK    6  A    between atoms: C_22  and  C_26
REMARK                            x       y       z     vdW  Elec       q    Type
REMARK                         _______ _______ _______ _____ _____    ______ ____
ROOT
ATOM      1  C   UNL     1     -10.465  54.302  50.554  0.00  0.00    +0.000 A 
ATOM      2  C   UNL     1     -11.903  54.529  50.897  0.00  0.00    +0.000 A 
ATOM      3  C   UNL     1     -10.009  54.663  49.342  0.00  0.00    +0.000 A 
ATOM      4  O   UNL     1     -12.301  54.157  52.006  0.00  0.00    +0.000 OA
ATOM      5  N   UNL     1     -12.714  55.159  49.975  0.00  0.00    +0.000 N 
ATOM      6  C   UNL     1     -10.924  55.218  48.343  0.00  0.00    +0.000 A 
ATOM      7  C   UNL     1     -12.256  55.483  48.674  0.00  0.00    +0.000 A 
ATOM      8  C   UNL     1     -10.509  55.465  47.029  0.00  0.00    +0.000 A 
ATOM      9  N   UNL     1     -13.139  55.986  47.778  0.00  0.00    +0.000 NA
ATOM     10  C   UNL     1     -11.415  55.946  46.094  0.00  0.00    +0.000 A 
ATOM     11  C   UNL     1     -12.706  56.194  46.514  0.00  0.00    +0.000 A 
ENDROOT
BRANCH   1  17
ATOM     12  S   UNL     1      -9.075  51.835  53.275  0.00  0.00    +0.000 S 
ATOM     13  O   UNL     1      -8.487  50.643  52.697  0.00  0.00    +0.000 OA
ATOM     14  O   UNL     1      -9.909  51.744  54.457  0.00  0.00    +0.000 OA
ATOM     15  N   UNL     1      -9.932  52.571  52.119  0.00  0.00    +0.000 N 
ATOM     16  C   UNL     1      -7.735  52.878  53.711  0.00  0.00    +0.000 A 
ATOM     17  C   UNL     1      -9.537  53.695  51.588  0.00  0.00    +0.000 C 
ATOM     18  C   UNL     1      -7.543  54.033  52.973  0.00  0.00    +0.000 A 
ATOM     19  C   UNL     1      -6.911  52.537  54.784  0.00  0.00    +0.000 A 
ATOM     20  N   UNL     1      -8.373  54.360  51.903  0.00  0.00    +0.000 N 
ATOM     21  C   UNL     1      -6.441  54.833  53.284  0.00  0.00    +0.000 A 
ATOM     22  C   UNL     1      -5.833  53.361  55.104  0.00  0.00    +0.000 A 
ATOM     23  C   UNL     1      -5.587  54.508  54.348  0.00  0.00    +0.000 A 
ATOM     24  H   UNL     1     -10.771  52.161  51.808  0.00  0.00    +0.000 HD
ATOM     25  H   UNL     1      -8.108  55.117  51.332  0.00  0.00    +0.000 HD
BRANCH  23  26
ATOM     26  O   UNL     1      -4.560  55.390  54.540  0.00  0.00    +0.000 OA
ATOM     27  C   UNL     1      -3.300  55.033  53.986  0.00  0.00    +0.000 C 
ENDBRANCH  23  26
ENDBRANCH   1  17
BRANCH   3  28
ATOM     28  O   UNL     1      -8.695  54.543  48.924  0.00  0.00    +0.000 OA
ATOM     29  H   UNL     1      -8.191  53.793  49.171  0.00  0.00    +0.000 HD
ENDBRANCH   3  28
BRANCH   5  30
ATOM     30  C   UNL     1     -14.087  55.501  50.350  0.00  0.00    +0.000 C 
BRANCH  30  31
ATOM     31  C   UNL     1     -14.154  56.825  51.088  0.00  0.00    +0.000 A 
ATOM     32  C   UNL     1     -14.465  56.864  52.454  0.00  0.00    +0.000 A 
ATOM     33  C   UNL     1     -13.974  58.036  50.402  0.00  0.00    +0.000 A 
ATOM     34  C   UNL     1     -14.628  58.088  53.107  0.00  0.00    +0.000 A 
ATOM     35  C   UNL     1     -14.150  59.258  51.052  0.00  0.00    +0.000 A 
ATOM     36  C   UNL     1     -14.488  59.282  52.403  0.00  0.00    +0.000 A 
ENDBRANCH  30  31
ENDBRANCH   5  30
TORSDOF 5
ENDMDL
