MODEL 1
REMARK VINA RESULT:      -8.0      0.000      0.000
REMARK  Name = 353224
REMARK  10 active torsions:
REMARK  status: ('A' for Active; 'I' for Inactive)
REMARK    1  A    between atoms: C_6  and  C_10
REMARK    2  A    between atoms: C_12  and  N_16
REMARK    3  A    between atoms: C_14  and  O_19
REMARK    4  A    between atoms: N_16  and  S_21
REMARK    5  A    between atoms: N_18  and  C_23
REMARK    6  A    between atoms: S_21  and  C_27
REMARK    7  A    between atoms: C_23  and  C_29
REMARK    8  A    between atoms: C_29  and  C_34
REMARK    9  A    between atoms: C_34  and  C_37
REMARK   10  A    between atoms: C_34  and  C_38
REMARK                            x       y       z     vdW  Elec       q    Type
REMARK                         _______ _______ _______ _____ _____    ______ ____
ROOT
ATOM      1  S   UNL     1      -9.780  55.752  50.051  0.00  0.00    +0.000 S 
ATOM      2  O   UNL     1      -9.073  56.999  50.241  0.00  0.00    +0.000 OA
ATOM      3  O   UNL     1     -10.483  55.126  51.153  0.00  0.00    +0.000 OA
ATOM      4  N   UNL     1      -8.730  54.676  49.454  0.00  0.00    +0.000 N 
ATOM      5  C   UNL     1     -11.001  56.063  48.827  0.00  0.00    +0.000 A 
ATOM      6  C   UNL     1      -8.789  54.286  48.215  0.00  0.00    +0.000 C 
ATOM      7  C   UNL     1     -10.812  55.496  47.575  0.00  0.00    +0.000 A 
ATOM      8  C   UNL     1     -12.115  56.849  49.134  0.00  0.00    +0.000 A 
ATOM      9  N   UNL     1      -9.683  54.739  47.275  0.00  0.00    +0.000 N 
ATOM     10  C   UNL     1     -11.747  55.771  46.577  0.00  0.00    +0.000 A 
ATOM     11  C   UNL     1     -13.044  57.090  48.129  0.00  0.00    +0.000 A 
ATOM     12  C   UNL     1     -12.869  56.547  46.860  0.00  0.00    +0.000 A 
ATOM     13  H   UNL     1      -8.031  54.308  50.042  0.00  0.00    +0.000 HD
ATOM     14  H   UNL     1      -9.516  54.514  46.331  0.00  0.00    +0.000 HD
ENDROOT
BRANCH   6  15
ATOM     15  C   UNL     1      -7.801  53.215  47.803  0.00  0.00    +0.000 A 
ATOM     16  C   UNL     1      -8.308  51.924  47.235  0.00  0.00    +0.000 A 
ATOM     17  C   UNL     1      -6.479  53.417  47.931  0.00  0.00    +0.000 A 
ATOM     18  O   UNL     1      -9.519  51.810  47.016  0.00  0.00    +0.000 OA
ATOM     19  N   UNL     1      -7.398  50.920  46.974  0.00  0.00    +0.000 N 
ATOM     20  C   UNL     1      -5.537  52.343  47.610  0.00  0.00    +0.000 A 
ATOM     21  C   UNL     1      -6.006  51.101  47.173  0.00  0.00    +0.000 A 
ATOM     22  C   UNL     1      -4.157  52.501  47.783  0.00  0.00    +0.000 A 
ATOM     23  N   UNL     1      -5.179  50.058  46.925  0.00  0.00    +0.000 NA
ATOM     24  C   UNL     1      -3.300  51.437  47.537  0.00  0.00    +0.000 A 
ATOM     25  C   UNL     1      -3.855  50.244  47.116  0.00  0.00    +0.000 A 
BRANCH  17  26
ATOM     26  O   UNL     1      -5.898  54.587  48.388  0.00  0.00    +0.000 OA
ATOM     27  H   UNL     1      -5.232  55.007  47.880  0.00  0.00    +0.000 HD
ENDBRANCH  17  26
BRANCH  19  28
ATOM     28  C   UNL     1      -7.873  49.610  46.520  0.00  0.00    +0.000 C 
BRANCH  28  29
ATOM     29  C   UNL     1      -7.528  49.361  45.044  0.00  0.00    +0.000 C 
BRANCH  29  30
ATOM     30  C   UNL     1      -8.682  49.641  44.061  0.00  0.00    +0.000 C 
ATOM     31  C   UNL     1     -10.058  49.344  44.661  0.00  0.00    +0.000 C 
ATOM     32  C   UNL     1      -8.628  51.104  43.612  0.00  0.00    +0.000 C 
ENDBRANCH  29  30
ENDBRANCH  28  29
ENDBRANCH  19  28
ENDBRANCH   6  15
BRANCH  11  33
ATOM     33  N   UNL     1     -14.166  57.921  48.350  0.00  0.00    +0.000 N 
ATOM     34  H   UNL     1     -15.011  57.746  47.876  0.00  0.00    +0.000 HD
BRANCH  33  35
ATOM     35  S   UNL     1     -14.047  59.209  49.426  0.00  0.00    +0.000 S 
ATOM     36  O   UNL     1     -12.630  59.444  49.611  0.00  0.00    +0.000 OA
ATOM     37  O   UNL     1     -14.933  60.268  48.996  0.00  0.00    +0.000 OA
BRANCH  35  38
ATOM     38  C   UNL     1     -14.688  58.517  50.933  0.00  0.00    +0.000 A 
ATOM     39  C   UNL     1     -14.588  59.226  52.133  0.00  0.00    +0.000 A 
ATOM     40  C   UNL     1     -15.297  57.256  50.898  0.00  0.00    +0.000 A 
ATOM     41  C   UNL     1     -15.072  58.650  53.309  0.00  0.00    +0.000 A 
ATOM     42  C   UNL     1     -15.765  56.684  52.080  0.00  0.00    +0.000 A 
ATOM     43  C   UNL     1     -15.650  57.380  53.283  0.00  0.00    +0.000 A 
ENDBRANCH  35  38
ENDBRANCH  33  35
ENDBRANCH  11  33
TORSDOF 8
ENDMDL
MODEL 2
REMARK VINA RESULT:      -7.8      2.355      4.063
REMARK  Name = 353224
REMARK  10 active torsions:
REMARK  status: ('A' for Active; 'I' for Inactive)
REMARK    1  A    between atoms: C_6  and  C_10
REMARK    2  A    between atoms: C_12  and  N_16
REMARK    3  A    between atoms: C_14  and  O_19
REMARK    4  A    between atoms: N_16  and  S_21
REMARK    5  A    between atoms: N_18  and  C_23
REMARK    6  A    between atoms: S_21  and  C_27
REMARK    7  A    between atoms: C_23  and  C_29
REMARK    8  A    between atoms: C_29  and  C_34
REMARK    9  A    between atoms: C_34  and  C_37
REMARK   10  A    between atoms: C_34  and  C_38
REMARK                            x       y       z     vdW  Elec       q    Type
REMARK                         _______ _______ _______ _____ _____    ______ ____
ROOT
ATOM      1  S   UNL     1     -10.079  54.324  51.220  0.00  0.00    +0.000 S 
ATOM      2  O   UNL     1      -9.723  55.450  52.057  0.00  0.00    +0.000 OA
ATOM      3  O   UNL     1     -11.038  53.338  51.676  0.00  0.00    +0.000 OA
ATOM      4  N   UNL     1      -8.714  53.548  50.832  0.00  0.00    +0.000 N 
ATOM      5  C   UNL     1     -10.760  55.003  49.750  0.00  0.00    +0.000 A 
ATOM      6  C   UNL     1      -8.218  53.606  49.631  0.00  0.00    +0.000 C 
ATOM      7  C   UNL     1     -10.005  54.906  48.590  0.00  0.00    +0.000 A 
ATOM      8  C   UNL     1     -12.021  55.604  49.776  0.00  0.00    +0.000 A 
ATOM      9  N   UNL     1      -8.738  54.329  48.584  0.00  0.00    +0.000 N 
ATOM     10  C   UNL     1     -10.510  55.480  47.423  0.00  0.00    +0.000 A 
ATOM     11  C   UNL     1     -12.511  56.150  48.597  0.00  0.00    +0.000 A 
ATOM     12  C   UNL     1     -11.767  56.080  47.423  0.00  0.00    +0.000 A 
ATOM     13  H   UNL     1      -8.248  53.020  51.520  0.00  0.00    +0.000 HD
ATOM     14  H   UNL     1      -8.181  54.447  47.782  0.00  0.00    +0.000 HD
ENDROOT
BRANCH   6  15
ATOM     15  C   UNL     1      -6.983  52.769  49.376  0.00  0.00    +0.000 A 
ATOM     16  C   UNL     1      -5.833  52.839  50.335  0.00  0.00    +0.000 A 
ATOM     17  C   UNL     1      -6.915  51.956  48.308  0.00  0.00    +0.000 A 
ATOM     18  O   UNL     1      -5.967  53.500  51.370  0.00  0.00    +0.000 OA
ATOM     19  N   UNL     1      -4.675  52.157  50.022  0.00  0.00    +0.000 N 
ATOM     20  C   UNL     1      -5.684  51.216  48.024  0.00  0.00    +0.000 A 
ATOM     21  C   UNL     1      -4.571  51.353  48.859  0.00  0.00    +0.000 A 
ATOM     22  C   UNL     1      -5.560  50.404  46.891  0.00  0.00    +0.000 A 
ATOM     23  N   UNL     1      -3.390  50.740  48.603  0.00  0.00    +0.000 NA
ATOM     24  C   UNL     1      -4.353  49.775  46.616  0.00  0.00    +0.000 A 
ATOM     25  C   UNL     1      -3.305  49.976  47.493  0.00  0.00    +0.000 A 
BRANCH  17  26
ATOM     26  O   UNL     1      -7.934  51.768  47.391  0.00  0.00    +0.000 OA
ATOM     27  H   UNL     1      -8.025  52.354  46.666  0.00  0.00    +0.000 HD
ENDBRANCH  17  26
BRANCH  19  28
ATOM     28  C   UNL     1      -3.497  52.293  50.883  0.00  0.00    +0.000 C 
BRANCH  28  29
ATOM     29  C   UNL     1      -3.481  51.235  51.995  0.00  0.00    +0.000 C 
BRANCH  29  30
ATOM     30  C   UNL     1      -3.611  51.803  53.423  0.00  0.00    +0.000 C 
ATOM     31  C   UNL     1      -3.301  53.299  53.496  0.00  0.00    +0.000 C 
ATOM     32  C   UNL     1      -5.030  51.553  53.946  0.00  0.00    +0.000 C 
ENDBRANCH  29  30
ENDBRANCH  28  29
ENDBRANCH  19  28
ENDBRANCH   6  15
BRANCH  11  33
ATOM     33  N   UNL     1     -13.754  56.823  48.558  0.00  0.00    +0.000 N 
ATOM     34  H   UNL     1     -14.555  56.363  48.219  0.00  0.00    +0.000 HD
BRANCH  33  35
ATOM     35  S   UNL     1     -13.853  58.414  49.097  0.00  0.00    +0.000 S 
ATOM     36  O   UNL     1     -12.486  58.873  49.237  0.00  0.00    +0.000 OA
ATOM     37  O   UNL     1     -14.804  59.132  48.277  0.00  0.00    +0.000 OA
BRANCH  35  38
ATOM     38  C   UNL     1     -14.538  58.232  50.727  0.00  0.00    +0.000 A 
ATOM     39  C   UNL     1     -14.517  59.303  51.623  0.00  0.00    +0.000 A 
ATOM     40  C   UNL     1     -15.102  57.004  51.094  0.00  0.00    +0.000 A 
ATOM     41  C   UNL     1     -15.035  59.128  52.908  0.00  0.00    +0.000 A 
ATOM     42  C   UNL     1     -15.603  56.834  52.384  0.00  0.00    +0.000 A 
ATOM     43  C   UNL     1     -15.567  57.895  53.289  0.00  0.00    +0.000 A 
ENDBRANCH  35  38
ENDBRANCH  33  35
ENDBRANCH  11  33
TORSDOF 8
ENDMDL
MODEL 3
REMARK VINA RESULT:      -7.8      3.027      4.849
REMARK  Name = 353224
REMARK  10 active torsions:
REMARK  status: ('A' for Active; 'I' for Inactive)
REMARK    1  A    between atoms: C_6  and  C_10
REMARK    2  A    between atoms: C_12  and  N_16
REMARK    3  A    between atoms: C_14  and  O_19
REMARK    4  A    between atoms: N_16  and  S_21
REMARK    5  A    between atoms: N_18  and  C_23
REMARK    6  A    between atoms: S_21  and  C_27
REMARK    7  A    between atoms: C_23  and  C_29
REMARK    8  A    between atoms: C_29  and  C_34
REMARK    9  A    between atoms: C_34  and  C_37
REMARK   10  A    between atoms: C_34  and  C_38
REMARK                            x       y       z     vdW  Elec       q    Type
REMARK                         _______ _______ _______ _____ _____    ______ ____
ROOT
ATOM      1  S   UNL     1      -9.715  54.362  46.986  0.00  0.00    +0.000 S 
ATOM      2  O   UNL     1     -10.529  53.386  46.296  0.00  0.00    +0.000 OA
ATOM      3  O   UNL     1      -9.122  55.472  46.266  0.00  0.00    +0.000 OA
ATOM      4  N   UNL     1      -8.526  53.567  47.742  0.00  0.00    +0.000 N 
ATOM      5  C   UNL     1     -10.750  55.088  48.205  0.00  0.00    +0.000 A 
ATOM      6  C   UNL     1      -8.519  53.428  49.035  0.00  0.00    +0.000 C 
ATOM      7  C   UNL     1     -10.498  54.771  49.532  0.00  0.00    +0.000 A 
ATOM      8  C   UNL     1     -11.777  55.958  47.824  0.00  0.00    +0.000 A 
ATOM      9  N   UNL     1      -9.490  53.882  49.895  0.00  0.00    +0.000 N 
ATOM     10  C   UNL     1     -11.339  55.302  50.511  0.00  0.00    +0.000 A 
ATOM     11  C   UNL     1     -12.587  56.490  48.818  0.00  0.00    +0.000 A 
ATOM     12  C   UNL     1     -12.366  56.174  50.156  0.00  0.00    +0.000 A 
ATOM     13  H   UNL     1      -7.793  53.180  47.212  0.00  0.00    +0.000 HD
ATOM     14  H   UNL     1      -9.472  53.559  50.825  0.00  0.00    +0.000 HD
ENDROOT
BRANCH   6  15
ATOM     15  C   UNL     1      -7.309  52.735  49.626  0.00  0.00    +0.000 A 
ATOM     16  C   UNL     1      -6.569  53.381  50.757  0.00  0.00    +0.000 A 
ATOM     17  C   UNL     1      -6.906  51.543  49.155  0.00  0.00    +0.000 A 
ATOM     18  O   UNL     1      -7.030  54.416  51.250  0.00  0.00    +0.000 OA
ATOM     19  N   UNL     1      -5.405  52.789  51.202  0.00  0.00    +0.000 N 
ATOM     20  C   UNL     1      -5.686  50.922  49.676  0.00  0.00    +0.000 A 
ATOM     21  C   UNL     1      -4.933  51.566  50.662  0.00  0.00    +0.000 A 
ATOM     22  C   UNL     1      -5.206  49.708  49.170  0.00  0.00    +0.000 A 
ATOM     23  N   UNL     1      -3.765  51.063  51.129  0.00  0.00    +0.000 NA
ATOM     24  C   UNL     1      -4.008  49.186  49.638  0.00  0.00    +0.000 A 
ATOM     25  C   UNL     1      -3.328  49.897  50.608  0.00  0.00    +0.000 A 
BRANCH  17  26
ATOM     26  O   UNL     1      -7.544  50.829  48.157  0.00  0.00    +0.000 OA
ATOM     27  H   UNL     1      -8.280  51.201  47.714  0.00  0.00    +0.000 HD
ENDBRANCH  17  26
BRANCH  19  28
ATOM     28  C   UNL     1      -4.600  53.453  52.233  0.00  0.00    +0.000 C 
BRANCH  28  29
ATOM     29  C   UNL     1      -5.093  53.111  53.646  0.00  0.00    +0.000 C 
BRANCH  29  30
ATOM     30  C   UNL     1      -5.166  54.315  54.607  0.00  0.00    +0.000 C 
ATOM     31  C   UNL     1      -4.226  55.453  54.204  0.00  0.00    +0.000 C 
ATOM     32  C   UNL     1      -6.604  54.839  54.664  0.00  0.00    +0.000 C 
ENDBRANCH  29  30
ENDBRANCH  28  29
ENDBRANCH  19  28
ENDBRANCH   6  15
BRANCH  11  33
ATOM     33  N   UNL     1     -13.679  57.331  48.505  0.00  0.00    +0.000 N 
ATOM     34  H   UNL     1     -14.346  57.050  47.838  0.00  0.00    +0.000 HD
BRANCH  33  35
ATOM     35  S   UNL     1     -13.830  58.817  49.281  0.00  0.00    +0.000 S 
ATOM     36  O   UNL     1     -12.480  59.286  49.511  0.00  0.00    +0.000 OA
ATOM     37  O   UNL     1     -14.794  59.627  48.568  0.00  0.00    +0.000 OA
BRANCH  35  38
ATOM     38  C   UNL     1     -14.527  58.366  50.853  0.00  0.00    +0.000 A 
ATOM     39  C   UNL     1     -15.319  57.221  50.970  0.00  0.00    +0.000 A 
ATOM     40  C   UNL     1     -14.268  59.171  51.969  0.00  0.00    +0.000 A 
ATOM     41  C   UNL     1     -15.880  56.902  52.208  0.00  0.00    +0.000 A 
ATOM     42  C   UNL     1     -14.844  58.853  53.198  0.00  0.00    +0.000 A 
ATOM     43  C   UNL     1     -15.650  57.721  53.315  0.00  0.00    +0.000 A 
ENDBRANCH  35  38
ENDBRANCH  33  35
ENDBRANCH  11  33
TORSDOF 8
ENDMDL
MODEL 4
REMARK VINA RESULT:      -7.7      3.000      3.600
REMARK  Name = 353224
REMARK  10 active torsions:
REMARK  status: ('A' for Active; 'I' for Inactive)
REMARK    1  A    between atoms: C_6  and  C_10
REMARK    2  A    between atoms: C_12  and  N_16
REMARK    3  A    between atoms: C_14  and  O_19
REMARK    4  A    between atoms: N_16  and  S_21
REMARK    5  A    between atoms: N_18  and  C_23
REMARK    6  A    between atoms: S_21  and  C_27
REMARK    7  A    between atoms: C_23  and  C_29
REMARK    8  A    between atoms: C_29  and  C_34
REMARK    9  A    between atoms: C_34  and  C_37
REMARK   10  A    between atoms: C_34  and  C_38
REMARK                            x       y       z     vdW  Elec       q    Type
REMARK                         _______ _______ _______ _____ _____    ______ ____
ROOT
ATOM      1  S   UNL     1     -10.789  53.875  52.186  0.00  0.00    +0.000 S 
ATOM      2  O   UNL     1     -10.700  54.975  53.122  0.00  0.00    +0.000 OA
ATOM      3  O   UNL     1     -11.856  52.900  52.291  0.00  0.00    +0.000 OA
ATOM      4  N   UNL     1      -9.381  53.079  52.225  0.00  0.00    +0.000 N 
ATOM      5  C   UNL     1     -10.964  54.600  50.596  0.00  0.00    +0.000 A 
ATOM      6  C   UNL     1      -8.532  53.154  51.243  0.00  0.00    +0.000 C 
ATOM      7  C   UNL     1      -9.884  54.512  49.729  0.00  0.00    +0.000 A 
ATOM      8  C   UNL     1     -12.162  55.227  50.241  0.00  0.00    +0.000 A 
ATOM      9  N   UNL     1      -8.687  53.910  50.106  0.00  0.00    +0.000 N 
ATOM     10  C   UNL     1      -9.989  55.122  48.479  0.00  0.00    +0.000 A 
ATOM     11  C   UNL     1     -12.249  55.808  48.982  0.00  0.00    +0.000 A 
ATOM     12  C   UNL     1     -11.175  55.748  48.100  0.00  0.00    +0.000 A 
ATOM     13  H   UNL     1      -9.162  52.527  53.010  0.00  0.00    +0.000 HD
ATOM     14  H   UNL     1      -7.905  54.033  49.522  0.00  0.00    +0.000 HD
ENDROOT
BRANCH   6  15
ATOM     15  C   UNL     1      -7.290  52.297  51.366  0.00  0.00    +0.000 A 
ATOM     16  C   UNL     1      -6.934  51.351  50.261  0.00  0.00    +0.000 A 
ATOM     17  C   UNL     1      -6.500  52.389  52.450  0.00  0.00    +0.000 A 
ATOM     18  O   UNL     1      -7.608  51.372  49.225  0.00  0.00    +0.000 OA
ATOM     19  N   UNL     1      -5.864  50.499  50.445  0.00  0.00    +0.000 N 
ATOM     20  C   UNL     1      -5.349  51.495  52.598  0.00  0.00    +0.000 A 
ATOM     21  C   UNL     1      -5.067  50.541  51.616  0.00  0.00    +0.000 A 
ATOM     22  C   UNL     1      -4.537  51.526  53.738  0.00  0.00    +0.000 A 
ATOM     23  N   UNL     1      -4.053  49.651  51.738  0.00  0.00    +0.000 NA
ATOM     24  C   UNL     1      -3.499  50.615  53.875  0.00  0.00    +0.000 A 
ATOM     25  C   UNL     1      -3.301  49.702  52.858  0.00  0.00    +0.000 A 
BRANCH  17  26
ATOM     26  O   UNL     1      -6.698  53.265  53.502  0.00  0.00    +0.000 OA
ATOM     27  H   UNL     1      -5.980  53.502  54.055  0.00  0.00    +0.000 HD
ENDBRANCH  17  26
BRANCH  19  28
ATOM     28  C   UNL     1      -5.556  49.488  49.428  0.00  0.00    +0.000 C 
BRANCH  28  29
ATOM     29  C   UNL     1      -4.293  49.849  48.633  0.00  0.00    +0.000 C 
BRANCH  29  30
ATOM     30  C   UNL     1      -4.561  50.562  47.292  0.00  0.00    +0.000 C 
ATOM     31  C   UNL     1      -5.881  50.134  46.646  0.00  0.00    +0.000 C 
ATOM     32  C   UNL     1      -4.573  52.078  47.513  0.00  0.00    +0.000 C 
ENDBRANCH  29  30
ENDBRANCH  28  29
ENDBRANCH  19  28
ENDBRANCH   6  15
BRANCH  11  33
ATOM     33  N   UNL     1     -13.408  56.507  48.574  0.00  0.00    +0.000 N 
ATOM     34  H   UNL     1     -14.105  56.047  48.052  0.00  0.00    +0.000 HD
BRANCH  33  35
ATOM     35  S   UNL     1     -13.586  58.129  48.985  0.00  0.00    +0.000 S 
ATOM     36  O   UNL     1     -12.246  58.643  49.169  0.00  0.00    +0.000 OA
ATOM     37  O   UNL     1     -14.509  58.752  48.061  0.00  0.00    +0.000 OA
BRANCH  35  38
ATOM     38  C   UNL     1     -14.362  58.042  50.582  0.00  0.00    +0.000 A 
ATOM     39  C   UNL     1     -14.168  59.063  51.516  0.00  0.00    +0.000 A 
ATOM     40  C   UNL     1     -15.172  56.941  50.887  0.00  0.00    +0.000 A 
ATOM     41  C   UNL     1     -14.764  58.959  52.775  0.00  0.00    +0.000 A 
ATOM     42  C   UNL     1     -15.751  56.840  52.150  0.00  0.00    +0.000 A 
ATOM     43  C   UNL     1     -15.545  57.847  53.093  0.00  0.00    +0.000 A 
ENDBRANCH  35  38
ENDBRANCH  33  35
ENDBRANCH  11  33
TORSDOF 8
ENDMDL
MODEL 5
REMARK VINA RESULT:      -7.5      3.439      5.080
REMARK  Name = 353224
REMARK  10 active torsions:
REMARK  status: ('A' for Active; 'I' for Inactive)
REMARK    1  A    between atoms: C_6  and  C_10
REMARK    2  A    between atoms: C_12  and  N_16
REMARK    3  A    between atoms: C_14  and  O_19
REMARK    4  A    between atoms: N_16  and  S_21
REMARK    5  A    between atoms: N_18  and  C_23
REMARK    6  A    between atoms: S_21  and  C_27
REMARK    7  A    between atoms: C_23  and  C_29
REMARK    8  A    between atoms: C_29  and  C_34
REMARK    9  A    between atoms: C_34  and  C_37
REMARK   10  A    between atoms: C_34  and  C_38
REMARK                            x       y       z     vdW  Elec       q    Type
REMARK                         _______ _______ _______ _____ _____    ______ ____
ROOT
ATOM      1  S   UNL     1     -11.801  52.670  50.256  0.00  0.00    +0.000 S 
ATOM      2  O   UNL     1     -12.662  52.707  51.418  0.00  0.00    +0.000 OA
ATOM      3  O   UNL     1     -12.223  51.996  49.044  0.00  0.00    +0.000 OA
ATOM      4  N   UNL     1     -10.384  52.036  50.711  0.00  0.00    +0.000 N 
ATOM      5  C   UNL     1     -11.529  54.343  49.796  0.00  0.00    +0.000 A 
ATOM      6  C   UNL     1      -9.317  52.769  50.822  0.00  0.00    +0.000 C 
ATOM      7  C   UNL     1     -10.265  54.872  50.017  0.00  0.00    +0.000 A 
ATOM      8  C   UNL     1     -12.563  55.088  49.222  0.00  0.00    +0.000 A 
ATOM      9  N   UNL     1      -9.253  54.127  50.615  0.00  0.00    +0.000 N 
ATOM     10  C   UNL     1     -10.044  56.212  49.700  0.00  0.00    +0.000 A 
ATOM     11  C   UNL     1     -12.312  56.415  48.895  0.00  0.00    +0.000 A 
ATOM     12  C   UNL     1     -11.058  56.973  49.122  0.00  0.00    +0.000 A 
ATOM     13  H   UNL     1     -10.329  51.073  50.909  0.00  0.00    +0.000 HD
ATOM     14  H   UNL     1      -8.442  54.601  50.907  0.00  0.00    +0.000 HD
ENDROOT
BRANCH   6  15
ATOM     15  C   UNL     1      -8.038  52.040  51.176  0.00  0.00    +0.000 A 
ATOM     16  C   UNL     1      -7.394  52.284  52.507  0.00  0.00    +0.000 A 
ATOM     17  C   UNL     1      -7.485  51.170  50.314  0.00  0.00    +0.000 A 
ATOM     18  O   UNL     1      -7.985  52.995  53.327  0.00  0.00    +0.000 OA
ATOM     19  N   UNL     1      -6.172  51.698  52.762  0.00  0.00    +0.000 N 
ATOM     20  C   UNL     1      -6.204  50.536  50.631  0.00  0.00    +0.000 A 
ATOM     21  C   UNL     1      -5.547  50.833  51.828  0.00  0.00    +0.000 A 
ATOM     22  C   UNL     1      -5.573  49.666  49.733  0.00  0.00    +0.000 A 
ATOM     23  N   UNL     1      -4.331  50.322  52.137  0.00  0.00    +0.000 NA
ATOM     24  C   UNL     1      -4.325  49.141  50.036  0.00  0.00    +0.000 A 
ATOM     25  C   UNL     1      -3.748  49.498  51.239  0.00  0.00    +0.000 A 
BRANCH  17  26
ATOM     26  O   UNL     1      -8.020  50.825  49.086  0.00  0.00    +0.000 OA
ATOM     27  H   UNL     1      -8.611  50.101  49.020  0.00  0.00    +0.000 HD
ENDBRANCH  17  26
BRANCH  19  28
ATOM     28  C   UNL     1      -5.466  52.002  54.010  0.00  0.00    +0.000 C 
BRANCH  28  29
ATOM     29  C   UNL     1      -5.224  53.510  54.173  0.00  0.00    +0.000 C 
BRANCH  29  30
ATOM     30  C   UNL     1      -3.820  53.984  53.749  0.00  0.00    +0.000 C 
ATOM     31  C   UNL     1      -3.623  53.970  52.231  0.00  0.00    +0.000 C 
ATOM     32  C   UNL     1      -3.576  55.400  54.279  0.00  0.00    +0.000 C 
ENDBRANCH  29  30
ENDBRANCH  28  29
ENDBRANCH  19  28
ENDBRANCH   6  15
BRANCH  11  33
ATOM     33  N   UNL     1     -13.325  57.245  48.363  0.00  0.00    +0.000 N 
ATOM     34  H   UNL     1     -13.773  57.002  47.522  0.00  0.00    +0.000 HD
BRANCH  33  35
ATOM     35  S   UNL     1     -13.757  58.653  49.179  0.00  0.00    +0.000 S 
ATOM     36  O   UNL     1     -12.514  59.293  49.556  0.00  0.00    +0.000 OA
ATOM     37  O   UNL     1     -14.759  59.356  48.409  0.00  0.00    +0.000 OA
BRANCH  35  38
ATOM     38  C   UNL     1     -14.520  58.027  50.658  0.00  0.00    +0.000 A 
ATOM     39  C   UNL     1     -15.499  57.033  50.578  0.00  0.00    +0.000 A 
ATOM     40  C   UNL     1     -14.123  58.540  51.898  0.00  0.00    +0.000 A 
ATOM     41  C   UNL     1     -16.106  56.577  51.751  0.00  0.00    +0.000 A 
ATOM     42  C   UNL     1     -14.744  58.089  53.062  0.00  0.00    +0.000 A 
ATOM     43  C   UNL     1     -15.735  57.110  52.986  0.00  0.00    +0.000 A 
ENDBRANCH  35  38
ENDBRANCH  33  35
ENDBRANCH  11  33
TORSDOF 8
ENDMDL
MODEL 6
REMARK VINA RESULT:      -7.5      3.746      9.250
REMARK  Name = 353224
REMARK  10 active torsions:
REMARK  status: ('A' for Active; 'I' for Inactive)
REMARK    1  A    between atoms: C_6  and  C_10
REMARK    2  A    between atoms: C_12  and  N_16
REMARK    3  A    between atoms: C_14  and  O_19
REMARK    4  A    between atoms: N_16  and  S_21
REMARK    5  A    between atoms: N_18  and  C_23
REMARK    6  A    between atoms: S_21  and  C_27
REMARK    7  A    between atoms: C_23  and  C_29
REMARK    8  A    between atoms: C_29  and  C_34
REMARK    9  A    between atoms: C_34  and  C_37
REMARK   10  A    between atoms: C_34  and  C_38
REMARK                            x       y       z     vdW  Elec       q    Type
REMARK                         _______ _______ _______ _____ _____    ______ ____
ROOT
ATOM      1  S   UNL     1      -8.223  55.128  52.968  0.00  0.00    +0.000 S 
ATOM      2  O   UNL     1      -8.839  55.229  54.274  0.00  0.00    +0.000 OA
ATOM      3  O   UNL     1      -6.999  55.844  52.671  0.00  0.00    +0.000 OA
ATOM      4  N   UNL     1      -9.329  55.554  51.867  0.00  0.00    +0.000 N 
ATOM      5  C   UNL     1      -7.846  53.428  52.736  0.00  0.00    +0.000 A 
ATOM      6  C   UNL     1      -9.885  54.673  51.089  0.00  0.00    +0.000 C 
ATOM      7  C   UNL     1      -8.604  52.723  51.811  0.00  0.00    +0.000 A 
ATOM      8  C   UNL     1      -6.809  52.836  53.463  0.00  0.00    +0.000 A 
ATOM      9  N   UNL     1      -9.651  53.319  51.115  0.00  0.00    +0.000 N 
ATOM     10  C   UNL     1      -8.348  51.362  51.648  0.00  0.00    +0.000 A 
ATOM     11  C   UNL     1      -6.560  51.483  53.267  0.00  0.00    +0.000 A 
ATOM     12  C   UNL     1      -7.317  50.750  52.357  0.00  0.00    +0.000 A 
ATOM     13  H   UNL     1      -9.587  56.500  51.785  0.00  0.00    +0.000 HD
ATOM     14  H   UNL     1     -10.262  52.734  50.612  0.00  0.00    +0.000 HD
ENDROOT
BRANCH   6  15
ATOM     15  C   UNL     1     -10.843  55.212  50.047  0.00  0.00    +0.000 A 
ATOM     16  C   UNL     1     -10.631  54.870  48.603  0.00  0.00    +0.000 A 
ATOM     17  C   UNL     1     -11.886  55.979  50.407  0.00  0.00    +0.000 A 
ATOM     18  O   UNL     1      -9.738  54.066  48.312  0.00  0.00    +0.000 OA
ATOM     19  N   UNL     1     -11.445  55.463  47.662  0.00  0.00    +0.000 N 
ATOM     20  C   UNL     1     -12.755  56.565  49.384  0.00  0.00    +0.000 A 
ATOM     21  C   UNL     1     -12.504  56.331  48.029  0.00  0.00    +0.000 A 
ATOM     22  C   UNL     1     -13.816  57.413  49.720  0.00  0.00    +0.000 A 
ATOM     23  N   UNL     1     -13.241  56.902  47.045  0.00  0.00    +0.000 NA
ATOM     24  C   UNL     1     -14.574  58.007  48.720  0.00  0.00    +0.000 A 
ATOM     25  C   UNL     1     -14.247  57.725  47.408  0.00  0.00    +0.000 A 
BRANCH  17  26
ATOM     26  O   UNL     1     -12.211  56.311  51.710  0.00  0.00    +0.000 OA
ATOM     27  H   UNL     1     -12.887  56.937  51.878  0.00  0.00    +0.000 HD
ENDBRANCH  17  26
BRANCH  19  28
ATOM     28  C   UNL     1     -11.194  55.234  46.235  0.00  0.00    +0.000 C 
BRANCH  28  29
ATOM     29  C   UNL     1     -11.851  53.936  45.745  0.00  0.00    +0.000 C 
BRANCH  29  30
ATOM     30  C   UNL     1     -11.051  53.183  44.663  0.00  0.00    +0.000 C 
ATOM     31  C   UNL     1      -9.541  53.402  44.780  0.00  0.00    +0.000 C 
ATOM     32  C   UNL     1     -11.354  51.684  44.752  0.00  0.00    +0.000 C 
ENDBRANCH  29  30
ENDBRANCH  28  29
ENDBRANCH  19  28
ENDBRANCH   6  15
BRANCH  11  33
ATOM     33  N   UNL     1      -5.565  50.804  54.006  0.00  0.00    +0.000 N 
ATOM     34  H   UNL     1      -5.803  50.325  54.832  0.00  0.00    +0.000 HD
BRANCH  33  35
ATOM     35  S   UNL     1      -3.972  50.819  53.462  0.00  0.00    +0.000 S 
ATOM     36  O   UNL     1      -3.461  52.139  53.767  0.00  0.00    +0.000 OA
ATOM     37  O   UNL     1      -3.301  49.628  53.933  0.00  0.00    +0.000 OA
BRANCH  35  38
ATOM     38  C   UNL     1      -4.161  50.699  51.699  0.00  0.00    +0.000 A 
ATOM     39  C   UNL     1      -4.364  49.455  51.095  0.00  0.00    +0.000 A 
ATOM     40  C   UNL     1      -4.109  51.867  50.928  0.00  0.00    +0.000 A 
ATOM     41  C   UNL     1      -4.481  49.382  49.706  0.00  0.00    +0.000 A 
ATOM     42  C   UNL     1      -4.212  51.782  49.540  0.00  0.00    +0.000 A 
ATOM     43  C   UNL     1      -4.396  50.540  48.931  0.00  0.00    +0.000 A 
ENDBRANCH  35  38
ENDBRANCH  33  35
ENDBRANCH  11  33
TORSDOF 8
ENDMDL
MODEL 7
REMARK VINA RESULT:      -7.5      1.257      3.229
REMARK  Name = 353224
REMARK  10 active torsions:
REMARK  status: ('A' for Active; 'I' for Inactive)
REMARK    1  A    between atoms: C_6  and  C_10
REMARK    2  A    between atoms: C_12  and  N_16
REMARK    3  A    between atoms: C_14  and  O_19
REMARK    4  A    between atoms: N_16  and  S_21
REMARK    5  A    between atoms: N_18  and  C_23
REMARK    6  A    between atoms: S_21  and  C_27
REMARK    7  A    between atoms: C_23  and  C_29
REMARK    8  A    between atoms: C_29  and  C_34
REMARK    9  A    between atoms: C_34  and  C_37
REMARK   10  A    between atoms: C_34  and  C_38
REMARK                            x       y       z     vdW  Elec       q    Type
REMARK                         _______ _______ _______ _____ _____    ______ ____
ROOT
ATOM      1  S   UNL     1     -10.683  54.987  50.050  0.00  0.00    +0.000 S 
ATOM      2  O   UNL     1      -9.822  56.016  50.591  0.00  0.00    +0.000 OA
ATOM      3  O   UNL     1     -11.652  54.315  50.894  0.00  0.00    +0.000 OA
ATOM      4  N   UNL     1      -9.741  53.858  49.377  0.00  0.00    +0.000 N 
ATOM      5  C   UNL     1     -11.617  55.753  48.775  0.00  0.00    +0.000 A 
ATOM      6  C   UNL     1      -9.658  53.726  48.086  0.00  0.00    +0.000 C 
ATOM      7  C   UNL     1     -11.320  55.404  47.465  0.00  0.00    +0.000 A 
ATOM      8  C   UNL     1     -12.623  56.670  49.097  0.00  0.00    +0.000 A 
ATOM      9  N   UNL     1     -10.298  54.511  47.157  0.00  0.00    +0.000 N 
ATOM     10  C   UNL     1     -12.020  56.036  46.437  0.00  0.00    +0.000 A 
ATOM     11  C   UNL     1     -13.320  57.270  48.057  0.00  0.00    +0.000 A 
ATOM     12  C   UNL     1     -13.030  56.949  46.734  0.00  0.00    +0.000 A 
ATOM     13  H   UNL     1      -9.219  53.258  49.957  0.00  0.00    +0.000 HD
ATOM     14  H   UNL     1     -10.016  54.438  46.217  0.00  0.00    +0.000 HD
ENDROOT
BRANCH   6  15
ATOM     15  C   UNL     1      -8.806  52.578  47.585  0.00  0.00    +0.000 A 
ATOM     16  C   UNL     1      -7.694  52.056  48.442  0.00  0.00    +0.000 A 
ATOM     17  C   UNL     1      -9.048  52.018  46.388  0.00  0.00    +0.000 A 
ATOM     18  O   UNL     1      -7.569  52.507  49.586  0.00  0.00    +0.000 OA
ATOM     19  N   UNL     1      -6.860  51.090  47.919  0.00  0.00    +0.000 N 
ATOM     20  C   UNL     1      -8.166  50.968  45.876  0.00  0.00    +0.000 A 
ATOM     21  C   UNL     1      -7.066  50.543  46.627  0.00  0.00    +0.000 A 
ATOM     22  C   UNL     1      -8.356  50.401  44.610  0.00  0.00    +0.000 A 
ATOM     23  N   UNL     1      -6.185  49.621  46.169  0.00  0.00    +0.000 NA
ATOM     24  C   UNL     1      -7.457  49.459  44.129  0.00  0.00    +0.000 A 
ATOM     25  C   UNL     1      -6.394  49.107  44.938  0.00  0.00    +0.000 A 
BRANCH  17  26
ATOM     26  O   UNL     1     -10.080  52.378  45.540  0.00  0.00    +0.000 OA
ATOM     27  H   UNL     1     -10.970  52.289  45.821  0.00  0.00    +0.000 HD
ENDBRANCH  17  26
BRANCH  19  28
ATOM     28  C   UNL     1      -5.698  50.637  48.690  0.00  0.00    +0.000 C 
BRANCH  28  29
ATOM     29  C   UNL     1      -4.496  51.575  48.512  0.00  0.00    +0.000 C 
BRANCH  29  30
ATOM     30  C   UNL     1      -4.050  52.295  49.800  0.00  0.00    +0.000 C 
ATOM     31  C   UNL     1      -4.540  53.743  49.871  0.00  0.00    +0.000 C 
ATOM     32  C   UNL     1      -4.563  51.526  51.022  0.00  0.00    +0.000 C 
ENDBRANCH  29  30
ENDBRANCH  28  29
ENDBRANCH  19  28
ENDBRANCH   6  15
BRANCH  11  33
ATOM     33  N   UNL     1     -14.311  58.247  48.303  0.00  0.00    +0.000 N 
ATOM     34  H   UNL     1     -15.140  58.256  47.772  0.00  0.00    +0.000 HD
BRANCH  33  35
ATOM     35  S   UNL     1     -14.065  59.392  49.512  0.00  0.00    +0.000 S 
ATOM     36  O   UNL     1     -12.630  59.518  49.654  0.00  0.00    +0.000 OA
ATOM     37  O   UNL     1     -14.896  60.546  49.245  0.00  0.00    +0.000 OA
BRANCH  35  38
ATOM     38  C   UNL     1     -14.688  58.571  50.960  0.00  0.00    +0.000 A 
ATOM     39  C   UNL     1     -14.410  59.079  52.232  0.00  0.00    +0.000 A 
ATOM     40  C   UNL     1     -15.464  57.416  50.806  0.00  0.00    +0.000 A 
ATOM     41  C   UNL     1     -14.886  58.401  53.356  0.00  0.00    +0.000 A 
ATOM     42  C   UNL     1     -15.922  56.738  51.934  0.00  0.00    +0.000 A 
ATOM     43  C   UNL     1     -15.631  57.230  53.207  0.00  0.00    +0.000 A 
ENDBRANCH  35  38
ENDBRANCH  33  35
ENDBRANCH  11  33
TORSDOF 8
ENDMDL
MODEL 8
REMARK VINA RESULT:      -7.3      2.141      2.672
REMARK  Name = 353224
REMARK  10 active torsions:
REMARK  status: ('A' for Active; 'I' for Inactive)
REMARK    1  A    between atoms: C_6  and  C_10
REMARK    2  A    between atoms: C_12  and  N_16
REMARK    3  A    between atoms: C_14  and  O_19
REMARK    4  A    between atoms: N_16  and  S_21
REMARK    5  A    between atoms: N_18  and  C_23
REMARK    6  A    between atoms: S_21  and  C_27
REMARK    7  A    between atoms: C_23  and  C_29
REMARK    8  A    between atoms: C_29  and  C_34
REMARK    9  A    between atoms: C_34  and  C_37
REMARK   10  A    between atoms: C_34  and  C_38
REMARK                            x       y       z     vdW  Elec       q    Type
REMARK                         _______ _______ _______ _____ _____    ______ ____
ROOT
ATOM      1  S   UNL     1      -9.850  53.830  52.081  0.00  0.00    +0.000 S 
ATOM      2  O   UNL     1      -9.253  55.016  52.655  0.00  0.00    +0.000 OA
ATOM      3  O   UNL     1     -10.370  52.779  52.933  0.00  0.00    +0.000 OA
ATOM      4  N   UNL     1      -8.767  53.168  51.079  0.00  0.00    +0.000 N 
ATOM      5  C   UNL     1     -11.215  54.383  51.124  0.00  0.00    +0.000 A 
ATOM      6  C   UNL     1      -8.914  53.224  49.788  0.00  0.00    +0.000 C 
ATOM      7  C   UNL     1     -11.102  54.309  49.743  0.00  0.00    +0.000 A 
ATOM      8  C   UNL     1     -12.364  54.866  51.758  0.00  0.00    +0.000 A 
ATOM      9  N   UNL     1      -9.941  53.852  49.125  0.00  0.00    +0.000 N 
ATOM     10  C   UNL     1     -12.158  54.787  48.966  0.00  0.00    +0.000 A 
ATOM     11  C   UNL     1     -13.411  55.316  50.963  0.00  0.00    +0.000 A 
ATOM     12  C   UNL     1     -13.315  55.268  49.575  0.00  0.00    +0.000 A 
ATOM     13  H   UNL     1      -7.978  52.714  51.454  0.00  0.00    +0.000 HD
ATOM     14  H   UNL     1      -9.851  53.989  48.155  0.00  0.00    +0.000 HD
ENDROOT
BRANCH   6  15
ATOM     15  C   UNL     1      -7.874  52.495  48.964  0.00  0.00    +0.000 A 
ATOM     16  C   UNL     1      -8.312  51.617  47.832  0.00  0.00    +0.000 A 
ATOM     17  C   UNL     1      -6.564  52.640  49.230  0.00  0.00    +0.000 A 
ATOM     18  O   UNL     1      -9.511  51.595  47.532  0.00  0.00    +0.000 OA
ATOM     19  N   UNL     1      -7.357  50.874  47.169  0.00  0.00    +0.000 N 
ATOM     20  C   UNL     1      -5.572  51.865  48.483  0.00  0.00    +0.000 A 
ATOM     21  C   UNL     1      -5.980  50.968  47.491  0.00  0.00    +0.000 A 
ATOM     22  C   UNL     1      -4.205  51.951  48.771  0.00  0.00    +0.000 A 
ATOM     23  N   UNL     1      -5.105  50.183  46.818  0.00  0.00    +0.000 NA
ATOM     24  C   UNL     1      -3.300  51.147  48.091  0.00  0.00    +0.000 A 
ATOM     25  C   UNL     1      -3.796  50.284  47.133  0.00  0.00    +0.000 A 
BRANCH  17  26
ATOM     26  O   UNL     1      -6.043  53.466  50.210  0.00  0.00    +0.000 OA
ATOM     27  H   UNL     1      -6.435  53.487  51.061  0.00  0.00    +0.000 HD
ENDBRANCH  17  26
BRANCH  19  28
ATOM     28  C   UNL     1      -7.766  49.925  46.129  0.00  0.00    +0.000 C 
BRANCH  28  29
ATOM     29  C   UNL     1      -7.668  50.541  44.727  0.00  0.00    +0.000 C 
BRANCH  29  30
ATOM     30  C   UNL     1      -8.987  51.135  44.193  0.00  0.00    +0.000 C 
ATOM     31  C   UNL     1      -8.912  52.647  43.976  0.00  0.00    +0.000 C 
ATOM     32  C   UNL     1      -9.360  50.451  42.874  0.00  0.00    +0.000 C 
ENDBRANCH  29  30
ENDBRANCH  28  29
ENDBRANCH  19  28
ENDBRANCH   6  15
BRANCH  11  33
ATOM     33  N   UNL     1     -14.581  55.868  51.531  0.00  0.00    +0.000 N 
ATOM     34  H   UNL     1     -15.455  55.443  51.377  0.00  0.00    +0.000 HD
BRANCH  33  35
ATOM     35  S   UNL     1     -14.468  57.258  52.474  0.00  0.00    +0.000 S 
ATOM     36  O   UNL     1     -15.729  57.364  53.178  0.00  0.00    +0.000 OA
ATOM     37  O   UNL     1     -13.209  57.246  53.186  0.00  0.00    +0.000 OA
BRANCH  35  38
ATOM     38  C   UNL     1     -14.412  58.551  51.255  0.00  0.00    +0.000 A 
ATOM     39  C   UNL     1     -15.513  59.392  51.069  0.00  0.00    +0.000 A 
ATOM     40  C   UNL     1     -13.250  58.716  50.491  0.00  0.00    +0.000 A 
ATOM     41  C   UNL     1     -15.457  60.381  50.086  0.00  0.00    +0.000 A 
ATOM     42  C   UNL     1     -13.209  59.698  49.502  0.00  0.00    +0.000 A 
ATOM     43  C   UNL     1     -14.312  60.527  49.300  0.00  0.00    +0.000 A 
ENDBRANCH  35  38
ENDBRANCH  33  35
ENDBRANCH  11  33
TORSDOF 8
ENDMDL
MODEL 9
REMARK VINA RESULT:      -7.2      2.799      3.974
REMARK  Name = 353224
REMARK  10 active torsions:
REMARK  status: ('A' for Active; 'I' for Inactive)
REMARK    1  A    between atoms: C_6  and  C_10
REMARK    2  A    between atoms: C_12  and  N_16
REMARK    3  A    between atoms: C_14  and  O_19
REMARK    4  A    between atoms: N_16  and  S_21
REMARK    5  A    between atoms: N_18  and  C_23
REMARK    6  A    between atoms: S_21  and  C_27
REMARK    7  A    between atoms: C_23  and  C_29
REMARK    8  A    between atoms: C_29  and  C_34
REMARK    9  A    between atoms: C_34  and  C_37
REMARK   10  A    between atoms: C_34  and  C_38
REMARK                            x       y       z     vdW  Elec       q    Type
REMARK                         _______ _______ _______ _____ _____    ______ ____
ROOT
ATOM      1  S   UNL     1      -9.858  54.466  46.329  0.00  0.00    +0.000 S 
ATOM      2  O   UNL     1     -10.589  53.821  45.260  0.00  0.00    +0.000 OA
ATOM      3  O   UNL     1      -9.227  55.754  46.120  0.00  0.00    +0.000 OA
ATOM      4  N   UNL     1      -8.724  53.434  46.844  0.00  0.00    +0.000 N 
ATOM      5  C   UNL     1     -11.010  54.709  47.633  0.00  0.00    +0.000 A 
ATOM      6  C   UNL     1      -8.826  52.831  47.991  0.00  0.00    +0.000 C 
ATOM      7  C   UNL     1     -10.868  53.924  48.768  0.00  0.00    +0.000 A 
ATOM      8  C   UNL     1     -12.017  55.671  47.506  0.00  0.00    +0.000 A 
ATOM      9  N   UNL     1      -9.878  52.952  48.869  0.00  0.00    +0.000 N 
ATOM     10  C   UNL     1     -11.802  54.071  49.794  0.00  0.00    +0.000 A 
ATOM     11  C   UNL     1     -12.922  55.813  48.551  0.00  0.00    +0.000 A 
ATOM     12  C   UNL     1     -12.811  55.027  49.694  0.00  0.00    +0.000 A 
ATOM     13  H   UNL     1      -7.939  53.258  46.276  0.00  0.00    +0.000 HD
ATOM     14  H   UNL     1      -9.934  52.311  49.613  0.00  0.00    +0.000 HD
ENDROOT
BRANCH   6  15
ATOM     15  C   UNL     1      -7.659  51.954  48.393  0.00  0.00    +0.000 A 
ATOM     16  C   UNL     1      -7.617  51.368  49.771  0.00  0.00    +0.000 A 
ATOM     17  C   UNL     1      -6.672  51.687  47.521  0.00  0.00    +0.000 A 
ATOM     18  O   UNL     1      -8.593  51.529  50.511  0.00  0.00    +0.000 OA
ATOM     19  N   UNL     1      -6.490  50.668  50.152  0.00  0.00    +0.000 N 
ATOM     20  C   UNL     1      -5.506  50.909  47.946  0.00  0.00    +0.000 A 
ATOM     21  C   UNL     1      -5.412  50.442  49.260  0.00  0.00    +0.000 A 
ATOM     22  C   UNL     1      -4.435  50.659  47.080  0.00  0.00    +0.000 A 
ATOM     23  N   UNL     1      -4.326  49.774  49.718  0.00  0.00    +0.000 NA
ATOM     24  C   UNL     1      -3.315  49.979  47.540  0.00  0.00    +0.000 A 
ATOM     25  C   UNL     1      -3.307  49.563  48.857  0.00  0.00    +0.000 A 
BRANCH  17  26
ATOM     26  O   UNL     1      -6.635  52.125  46.209  0.00  0.00    +0.000 OA
ATOM     27  H   UNL     1      -5.811  52.291  45.794  0.00  0.00    +0.000 HD
ENDBRANCH  17  26
BRANCH  19  28
ATOM     28  C   UNL     1      -6.372  50.175  51.528  0.00  0.00    +0.000 C 
BRANCH  28  29
ATOM     29  C   UNL     1      -5.964  51.292  52.498  0.00  0.00    +0.000 C 
BRANCH  29  30
ATOM     30  C   UNL     1      -7.057  51.694  53.509  0.00  0.00    +0.000 C 
ATOM     31  C   UNL     1      -8.233  50.716  53.531  0.00  0.00    +0.000 C 
ATOM     32  C   UNL     1      -6.448  51.786  54.912  0.00  0.00    +0.000 C 
ENDBRANCH  29  30
ENDBRANCH  28  29
ENDBRANCH  19  28
ENDBRANCH   6  15
BRANCH  11  33
ATOM     33  N   UNL     1     -13.998  56.725  48.472  0.00  0.00    +0.000 N 
ATOM     34  H   UNL     1     -14.855  56.446  48.076  0.00  0.00    +0.000 HD
BRANCH  33  35
ATOM     35  S   UNL     1     -13.805  58.290  49.059  0.00  0.00    +0.000 S 
ATOM     36  O   UNL     1     -12.377  58.493  49.188  0.00  0.00    +0.000 OA
ATOM     37  O   UNL     1     -14.623  59.192  48.278  0.00  0.00    +0.000 OA
BRANCH  35  38
ATOM     38  C   UNL     1     -14.492  58.180  50.694  0.00  0.00    +0.000 A 
ATOM     39  C   UNL     1     -14.310  59.223  51.606  0.00  0.00    +0.000 A 
ATOM     40  C   UNL     1     -15.220  57.038  51.051  0.00  0.00    +0.000 A 
ATOM     41  C   UNL     1     -14.834  59.102  52.895  0.00  0.00    +0.000 A 
ATOM     42  C   UNL     1     -15.727  56.920  52.344  0.00  0.00    +0.000 A 
ATOM     43  C   UNL     1     -15.532  57.950  53.264  0.00  0.00    +0.000 A 
ENDBRANCH  35  38
ENDBRANCH  33  35
ENDBRANCH  11  33
TORSDOF 8
ENDMDL
