MODEL 1
REMARK VINA RESULT:      -8.3      0.000      0.000
REMARK  Name = 302306
REMARK  7 active torsions:
REMARK  status: ('A' for Active; 'I' for Inactive)
REMARK    1  A    between atoms: C_6  and  C_10
REMARK    2  A    between atoms: C_14  and  O_18
REMARK    3  A    between atoms: N_17  and  C_21
REMARK    4  A    between atoms: C_21  and  C_24
REMARK    5  A    between atoms: C_24  and  C_27
REMARK    6  A    between atoms: C_27  and  C_28
REMARK    7  A    between atoms: C_27  and  C_29
REMARK                            x       y       z     vdW  Elec       q    Type
REMARK                         _______ _______ _______ _____ _____    ______ ____
ROOT
ATOM      1  C   UNL     1      -9.993  54.370  52.470  0.00  0.00    +0.000 A 
ATOM      2  C   UNL     1      -8.619  54.970  52.413  0.00  0.00    +0.000 A 
ATOM      3  C   UNL     1     -10.215  53.280  53.226  0.00  0.00    +0.000 A 
ATOM      4  O   UNL     1      -8.463  56.025  51.797  0.00  0.00    +0.000 OA
ATOM      5  N   UNL     1      -7.593  54.315  53.063  0.00  0.00    +0.000 N 
ATOM      6  C   UNL     1      -9.104  52.625  53.921  0.00  0.00    +0.000 A 
ATOM      7  C   UNL     1      -7.806  53.129  53.807  0.00  0.00    +0.000 A 
ATOM      8  C   UNL     1      -9.291  51.460  54.677  0.00  0.00    +0.000 A 
ATOM      9  N   UNL     1      -6.736  52.528  54.384  0.00  0.00    +0.000 NA
ATOM     10  C   UNL     1      -8.201  50.833  55.268  0.00  0.00    +0.000 A 
ATOM     11  C   UNL     1      -6.955  51.399  55.093  0.00  0.00    +0.000 A 
ENDROOT
BRANCH   1  17
ATOM     12  S   UNL     1     -12.122  55.668  49.439  0.00  0.00    +0.000 S 
ATOM     13  O   UNL     1     -12.932  54.631  48.835  0.00  0.00    +0.000 OA
ATOM     14  O   UNL     1     -11.422  56.626  48.604  0.00  0.00    +0.000 OA
ATOM     15  N   UNL     1     -11.033  54.949  50.395  0.00  0.00    +0.000 N 
ATOM     16  C   UNL     1     -13.203  56.610  50.452  0.00  0.00    +0.000 A 
ATOM     17  C   UNL     1     -11.119  55.019  51.690  0.00  0.00    +0.000 C 
ATOM     18  C   UNL     1     -13.065  56.497  51.825  0.00  0.00    +0.000 A 
ATOM     19  C   UNL     1     -14.153  57.454  49.868  0.00  0.00    +0.000 A 
ATOM     20  N   UNL     1     -12.119  55.647  52.397  0.00  0.00    +0.000 N 
ATOM     21  C   UNL     1     -13.959  57.199  52.640  0.00  0.00    +0.000 A 
ATOM     22  C   UNL     1     -15.013  58.175  50.692  0.00  0.00    +0.000 A 
ATOM     23  C   UNL     1     -14.922  58.042  52.077  0.00  0.00    +0.000 A 
ATOM     24  H   UNL     1     -10.290  54.447  49.987  0.00  0.00    +0.000 HD
ATOM     25  H   UNL     1     -12.171  55.486  53.366  0.00  0.00    +0.000 HD
ENDBRANCH   1  17
BRANCH   3  26
ATOM     26  O   UNL     1     -11.448  52.677  53.398  0.00  0.00    +0.000 OA
ATOM     27  H   UNL     1     -12.194  52.992  52.928  0.00  0.00    +0.000 HD
ENDBRANCH   3  26
BRANCH   5  28
ATOM     28  C   UNL     1      -6.223  54.830  52.952  0.00  0.00    +0.000 C 
BRANCH  28  29
ATOM     29  C   UNL     1      -5.508  54.273  51.713  0.00  0.00    +0.000 C 
BRANCH  29  30
ATOM     30  C   UNL     1      -3.994  54.053  51.900  0.00  0.00    +0.000 C 
ATOM     31  C   UNL     1      -3.506  54.454  53.292  0.00  0.00    +0.000 C 
ATOM     32  C   UNL     1      -3.659  52.579  51.649  0.00  0.00    +0.000 C 
ENDBRANCH  29  30
ENDBRANCH  28  29
ENDBRANCH   5  28
TORSDOF 5
ENDMDL
MODEL 2
REMARK VINA RESULT:      -8.1      4.050      5.059
REMARK  Name = 302306
REMARK  7 active torsions:
REMARK  status: ('A' for Active; 'I' for Inactive)
REMARK    1  A    between atoms: C_6  and  C_10
REMARK    2  A    between atoms: C_14  and  O_18
REMARK    3  A    between atoms: N_17  and  C_21
REMARK    4  A    between atoms: C_21  and  C_24
REMARK    5  A    between atoms: C_24  and  C_27
REMARK    6  A    between atoms: C_27  and  C_28
REMARK    7  A    between atoms: C_27  and  C_29
REMARK                            x       y       z     vdW  Elec       q    Type
REMARK                         _______ _______ _______ _____ _____    ______ ____
ROOT
ATOM      1  C   UNL     1     -12.291  54.231  50.116  0.00  0.00    +0.000 A 
ATOM      2  C   UNL     1     -11.997  53.897  48.684  0.00  0.00    +0.000 A 
ATOM      3  C   UNL     1     -11.806  53.451  51.098  0.00  0.00    +0.000 A 
ATOM      4  O   UNL     1     -12.364  54.681  47.809  0.00  0.00    +0.000 OA
ATOM      5  N   UNL     1     -11.318  52.726  48.414  0.00  0.00    +0.000 N 
ATOM      6  C   UNL     1     -11.069  52.227  50.773  0.00  0.00    +0.000 A 
ATOM      7  C   UNL     1     -10.861  51.864  49.440  0.00  0.00    +0.000 A 
ATOM      8  C   UNL     1     -10.593  51.366  51.769  0.00  0.00    +0.000 A 
ATOM      9  N   UNL     1     -10.235  50.714  49.086  0.00  0.00    +0.000 NA
ATOM     10  C   UNL     1      -9.955  50.183  51.418  0.00  0.00    +0.000 A 
ATOM     11  C   UNL     1      -9.803  49.903  50.075  0.00  0.00    +0.000 A 
ENDROOT
BRANCH   1  17
ATOM     12  S   UNL     1     -15.270  56.470  51.350  0.00  0.00    +0.000 S 
ATOM     13  O   UNL     1     -15.259  56.682  52.782  0.00  0.00    +0.000 OA
ATOM     14  O   UNL     1     -16.518  56.209  50.660  0.00  0.00    +0.000 OA
ATOM     15  N   UNL     1     -14.255  55.254  51.024  0.00  0.00    +0.000 N 
ATOM     16  C   UNL     1     -14.619  57.935  50.632  0.00  0.00    +0.000 A 
ATOM     17  C   UNL     1     -13.114  55.463  50.436  0.00  0.00    +0.000 C 
ATOM     18  C   UNL     1     -13.360  57.869  50.058  0.00  0.00    +0.000 A 
ATOM     19  C   UNL     1     -15.373  59.112  50.637  0.00  0.00    +0.000 A 
ATOM     20  N   UNL     1     -12.615  56.692  50.065  0.00  0.00    +0.000 N 
ATOM     21  C   UNL     1     -12.811  59.043  49.534  0.00  0.00    +0.000 A 
ATOM     22  C   UNL     1     -14.827  60.266  50.080  0.00  0.00    +0.000 A 
ATOM     23  C   UNL     1     -13.544  60.234  49.536  0.00  0.00    +0.000 A 
ATOM     24  H   UNL     1     -14.506  54.336  51.276  0.00  0.00    +0.000 HD
ATOM     25  H   UNL     1     -11.672  56.741  49.788  0.00  0.00    +0.000 HD
ENDBRANCH   1  17
BRANCH   3  26
ATOM     26  O   UNL     1     -11.965  53.693  52.451  0.00  0.00    +0.000 OA
ATOM     27  H   UNL     1     -12.532  54.381  52.741  0.00  0.00    +0.000 HD
ENDBRANCH   3  26
BRANCH   5  28
ATOM     28  C   UNL     1     -11.093  52.328  47.019  0.00  0.00    +0.000 C 
BRANCH  28  29
ATOM     29  C   UNL     1      -9.668  52.659  46.557  0.00  0.00    +0.000 C 
BRANCH  29  30
ATOM     30  C   UNL     1      -9.554  53.947  45.720  0.00  0.00    +0.000 C 
ATOM     31  C   UNL     1      -9.062  55.142  46.538  0.00  0.00    +0.000 C 
ATOM     32  C   UNL     1      -8.600  53.710  44.545  0.00  0.00    +0.000 C 
ENDBRANCH  29  30
ENDBRANCH  28  29
ENDBRANCH   5  28
TORSDOF 5
ENDMDL
MODEL 3
REMARK VINA RESULT:      -8.1      3.323      7.481
REMARK  Name = 302306
REMARK  7 active torsions:
REMARK  status: ('A' for Active; 'I' for Inactive)
REMARK    1  A    between atoms: C_6  and  C_10
REMARK    2  A    between atoms: C_14  and  O_18
REMARK    3  A    between atoms: N_17  and  C_21
REMARK    4  A    between atoms: C_21  and  C_24
REMARK    5  A    between atoms: C_24  and  C_27
REMARK    6  A    between atoms: C_27  and  C_28
REMARK    7  A    between atoms: C_27  and  C_29
REMARK                            x       y       z     vdW  Elec       q    Type
REMARK                         _______ _______ _______ _____ _____    ______ ____
ROOT
ATOM      1  C   UNL     1     -10.391  55.133  50.716  0.00  0.00    +0.000 A 
ATOM      2  C   UNL     1     -10.044  55.022  49.261  0.00  0.00    +0.000 A 
ATOM      3  C   UNL     1     -11.601  55.591  51.081  0.00  0.00    +0.000 A 
ATOM      4  O   UNL     1      -8.970  54.505  48.949  0.00  0.00    +0.000 OA
ATOM      5  N   UNL     1     -10.951  55.496  48.336  0.00  0.00    +0.000 N 
ATOM      6  C   UNL     1     -12.548  56.065  50.068  0.00  0.00    +0.000 A 
ATOM      7  C   UNL     1     -12.201  56.042  48.715  0.00  0.00    +0.000 A 
ATOM      8  C   UNL     1     -13.798  56.593  50.417  0.00  0.00    +0.000 A 
ATOM      9  N   UNL     1     -13.018  56.520  47.744  0.00  0.00    +0.000 NA
ATOM     10  C   UNL     1     -14.640  57.091  49.431  0.00  0.00    +0.000 A 
ATOM     11  C   UNL     1     -14.209  57.035  48.121  0.00  0.00    +0.000 A 
ENDROOT
BRANCH   1  17
ATOM     12  S   UNL     1      -7.061  54.978  52.789  0.00  0.00    +0.000 S 
ATOM     13  O   UNL     1      -6.996  55.986  53.826  0.00  0.00    +0.000 OA
ATOM     14  O   UNL     1      -5.890  54.679  51.987  0.00  0.00    +0.000 OA
ATOM     15  N   UNL     1      -8.265  55.379  51.785  0.00  0.00    +0.000 N 
ATOM     16  C   UNL     1      -7.494  53.476  53.591  0.00  0.00    +0.000 A 
ATOM     17  C   UNL     1      -9.375  54.703  51.756  0.00  0.00    +0.000 C 
ATOM     18  C   UNL     1      -8.764  52.968  53.370  0.00  0.00    +0.000 A 
ATOM     19  C   UNL     1      -6.564  52.824  54.406  0.00  0.00    +0.000 A 
ATOM     20  N   UNL     1      -9.685  53.631  52.561  0.00  0.00    +0.000 N 
ATOM     21  C   UNL     1      -9.137  51.804  54.049  0.00  0.00    +0.000 A 
ATOM     22  C   UNL     1      -6.937  51.646  55.047  0.00  0.00    +0.000 A 
ATOM     23  C   UNL     1      -8.225  51.140  54.875  0.00  0.00    +0.000 A 
ATOM     24  H   UNL     1      -8.154  56.152  51.185  0.00  0.00    +0.000 HD
ATOM     25  H   UNL     1     -10.616  53.312  52.567  0.00  0.00    +0.000 HD
ENDBRANCH   1  17
BRANCH   3  26
ATOM     26  O   UNL     1     -12.050  55.683  52.387  0.00  0.00    +0.000 OA
ATOM     27  H   UNL     1     -12.837  55.245  52.644  0.00  0.00    +0.000 HD
ENDBRANCH   3  26
BRANCH   5  28
ATOM     28  C   UNL     1     -10.602  55.482  46.910  0.00  0.00    +0.000 C 
BRANCH  28  29
ATOM     29  C   UNL     1     -11.153  54.236  46.204  0.00  0.00    +0.000 C 
BRANCH  29  30
ATOM     30  C   UNL     1     -10.081  53.369  45.517  0.00  0.00    +0.000 C 
ATOM     31  C   UNL     1     -10.513  52.881  44.133  0.00  0.00    +0.000 C 
ATOM     32  C   UNL     1      -8.781  54.171  45.390  0.00  0.00    +0.000 C 
ENDBRANCH  29  30
ENDBRANCH  28  29
ENDBRANCH   5  28
TORSDOF 5
ENDMDL
MODEL 4
REMARK VINA RESULT:      -8.0      2.056      2.721
REMARK  Name = 302306
REMARK  7 active torsions:
REMARK  status: ('A' for Active; 'I' for Inactive)
REMARK    1  A    between atoms: C_6  and  C_10
REMARK    2  A    between atoms: C_14  and  O_18
REMARK    3  A    between atoms: N_17  and  C_21
REMARK    4  A    between atoms: C_21  and  C_24
REMARK    5  A    between atoms: C_24  and  C_27
REMARK    6  A    between atoms: C_27  and  C_28
REMARK    7  A    between atoms: C_27  and  C_29
REMARK                            x       y       z     vdW  Elec       q    Type
REMARK                         _______ _______ _______ _____ _____    ______ ____
ROOT
ATOM      1  C   UNL     1     -11.419  53.820  51.530  0.00  0.00    +0.000 A 
ATOM      2  C   UNL     1     -10.426  53.968  52.645  0.00  0.00    +0.000 A 
ATOM      3  C   UNL     1     -11.582  52.626  50.934  0.00  0.00    +0.000 A 
ATOM      4  O   UNL     1     -10.367  55.043  53.243  0.00  0.00    +0.000 OA
ATOM      5  N   UNL     1      -9.628  52.885  52.955  0.00  0.00    +0.000 N 
ATOM      6  C   UNL     1     -10.732  51.492  51.307  0.00  0.00    +0.000 A 
ATOM      7  C   UNL     1      -9.747  51.643  52.287  0.00  0.00    +0.000 A 
ATOM      8  C   UNL     1     -10.842  50.249  50.672  0.00  0.00    +0.000 A 
ATOM      9  N   UNL     1      -8.899  50.642  52.628  0.00  0.00    +0.000 NA
ATOM     10  C   UNL     1      -9.974  49.218  51.010  0.00  0.00    +0.000 A 
ATOM     11  C   UNL     1      -9.026  49.462  51.984  0.00  0.00    +0.000 A 
ENDROOT
BRANCH   1  17
ATOM     12  S   UNL     1     -12.816  56.760  49.335  0.00  0.00    +0.000 S 
ATOM     13  O   UNL     1     -13.824  56.327  48.390  0.00  0.00    +0.000 OA
ATOM     14  O   UNL     1     -11.804  57.719  48.936  0.00  0.00    +0.000 OA
ATOM     15  N   UNL     1     -12.062  55.441  49.892  0.00  0.00    +0.000 N 
ATOM     16  C   UNL     1     -13.682  57.501  50.672  0.00  0.00    +0.000 A 
ATOM     17  C   UNL     1     -12.244  55.020  51.109  0.00  0.00    +0.000 C 
ATOM     18  C   UNL     1     -13.707  56.824  51.880  0.00  0.00    +0.000 A 
ATOM     19  C   UNL     1     -14.303  58.742  50.502  0.00  0.00    +0.000 A 
ATOM     20  N   UNL     1     -13.092  55.584  52.036  0.00  0.00    +0.000 N 
ATOM     21  C   UNL     1     -14.442  57.378  52.933  0.00  0.00    +0.000 A 
ATOM     22  C   UNL     1     -15.001  59.299  51.570  0.00  0.00    +0.000 A 
ATOM     23  C   UNL     1     -15.077  58.615  52.782  0.00  0.00    +0.000 A 
ATOM     24  H   UNL     1     -11.454  54.947  49.296  0.00  0.00    +0.000 HD
ATOM     25  H   UNL     1     -13.274  55.078  52.860  0.00  0.00    +0.000 HD
ENDBRANCH   1  17
BRANCH   3  26
ATOM     26  O   UNL     1     -12.506  52.360  49.938  0.00  0.00    +0.000 OA
ATOM     27  H   UNL     1     -12.569  51.498  49.577  0.00  0.00    +0.000 HD
ENDBRANCH   3  26
BRANCH   5  28
ATOM     28  C   UNL     1      -8.587  53.027  53.980  0.00  0.00    +0.000 C 
BRANCH  28  29
ATOM     29  C   UNL     1      -7.327  53.699  53.419  0.00  0.00    +0.000 C 
BRANCH  29  30
ATOM     30  C   UNL     1      -6.813  54.885  54.257  0.00  0.00    +0.000 C 
ATOM     31  C   UNL     1      -5.334  54.752  54.625  0.00  0.00    +0.000 C 
ATOM     32  C   UNL     1      -7.027  56.189  53.481  0.00  0.00    +0.000 C 
ENDBRANCH  29  30
ENDBRANCH  28  29
ENDBRANCH   5  28
TORSDOF 5
ENDMDL
MODEL 5
REMARK VINA RESULT:      -7.9      2.586      8.094
REMARK  Name = 302306
REMARK  7 active torsions:
REMARK  status: ('A' for Active; 'I' for Inactive)
REMARK    1  A    between atoms: C_6  and  C_10
REMARK    2  A    between atoms: C_14  and  O_18
REMARK    3  A    between atoms: N_17  and  C_21
REMARK    4  A    between atoms: C_21  and  C_24
REMARK    5  A    between atoms: C_24  and  C_27
REMARK    6  A    between atoms: C_27  and  C_28
REMARK    7  A    between atoms: C_27  and  C_29
REMARK                            x       y       z     vdW  Elec       q    Type
REMARK                         _______ _______ _______ _____ _____    ______ ____
ROOT
ATOM      1  C   UNL     1      -9.911  54.886  50.912  0.00  0.00    +0.000 A 
ATOM      2  C   UNL     1     -11.304  55.290  51.293  0.00  0.00    +0.000 A 
ATOM      3  C   UNL     1      -9.529  54.936  49.624  0.00  0.00    +0.000 A 
ATOM      4  O   UNL     1     -11.599  55.334  52.488  0.00  0.00    +0.000 OA
ATOM      5  N   UNL     1     -12.191  55.603  50.283  0.00  0.00    +0.000 N 
ATOM      6  C   UNL     1     -10.493  55.296  48.581  0.00  0.00    +0.000 A 
ATOM      7  C   UNL     1     -11.816  55.593  48.918  0.00  0.00    +0.000 A 
ATOM      8  C   UNL     1     -10.142  55.309  47.225  0.00  0.00    +0.000 A 
ATOM      9  N   UNL     1     -12.760  55.876  47.987  0.00  0.00    +0.000 NA
ATOM     10  C   UNL     1     -11.103  55.593  46.262  0.00  0.00    +0.000 A 
ATOM     11  C   UNL     1     -12.387  55.865  46.688  0.00  0.00    +0.000 A 
ENDROOT
BRANCH   1  17
ATOM     12  S   UNL     1      -6.654  54.675  53.094  0.00  0.00    +0.000 S 
ATOM     13  O   UNL     1      -6.586  55.709  54.105  0.00  0.00    +0.000 OA
ATOM     14  O   UNL     1      -5.470  54.315  52.338  0.00  0.00    +0.000 OA
ATOM     15  N   UNL     1      -7.812  55.089  52.042  0.00  0.00    +0.000 N 
ATOM     16  C   UNL     1      -7.163  53.211  53.920  0.00  0.00    +0.000 A 
ATOM     17  C   UNL     1      -8.943  54.451  51.995  0.00  0.00    +0.000 C 
ATOM     18  C   UNL     1      -8.442  52.741  53.672  0.00  0.00    +0.000 A 
ATOM     19  C   UNL     1      -6.282  52.550  54.781  0.00  0.00    +0.000 A 
ATOM     20  N   UNL     1      -9.314  53.411  52.818  0.00  0.00    +0.000 N 
ATOM     21  C   UNL     1      -8.876  51.608  54.369  0.00  0.00    +0.000 A 
ATOM     22  C   UNL     1      -6.715  51.403  55.440  0.00  0.00    +0.000 A 
ATOM     23  C   UNL     1      -8.014  50.937  55.241  0.00  0.00    +0.000 A 
ATOM     24  H   UNL     1      -7.656  55.841  51.426  0.00  0.00    +0.000 HD
ATOM     25  H   UNL     1     -10.256  53.125  52.802  0.00  0.00    +0.000 HD
ENDBRANCH   1  17
BRANCH   3  26
ATOM     26  O   UNL     1      -8.256  54.643  49.165  0.00  0.00    +0.000 OA
ATOM     27  H   UNL     1      -7.864  53.817  49.369  0.00  0.00    +0.000 HD
ENDBRANCH   3  26
BRANCH   5  28
ATOM     28  C   UNL     1     -13.586  55.915  50.619  0.00  0.00    +0.000 C 
BRANCH  28  29
ATOM     29  C   UNL     1     -13.771  57.403  50.946  0.00  0.00    +0.000 C 
BRANCH  29  30
ATOM     30  C   UNL     1     -15.157  57.760  51.517  0.00  0.00    +0.000 C 
ATOM     31  C   UNL     1     -16.230  56.734  51.150  0.00  0.00    +0.000 C 
ATOM     32  C   UNL     1     -15.066  57.875  53.043  0.00  0.00    +0.000 C 
ENDBRANCH  29  30
ENDBRANCH  28  29
ENDBRANCH   5  28
TORSDOF 5
ENDMDL
MODEL 6
REMARK VINA RESULT:      -7.7      3.178      4.902
REMARK  Name = 302306
REMARK  7 active torsions:
REMARK  status: ('A' for Active; 'I' for Inactive)
REMARK    1  A    between atoms: C_6  and  C_10
REMARK    2  A    between atoms: C_14  and  O_18
REMARK    3  A    between atoms: N_17  and  C_21
REMARK    4  A    between atoms: C_21  and  C_24
REMARK    5  A    between atoms: C_24  and  C_27
REMARK    6  A    between atoms: C_27  and  C_28
REMARK    7  A    between atoms: C_27  and  C_29
REMARK                            x       y       z     vdW  Elec       q    Type
REMARK                         _______ _______ _______ _____ _____    ______ ____
ROOT
ATOM      1  C   UNL     1     -11.241  55.812  49.058  0.00  0.00    +0.000 A 
ATOM      2  C   UNL     1     -10.300  55.170  50.033  0.00  0.00    +0.000 A 
ATOM      3  C   UNL     1     -11.158  55.509  47.751  0.00  0.00    +0.000 A 
ATOM      4  O   UNL     1     -10.461  55.384  51.235  0.00  0.00    +0.000 OA
ATOM      5  N   UNL     1      -9.300  54.359  49.537  0.00  0.00    +0.000 N 
ATOM      6  C   UNL     1     -10.096  54.625  47.264  0.00  0.00    +0.000 A 
ATOM      7  C   UNL     1      -9.163  54.088  48.155  0.00  0.00    +0.000 A 
ATOM      8  C   UNL     1      -9.950  54.327  45.903  0.00  0.00    +0.000 A 
ATOM      9  N   UNL     1      -8.130  53.310  47.748  0.00  0.00    +0.000 NA
ATOM     10  C   UNL     1      -8.891  53.536  45.475  0.00  0.00    +0.000 A 
ATOM     11  C   UNL     1      -8.014  53.057  46.426  0.00  0.00    +0.000 A 
ENDROOT
BRANCH   1  17
ATOM     12  S   UNL     1     -13.432  59.052  49.395  0.00  0.00    +0.000 S 
ATOM     13  O   UNL     1     -14.531  59.089  48.453  0.00  0.00    +0.000 OA
ATOM     14  O   UNL     1     -12.661  60.250  49.664  0.00  0.00    +0.000 OA
ATOM     15  N   UNL     1     -12.408  57.896  48.913  0.00  0.00    +0.000 N 
ATOM     16  C   UNL     1     -14.121  58.566  50.935  0.00  0.00    +0.000 A 
ATOM     17  C   UNL     1     -12.292  56.778  49.567  0.00  0.00    +0.000 C 
ATOM     18  C   UNL     1     -13.819  57.299  51.408  0.00  0.00    +0.000 A 
ATOM     19  C   UNL     1     -14.931  59.452  51.651  0.00  0.00    +0.000 A 
ATOM     20  N   UNL     1     -13.017  56.421  50.682  0.00  0.00    +0.000 N 
ATOM     21  C   UNL     1     -14.409  56.882  52.605  0.00  0.00    +0.000 A 
ATOM     22  C   UNL     1     -15.483  59.037  52.860  0.00  0.00    +0.000 A 
ATOM     23  C   UNL     1     -15.229  57.750  53.333  0.00  0.00    +0.000 A 
ATOM     24  H   UNL     1     -11.861  58.042  48.107  0.00  0.00    +0.000 HD
ATOM     25  H   UNL     1     -12.966  55.486  50.985  0.00  0.00    +0.000 HD
ENDBRANCH   1  17
BRANCH   3  26
ATOM     26  O   UNL     1     -12.007  55.995  46.771  0.00  0.00    +0.000 OA
ATOM     27  H   UNL     1     -11.739  56.712  46.233  0.00  0.00    +0.000 HD
ENDBRANCH   3  26
BRANCH   5  28
ATOM     28  C   UNL     1      -8.310  53.789  50.459  0.00  0.00    +0.000 C 
BRANCH  28  29
ATOM     29  C   UNL     1      -7.395  54.870  51.050  0.00  0.00    +0.000 C 
BRANCH  29  30
ATOM     30  C   UNL     1      -7.038  54.659  52.534  0.00  0.00    +0.000 C 
ATOM     31  C   UNL     1      -7.018  55.966  53.328  0.00  0.00    +0.000 C 
ATOM     32  C   UNL     1      -8.046  53.695  53.169  0.00  0.00    +0.000 C 
ENDBRANCH  29  30
ENDBRANCH  28  29
ENDBRANCH   5  28
TORSDOF 5
ENDMDL
MODEL 7
REMARK VINA RESULT:      -7.6      2.654      8.129
REMARK  Name = 302306
REMARK  7 active torsions:
REMARK  status: ('A' for Active; 'I' for Inactive)
REMARK    1  A    between atoms: C_6  and  C_10
REMARK    2  A    between atoms: C_14  and  O_18
REMARK    3  A    between atoms: N_17  and  C_21
REMARK    4  A    between atoms: C_21  and  C_24
REMARK    5  A    between atoms: C_24  and  C_27
REMARK    6  A    between atoms: C_27  and  C_28
REMARK    7  A    between atoms: C_27  and  C_29
REMARK                            x       y       z     vdW  Elec       q    Type
REMARK                         _______ _______ _______ _____ _____    ______ ____
ROOT
ATOM      1  C   UNL     1      -9.935  55.236  50.427  0.00  0.00    +0.000 A 
ATOM      2  C   UNL     1     -11.009  55.422  51.458  0.00  0.00    +0.000 A 
ATOM      3  C   UNL     1     -10.176  55.558  49.145  0.00  0.00    +0.000 A 
ATOM      4  O   UNL     1     -10.732  55.217  52.640  0.00  0.00    +0.000 OA
ATOM      5  N   UNL     1     -12.258  55.824  51.032  0.00  0.00    +0.000 N 
ATOM      6  C   UNL     1     -11.510  56.004  48.734  0.00  0.00    +0.000 A 
ATOM      7  C   UNL     1     -12.540  56.101  49.673  0.00  0.00    +0.000 A 
ATOM      8  C   UNL     1     -11.810  56.300  47.398  0.00  0.00    +0.000 A 
ATOM      9  N   UNL     1     -13.805  56.454  49.334  0.00  0.00    +0.000 NA
ATOM     10  C   UNL     1     -13.104  56.658  47.039  0.00  0.00    +0.000 A 
ATOM     11  C   UNL     1     -14.058  56.718  48.034  0.00  0.00    +0.000 A 
ENDROOT
BRANCH   1  17
ATOM     12  S   UNL     1      -6.748  52.951  50.618  0.00  0.00    +0.000 S 
ATOM     13  O   UNL     1      -5.782  53.246  49.581  0.00  0.00    +0.000 OA
ATOM     14  O   UNL     1      -7.039  51.576  50.976  0.00  0.00    +0.000 OA
ATOM     15  N   UNL     1      -8.141  53.667  50.212  0.00  0.00    +0.000 N 
ATOM     16  C   UNL     1      -6.147  53.713  52.081  0.00  0.00    +0.000 A 
ATOM     17  C   UNL     1      -8.580  54.708  50.856  0.00  0.00    +0.000 C 
ATOM     18  C   UNL     1      -6.825  54.823  52.558  0.00  0.00    +0.000 A 
ATOM     19  C   UNL     1      -5.028  53.189  52.736  0.00  0.00    +0.000 A 
ATOM     20  N   UNL     1      -7.934  55.342  51.894  0.00  0.00    +0.000 N 
ATOM     21  C   UNL     1      -6.320  55.471  53.690  0.00  0.00    +0.000 A 
ATOM     22  C   UNL     1      -4.557  53.823  53.882  0.00  0.00    +0.000 A 
ATOM     23  C   UNL     1      -5.198  54.968  54.355  0.00  0.00    +0.000 A 
ATOM     24  H   UNL     1      -8.667  53.307  49.462  0.00  0.00    +0.000 HD
ATOM     25  H   UNL     1      -8.278  56.217  52.184  0.00  0.00    +0.000 HD
ENDBRANCH   1  17
BRANCH   3  26
ATOM     26  O   UNL     1      -9.246  55.482  48.122  0.00  0.00    +0.000 OA
ATOM     27  H   UNL     1      -8.412  55.897  48.217  0.00  0.00    +0.000 HD
ENDBRANCH   3  26
BRANCH   5  28
ATOM     28  C   UNL     1     -13.353  55.928  52.005  0.00  0.00    +0.000 C 
BRANCH  28  29
ATOM     29  C   UNL     1     -13.452  57.341  52.596  0.00  0.00    +0.000 C 
BRANCH  29  30
ATOM     30  C   UNL     1     -14.878  57.760  53.003  0.00  0.00    +0.000 C 
ATOM     31  C   UNL     1     -15.181  59.222  52.676  0.00  0.00    +0.000 C 
ATOM     32  C   UNL     1     -15.896  56.860  52.295  0.00  0.00    +0.000 C 
ENDBRANCH  29  30
ENDBRANCH  28  29
ENDBRANCH   5  28
TORSDOF 5
ENDMDL
MODEL 8
REMARK VINA RESULT:      -7.6      3.369      7.571
REMARK  Name = 302306
REMARK  7 active torsions:
REMARK  status: ('A' for Active; 'I' for Inactive)
REMARK    1  A    between atoms: C_6  and  C_10
REMARK    2  A    between atoms: C_14  and  O_18
REMARK    3  A    between atoms: N_17  and  C_21
REMARK    4  A    between atoms: C_21  and  C_24
REMARK    5  A    between atoms: C_24  and  C_27
REMARK    6  A    between atoms: C_27  and  C_28
REMARK    7  A    between atoms: C_27  and  C_29
REMARK                            x       y       z     vdW  Elec       q    Type
REMARK                         _______ _______ _______ _____ _____    ______ ____
ROOT
ATOM      1  C   UNL     1     -10.605  54.805  50.524  0.00  0.00    +0.000 A 
ATOM      2  C   UNL     1     -10.345  54.717  49.049  0.00  0.00    +0.000 A 
ATOM      3  C   UNL     1     -11.710  55.428  50.971  0.00  0.00    +0.000 A 
ATOM      4  O   UNL     1      -9.383  54.054  48.660  0.00  0.00    +0.000 OA
ATOM      5  N   UNL     1     -11.205  55.376  48.194  0.00  0.00    +0.000 N 
ATOM      6  C   UNL     1     -12.613  56.097  50.031  0.00  0.00    +0.000 A 
ATOM      7  C   UNL     1     -12.334  56.091  48.662  0.00  0.00    +0.000 A 
ATOM      8  C   UNL     1     -13.745  56.797  50.467  0.00  0.00    +0.000 A 
ATOM      9  N   UNL     1     -13.105  56.742  47.757  0.00  0.00    +0.000 NA
ATOM     10  C   UNL     1     -14.540  57.472  49.548  0.00  0.00    +0.000 A 
ATOM     11  C   UNL     1     -14.181  57.418  48.217  0.00  0.00    +0.000 A 
ENDROOT
BRANCH   1  17
ATOM     12  S   UNL     1      -9.065  52.258  53.082  0.00  0.00    +0.000 S 
ATOM     13  O   UNL     1      -8.449  51.117  52.439  0.00  0.00    +0.000 OA
ATOM     14  O   UNL     1      -9.867  52.076  54.277  0.00  0.00    +0.000 OA
ATOM     15  N   UNL     1      -9.976  53.014  51.979  0.00  0.00    +0.000 N 
ATOM     16  C   UNL     1      -7.754  53.332  53.540  0.00  0.00    +0.000 A 
ATOM     17  C   UNL     1      -9.627  54.167  51.489  0.00  0.00    +0.000 C 
ATOM     18  C   UNL     1      -7.618  54.521  52.842  0.00  0.00    +0.000 A 
ATOM     19  C   UNL     1      -6.898  52.985  54.590  0.00  0.00    +0.000 A 
ATOM     20  N   UNL     1      -8.473  54.853  51.793  0.00  0.00    +0.000 N 
ATOM     21  C   UNL     1      -6.543  55.356  53.161  0.00  0.00    +0.000 A 
ATOM     22  C   UNL     1      -5.852  53.843  54.921  0.00  0.00    +0.000 A 
ATOM     23  C   UNL     1      -5.670  55.024  54.202  0.00  0.00    +0.000 A 
ATOM     24  H   UNL     1     -10.811  52.592  51.673  0.00  0.00    +0.000 HD
ATOM     25  H   UNL     1      -8.236  55.627  51.232  0.00  0.00    +0.000 HD
ENDBRANCH   1  17
BRANCH   3  26
ATOM     26  O   UNL     1     -12.080  55.521  52.301  0.00  0.00    +0.000 OA
ATOM     27  H   UNL     1     -11.904  56.305  52.783  0.00  0.00    +0.000 HD
ENDBRANCH   3  26
BRANCH   5  28
ATOM     28  C   UNL     1     -10.925  55.381  46.753  0.00  0.00    +0.000 C 
BRANCH  28  29
ATOM     29  C   UNL     1     -11.634  54.226  46.034  0.00  0.00    +0.000 C 
BRANCH  29  30
ATOM     30  C   UNL     1     -10.822  53.601  44.883  0.00  0.00    +0.000 C 
ATOM     31  C   UNL     1      -9.320  53.565  45.171  0.00  0.00    +0.000 C 
ATOM     32  C   UNL     1     -11.322  52.176  44.621  0.00  0.00    +0.000 C 
ENDBRANCH  29  30
ENDBRANCH  28  29
ENDBRANCH   5  28
TORSDOF 5
ENDMDL
MODEL 9
REMARK VINA RESULT:      -7.6      3.794      5.187
REMARK  Name = 302306
REMARK  7 active torsions:
REMARK  status: ('A' for Active; 'I' for Inactive)
REMARK    1  A    between atoms: C_6  and  C_10
REMARK    2  A    between atoms: C_14  and  O_18
REMARK    3  A    between atoms: N_17  and  C_21
REMARK    4  A    between atoms: C_21  and  C_24
REMARK    5  A    between atoms: C_24  and  C_27
REMARK    6  A    between atoms: C_27  and  C_28
REMARK    7  A    between atoms: C_27  and  C_29
REMARK                            x       y       z     vdW  Elec       q    Type
REMARK                         _______ _______ _______ _____ _____    ______ ____
ROOT
ATOM      1  C   UNL     1     -11.429  55.328  49.429  0.00  0.00    +0.000 A 
ATOM      2  C   UNL     1     -11.542  54.679  48.081  0.00  0.00    +0.000 A 
ATOM      3  C   UNL     1     -10.447  54.955  50.269  0.00  0.00    +0.000 A 
ATOM      4  O   UNL     1     -12.384  55.108  47.291  0.00  0.00    +0.000 OA
ATOM      5  N   UNL     1     -10.689  53.636  47.785  0.00  0.00    +0.000 N 
ATOM      6  C   UNL     1      -9.545  53.858  49.910  0.00  0.00    +0.000 A 
ATOM      7  C   UNL     1      -9.696  53.193  48.691  0.00  0.00    +0.000 A 
ATOM      8  C   UNL     1      -8.544  53.411  50.782  0.00  0.00    +0.000 A 
ATOM      9  N   UNL     1      -8.924  52.136  48.336  0.00  0.00    +0.000 NA
ATOM     10  C   UNL     1      -7.751  52.326  50.430  0.00  0.00    +0.000 A 
ATOM     11  C   UNL     1      -7.978  51.726  49.209  0.00  0.00    +0.000 A 
ENDROOT
BRANCH   1  17
ATOM     12  S   UNL     1     -13.366  58.742  49.398  0.00  0.00    +0.000 S 
ATOM     13  O   UNL     1     -14.436  58.773  48.423  0.00  0.00    +0.000 OA
ATOM     14  O   UNL     1     -12.509  59.898  49.579  0.00  0.00    +0.000 OA
ATOM     15  N   UNL     1     -12.424  57.471  49.057  0.00  0.00    +0.000 N 
ATOM     16  C   UNL     1     -14.127  58.457  50.954  0.00  0.00    +0.000 A 
ATOM     17  C   UNL     1     -12.412  56.415  49.815  0.00  0.00    +0.000 C 
ATOM     18  C   UNL     1     -13.937  57.221  51.551  0.00  0.00    +0.000 A 
ATOM     19  C   UNL     1     -14.882  59.466  51.560  0.00  0.00    +0.000 A 
ATOM     20  N   UNL     1     -13.189  56.220  50.934  0.00  0.00    +0.000 N 
ATOM     21  C   UNL     1     -14.586  56.965  52.763  0.00  0.00    +0.000 A 
ATOM     22  C   UNL     1     -15.493  59.210  52.785  0.00  0.00    +0.000 A 
ATOM     23  C   UNL     1     -15.353  57.957  53.382  0.00  0.00    +0.000 A 
ATOM     24  H   UNL     1     -11.849  57.498  48.258  0.00  0.00    +0.000 HD
ATOM     25  H   UNL     1     -13.219  55.316  51.324  0.00  0.00    +0.000 HD
ENDBRANCH   1  17
BRANCH   3  26
ATOM     26  O   UNL     1     -10.212  55.521  51.510  0.00  0.00    +0.000 OA
ATOM     27  H   UNL     1      -9.542  56.167  51.611  0.00  0.00    +0.000 HD
ENDBRANCH   3  26
BRANCH   5  28
ATOM     28  C   UNL     1     -10.835  52.925  46.510  0.00  0.00    +0.000 C 
BRANCH  28  29
ATOM     29  C   UNL     1     -10.279  53.743  45.337  0.00  0.00    +0.000 C 
BRANCH  29  30
ATOM     30  C   UNL     1      -8.803  53.452  45.002  0.00  0.00    +0.000 C 
ATOM     31  C   UNL     1      -8.581  53.154  43.519  0.00  0.00    +0.000 C 
ATOM     32  C   UNL     1      -7.940  54.649  45.415  0.00  0.00    +0.000 C 
ENDBRANCH  29  30
ENDBRANCH  28  29
ENDBRANCH   5  28
TORSDOF 5
ENDMDL
