MODEL 1
REMARK VINA RESULT:      -7.6      0.000      0.000
REMARK  Name = 353164
REMARK  10 active torsions:
REMARK  status: ('A' for Active; 'I' for Inactive)
REMARK    1  A    between atoms: C_6  and  C_10
REMARK    2  A    between atoms: C_12  and  N_16
REMARK    3  A    between atoms: C_14  and  O_19
REMARK    4  A    between atoms: N_16  and  C_21
REMARK    5  A    between atoms: N_18  and  C_23
REMARK    6  A    between atoms: C_21  and  C_25
REMARK    7  A    between atoms: C_23  and  C_27
REMARK    8  A    between atoms: C_27  and  C_32
REMARK    9  A    between atoms: C_32  and  C_33
REMARK   10  A    between atoms: C_32  and  C_34
REMARK                            x       y       z     vdW  Elec       q    Type
REMARK                         _______ _______ _______ _____ _____    ______ ____
ROOT
ATOM      1  S   UNL     1     -11.034  55.419  49.647  0.00  0.00    +0.000 S 
ATOM      2  O   UNL     1     -11.676  54.468  48.761  0.00  0.00    +0.000 OA
ATOM      3  O   UNL     1     -10.233  56.499  49.106  0.00  0.00    +0.000 OA
ATOM      4  N   UNL     1     -10.109  54.583  50.679  0.00  0.00    +0.000 N 
ATOM      5  C   UNL     1     -12.319  56.180  50.563  0.00  0.00    +0.000 A 
ATOM      6  C   UNL     1     -10.427  54.473  51.936  0.00  0.00    +0.000 C 
ATOM      7  C   UNL     1     -12.419  55.884  51.909  0.00  0.00    +0.000 A 
ATOM      8  C   UNL     1     -13.196  57.062  49.929  0.00  0.00    +0.000 A 
ATOM      9  N   UNL     1     -11.561  54.981  52.524  0.00  0.00    +0.000 N 
ATOM     10  C   UNL     1     -13.471  56.446  52.627  0.00  0.00    +0.000 A 
ATOM     11  C   UNL     1     -14.213  57.677  50.660  0.00  0.00    +0.000 A 
ATOM     12  C   UNL     1     -14.358  57.334  52.010  0.00  0.00    +0.000 A 
ATOM     13  H   UNL     1      -9.289  54.148  50.350  0.00  0.00    +0.000 HD
ATOM     14  H   UNL     1     -11.777  54.689  53.439  0.00  0.00    +0.000 HD
ENDROOT
BRANCH   6  15
ATOM     15  C   UNL     1      -9.436  53.746  52.817  0.00  0.00    +0.000 A 
ATOM     16  C   UNL     1      -7.985  54.109  52.747  0.00  0.00    +0.000 A 
ATOM     17  C   UNL     1      -9.849  52.796  53.675  0.00  0.00    +0.000 A 
ATOM     18  O   UNL     1      -7.648  55.057  52.031  0.00  0.00    +0.000 OA
ATOM     19  N   UNL     1      -7.089  53.373  53.493  0.00  0.00    +0.000 N 
ATOM     20  C   UNL     1      -8.872  52.049  54.468  0.00  0.00    +0.000 A 
ATOM     21  C   UNL     1      -7.508  52.320  54.345  0.00  0.00    +0.000 A 
ATOM     22  C   UNL     1      -9.261  51.019  55.332  0.00  0.00    +0.000 A 
ATOM     23  N   UNL     1      -6.562  51.622  55.018  0.00  0.00    +0.000 NA
ATOM     24  C   UNL     1      -8.301  50.288  56.018  0.00  0.00    +0.000 A 
ATOM     25  C   UNL     1      -6.974  50.624  55.827  0.00  0.00    +0.000 A 
BRANCH  17  26
ATOM     26  O   UNL     1     -11.168  52.425  53.867  0.00  0.00    +0.000 OA
ATOM     27  H   UNL     1     -11.710  52.224  53.131  0.00  0.00    +0.000 HD
ENDBRANCH  17  26
BRANCH  19  28
ATOM     28  C   UNL     1      -5.653  53.645  53.374  0.00  0.00    +0.000 C 
BRANCH  28  29
ATOM     29  C   UNL     1      -4.948  52.591  52.509  0.00  0.00    +0.000 C 
BRANCH  29  30
ATOM     30  C   UNL     1      -5.167  52.764  50.995  0.00  0.00    +0.000 C 
ATOM     31  C   UNL     1      -4.660  54.110  50.474  0.00  0.00    +0.000 C 
ATOM     32  C   UNL     1      -4.463  51.630  50.243  0.00  0.00    +0.000 C 
ENDBRANCH  29  30
ENDBRANCH  28  29
ENDBRANCH  19  28
ENDBRANCH   6  15
BRANCH  11  33
ATOM     33  N   UNL     1     -15.120  58.481  49.957  0.00  0.00    +0.000 N 
ATOM     34  H   UNL     1     -15.712  58.098  49.270  0.00  0.00    +0.000 HD
BRANCH  33  35
ATOM     35  C   UNL     1     -15.157  59.923  50.284  0.00  0.00    +0.000 C 
BRANCH  35  36
ATOM     36  C   UNL     1     -14.189  60.695  49.385  0.00  0.00    +0.000 C 
ATOM     37  O   UNL     1     -13.001  60.852  49.647  0.00  0.00    +0.000 OA
ATOM     38  N   UNL     1     -14.740  61.201  48.242  0.00  0.00    +0.000 N 
ATOM     39  H   UNL     1     -15.696  61.062  48.054  0.00  0.00    +0.000 HD
ATOM     40  H   UNL     1     -14.182  61.705  47.607  0.00  0.00    +0.000 HD
ENDBRANCH  35  36
ENDBRANCH  33  35
ENDBRANCH  11  33
TORSDOF 8
ENDMDL
MODEL 2
REMARK VINA RESULT:      -7.3      4.346      6.252
REMARK  Name = 353164
REMARK  10 active torsions:
REMARK  status: ('A' for Active; 'I' for Inactive)
REMARK    1  A    between atoms: C_6  and  C_10
REMARK    2  A    between atoms: C_12  and  N_16
REMARK    3  A    between atoms: C_14  and  O_19
REMARK    4  A    between atoms: N_16  and  C_21
REMARK    5  A    between atoms: N_18  and  C_23
REMARK    6  A    between atoms: C_21  and  C_25
REMARK    7  A    between atoms: C_23  and  C_27
REMARK    8  A    between atoms: C_27  and  C_32
REMARK    9  A    between atoms: C_32  and  C_33
REMARK   10  A    between atoms: C_32  and  C_34
REMARK                            x       y       z     vdW  Elec       q    Type
REMARK                         _______ _______ _______ _____ _____    ______ ____
ROOT
ATOM      1  S   UNL     1     -11.657  54.943  50.475  0.00  0.00    +0.000 S 
ATOM      2  O   UNL     1     -10.708  55.668  51.298  0.00  0.00    +0.000 OA
ATOM      3  O   UNL     1     -12.587  54.010  51.080  0.00  0.00    +0.000 OA
ATOM      4  N   UNL     1     -10.819  54.146  49.343  0.00  0.00    +0.000 N 
ATOM      5  C   UNL     1     -12.637  56.154  49.674  0.00  0.00    +0.000 A 
ATOM      6  C   UNL     1     -10.859  54.507  48.092  0.00  0.00    +0.000 C 
ATOM      7  C   UNL     1     -12.477  56.322  48.312  0.00  0.00    +0.000 A 
ATOM      8  C   UNL     1     -13.551  56.909  50.413  0.00  0.00    +0.000 A 
ATOM      9  N   UNL     1     -11.543  55.589  47.591  0.00  0.00    +0.000 N 
ATOM     10  C   UNL     1     -13.216  57.320  47.684  0.00  0.00    +0.000 A 
ATOM     11  C   UNL     1     -14.340  57.866  49.775  0.00  0.00    +0.000 A 
ATOM     12  C   UNL     1     -14.138  58.083  48.406  0.00  0.00    +0.000 A 
ATOM     13  H   UNL     1     -10.267  53.374  49.604  0.00  0.00    +0.000 HD
ATOM     14  H   UNL     1     -11.360  55.860  46.663  0.00  0.00    +0.000 HD
ENDROOT
BRANCH   6  15
ATOM     15  C   UNL     1     -10.108  53.629  47.117  0.00  0.00    +0.000 A 
ATOM     16  C   UNL     1      -8.764  53.089  47.499  0.00  0.00    +0.000 A 
ATOM     17  C   UNL     1     -10.645  53.312  45.926  0.00  0.00    +0.000 A 
ATOM     18  O   UNL     1      -8.343  53.306  48.638  0.00  0.00    +0.000 OA
ATOM     19  N   UNL     1      -8.060  52.365  46.560  0.00  0.00    +0.000 N 
ATOM     20  C   UNL     1      -9.877  52.522  44.962  0.00  0.00    +0.000 A 
ATOM     21  C   UNL     1      -8.587  52.088  45.274  0.00  0.00    +0.000 A 
ATOM     22  C   UNL     1     -10.382  52.218  43.693  0.00  0.00    +0.000 A 
ATOM     23  N   UNL     1      -7.817  51.399  44.397  0.00  0.00    +0.000 NA
ATOM     24  C   UNL     1      -9.599  51.524  42.781  0.00  0.00    +0.000 A 
ATOM     25  C   UNL     1      -8.332  51.141  43.177  0.00  0.00    +0.000 A 
BRANCH  17  26
ATOM     26  O   UNL     1     -11.901  53.702  45.496  0.00  0.00    +0.000 OA
ATOM     27  H   UNL     1     -12.131  53.627  44.592  0.00  0.00    +0.000 HD
ENDBRANCH  17  26
BRANCH  19  28
ATOM     28  C   UNL     1      -6.703  51.902  46.873  0.00  0.00    +0.000 C 
BRANCH  28  29
ATOM     29  C   UNL     1      -5.712  53.072  46.952  0.00  0.00    +0.000 C 
BRANCH  29  30
ATOM     30  C   UNL     1      -4.786  53.037  48.182  0.00  0.00    +0.000 C 
ATOM     31  C   UNL     1      -4.918  54.286  49.055  0.00  0.00    +0.000 C 
ATOM     32  C   UNL     1      -5.098  51.794  49.021  0.00  0.00    +0.000 C 
ENDBRANCH  29  30
ENDBRANCH  28  29
ENDBRANCH  19  28
ENDBRANCH   6  15
BRANCH  11  33
ATOM     33  N   UNL     1     -15.174  58.656  50.576  0.00  0.00    +0.000 N 
ATOM     34  H   UNL     1     -16.118  58.800  50.341  0.00  0.00    +0.000 HD
BRANCH  33  35
ATOM     35  C   UNL     1     -14.584  59.266  51.788  0.00  0.00    +0.000 C 
BRANCH  35  36
ATOM     36  C   UNL     1     -15.263  58.712  53.044  0.00  0.00    +0.000 C 
ATOM     37  O   UNL     1     -15.461  57.518  53.235  0.00  0.00    +0.000 OA
ATOM     38  N   UNL     1     -15.631  59.653  53.963  0.00  0.00    +0.000 N 
ATOM     39  H   UNL     1     -15.462  60.606  53.787  0.00  0.00    +0.000 HD
ATOM     40  H   UNL     1     -16.068  59.377  54.802  0.00  0.00    +0.000 HD
ENDBRANCH  35  36
ENDBRANCH  33  35
ENDBRANCH  11  33
TORSDOF 8
ENDMDL
MODEL 3
REMARK VINA RESULT:      -7.1      2.789      4.195
REMARK  Name = 353164
REMARK  10 active torsions:
REMARK  status: ('A' for Active; 'I' for Inactive)
REMARK    1  A    between atoms: C_6  and  C_10
REMARK    2  A    between atoms: C_12  and  N_16
REMARK    3  A    between atoms: C_14  and  O_19
REMARK    4  A    between atoms: N_16  and  C_21
REMARK    5  A    between atoms: N_18  and  C_23
REMARK    6  A    between atoms: C_21  and  C_25
REMARK    7  A    between atoms: C_23  and  C_27
REMARK    8  A    between atoms: C_27  and  C_32
REMARK    9  A    between atoms: C_32  and  C_33
REMARK   10  A    between atoms: C_32  and  C_34
REMARK                            x       y       z     vdW  Elec       q    Type
REMARK                         _______ _______ _______ _____ _____    ______ ____
ROOT
ATOM      1  S   UNL     1     -11.082  54.536  47.719  0.00  0.00    +0.000 S 
ATOM      2  O   UNL     1     -11.931  53.484  47.194  0.00  0.00    +0.000 OA
ATOM      3  O   UNL     1     -10.864  55.749  46.956  0.00  0.00    +0.000 OA
ATOM      4  N   UNL     1      -9.636  53.886  48.044  0.00  0.00    +0.000 N 
ATOM      5  C   UNL     1     -11.805  55.039  49.234  0.00  0.00    +0.000 A 
ATOM      6  C   UNL     1      -9.232  53.714  49.270  0.00  0.00    +0.000 C 
ATOM      7  C   UNL     1     -11.142  54.725  50.405  0.00  0.00    +0.000 A 
ATOM      8  C   UNL     1     -13.012  55.741  49.228  0.00  0.00    +0.000 A 
ATOM      9  N   UNL     1      -9.958  53.998  50.401  0.00  0.00    +0.000 N 
ATOM     10  C   UNL     1     -11.742  55.077  51.611  0.00  0.00    +0.000 A 
ATOM     11  C   UNL     1     -13.583  56.152  50.434  0.00  0.00    +0.000 A 
ATOM     12  C   UNL     1     -12.948  55.783  51.625  0.00  0.00    +0.000 A 
ATOM     13  H   UNL     1      -9.050  53.614  47.301  0.00  0.00    +0.000 HD
ATOM     14  H   UNL     1      -9.618  53.667  51.264  0.00  0.00    +0.000 HD
ENDROOT
BRANCH   6  15
ATOM     15  C   UNL     1      -7.827  53.184  49.443  0.00  0.00    +0.000 A 
ATOM     16  C   UNL     1      -6.883  53.890  50.367  0.00  0.00    +0.000 A 
ATOM     17  C   UNL     1      -7.427  52.076  48.795  0.00  0.00    +0.000 A 
ATOM     18  O   UNL     1      -7.308  54.841  51.031  0.00  0.00    +0.000 OA
ATOM     19  N   UNL     1      -5.581  53.442  50.442  0.00  0.00    +0.000 N 
ATOM     20  C   UNL     1      -6.043  51.615  48.915  0.00  0.00    +0.000 A 
ATOM     21  C   UNL     1      -5.131  52.318  49.705  0.00  0.00    +0.000 A 
ATOM     22  C   UNL     1      -5.578  50.496  48.214  0.00  0.00    +0.000 A 
ATOM     23  N   UNL     1      -3.828  51.962  49.807  0.00  0.00    +0.000 NA
ATOM     24  C   UNL     1      -4.242  50.128  48.300  0.00  0.00    +0.000 A 
ATOM     25  C   UNL     1      -3.413  50.889  49.102  0.00  0.00    +0.000 A 
BRANCH  17  26
ATOM     26  O   UNL     1      -8.231  51.310  47.969  0.00  0.00    +0.000 OA
ATOM     27  H   UNL     1      -7.843  50.740  47.336  0.00  0.00    +0.000 HD
ENDBRANCH  17  26
BRANCH  19  28
ATOM     28  C   UNL     1      -4.611  54.170  51.267  0.00  0.00    +0.000 C 
BRANCH  28  29
ATOM     29  C   UNL     1      -4.670  53.722  52.734  0.00  0.00    +0.000 C 
BRANCH  29  30
ATOM     30  C   UNL     1      -5.060  54.836  53.722  0.00  0.00    +0.000 C 
ATOM     31  C   UNL     1      -6.014  54.350  54.815  0.00  0.00    +0.000 C 
ATOM     32  C   UNL     1      -3.796  55.411  54.370  0.00  0.00    +0.000 C 
ENDBRANCH  29  30
ENDBRANCH  28  29
ENDBRANCH  19  28
ENDBRANCH   6  15
BRANCH  11  33
ATOM     33  N   UNL     1     -14.837  56.773  50.377  0.00  0.00    +0.000 N 
ATOM     34  H   UNL     1     -15.337  56.834  49.530  0.00  0.00    +0.000 HD
BRANCH  33  35
ATOM     35  C   UNL     1     -15.385  57.332  51.631  0.00  0.00    +0.000 C 
BRANCH  35  36
ATOM     36  C   UNL     1     -14.998  58.807  51.768  0.00  0.00    +0.000 C 
ATOM     37  O   UNL     1     -15.267  59.657  50.926  0.00  0.00    +0.000 OA
ATOM     38  N   UNL     1     -14.330  59.125  52.916  0.00  0.00    +0.000 N 
ATOM     39  H   UNL     1     -14.126  58.425  53.577  0.00  0.00    +0.000 HD
ATOM     40  H   UNL     1     -14.052  60.055  53.083  0.00  0.00    +0.000 HD
ENDBRANCH  35  36
ENDBRANCH  33  35
ENDBRANCH  11  33
TORSDOF 8
ENDMDL
MODEL 4
REMARK VINA RESULT:      -7.0      3.807      5.470
REMARK  Name = 353164
REMARK  10 active torsions:
REMARK  status: ('A' for Active; 'I' for Inactive)
REMARK    1  A    between atoms: C_6  and  C_10
REMARK    2  A    between atoms: C_12  and  N_16
REMARK    3  A    between atoms: C_14  and  O_19
REMARK    4  A    between atoms: N_16  and  C_21
REMARK    5  A    between atoms: N_18  and  C_23
REMARK    6  A    between atoms: C_21  and  C_25
REMARK    7  A    between atoms: C_23  and  C_27
REMARK    8  A    between atoms: C_27  and  C_32
REMARK    9  A    between atoms: C_32  and  C_33
REMARK   10  A    between atoms: C_32  and  C_34
REMARK                            x       y       z     vdW  Elec       q    Type
REMARK                         _______ _______ _______ _____ _____    ______ ____
ROOT
ATOM      1  S   UNL     1     -11.484  54.523  50.697  0.00  0.00    +0.000 S 
ATOM      2  O   UNL     1     -10.626  55.382  51.489  0.00  0.00    +0.000 OA
ATOM      3  O   UNL     1     -12.485  53.695  51.340  0.00  0.00    +0.000 OA
ATOM      4  N   UNL     1     -10.534  53.558  49.812  0.00  0.00    +0.000 N 
ATOM      5  C   UNL     1     -12.358  55.578  49.603  0.00  0.00    +0.000 A 
ATOM      6  C   UNL     1     -10.431  53.707  48.523  0.00  0.00    +0.000 C 
ATOM      7  C   UNL     1     -12.046  55.519  48.259  0.00  0.00    +0.000 A 
ATOM      8  C   UNL     1     -13.341  56.435  50.102  0.00  0.00    +0.000 A 
ATOM      9  N   UNL     1     -11.045  54.686  47.777  0.00  0.00    +0.000 N 
ATOM     10  C   UNL     1     -12.701  56.394  47.396  0.00  0.00    +0.000 A 
ATOM     11  C   UNL     1     -14.046  57.267  49.230  0.00  0.00    +0.000 A 
ATOM     12  C   UNL     1     -13.690  57.257  47.876  0.00  0.00    +0.000 A 
ATOM     13  H   UNL     1     -10.021  52.845  50.257  0.00  0.00    +0.000 HD
ATOM     14  H   UNL     1     -10.757  54.802  46.843  0.00  0.00    +0.000 HD
ENDROOT
BRANCH   6  15
ATOM     15  C   UNL     1      -9.585  52.687  47.795  0.00  0.00    +0.000 A 
ATOM     16  C   UNL     1      -8.220  52.357  48.318  0.00  0.00    +0.000 A 
ATOM     17  C   UNL     1     -10.054  52.061  46.702  0.00  0.00    +0.000 A 
ATOM     18  O   UNL     1      -7.857  52.867  49.382  0.00  0.00    +0.000 OA
ATOM     19  N   UNL     1      -7.433  51.491  47.589  0.00  0.00    +0.000 N 
ATOM     20  C   UNL     1      -9.198  51.130  45.966  0.00  0.00    +0.000 A 
ATOM     21  C   UNL     1      -7.892  50.882  46.395  0.00  0.00    +0.000 A 
ATOM     22  C   UNL     1      -9.635  50.499  44.795  0.00  0.00    +0.000 A 
ATOM     23  N   UNL     1      -7.044  50.070  45.719  0.00  0.00    +0.000 NA
ATOM     24  C   UNL     1      -8.772  49.675  44.087  0.00  0.00    +0.000 A 
ATOM     25  C   UNL     1      -7.495  49.495  44.585  0.00  0.00    +0.000 A 
BRANCH  17  26
ATOM     26  O   UNL     1     -11.319  52.240  46.171  0.00  0.00    +0.000 OA
ATOM     27  H   UNL     1     -11.990  52.642  46.684  0.00  0.00    +0.000 HD
ENDBRANCH  17  26
BRANCH  19  28
ATOM     28  C   UNL     1      -6.059  51.221  48.026  0.00  0.00    +0.000 C 
BRANCH  28  29
ATOM     29  C   UNL     1      -5.094  52.325  47.569  0.00  0.00    +0.000 C 
BRANCH  29  30
ATOM     30  C   UNL     1      -4.288  52.975  48.708  0.00  0.00    +0.000 C 
ATOM     31  C   UNL     1      -4.735  54.407  49.006  0.00  0.00    +0.000 C 
ATOM     32  C   UNL     1      -4.420  52.126  49.977  0.00  0.00    +0.000 C 
ENDBRANCH  29  30
ENDBRANCH  28  29
ENDBRANCH  19  28
ENDBRANCH   6  15
BRANCH  11  33
ATOM     33  N   UNL     1     -14.955  58.171  49.793  0.00  0.00    +0.000 N 
ATOM     34  H   UNL     1     -15.925  58.062  49.666  0.00  0.00    +0.000 HD
BRANCH  33  35
ATOM     35  C   UNL     1     -14.407  59.295  50.583  0.00  0.00    +0.000 C 
BRANCH  35  36
ATOM     36  C   UNL     1     -13.806  60.353  49.656  0.00  0.00    +0.000 C 
ATOM     37  O   UNL     1     -12.648  60.746  49.738  0.00  0.00    +0.000 OA
ATOM     38  N   UNL     1     -14.658  60.836  48.702  0.00  0.00    +0.000 N 
ATOM     39  H   UNL     1     -15.583  60.505  48.656  0.00  0.00    +0.000 HD
ATOM     40  H   UNL     1     -14.345  61.515  48.062  0.00  0.00    +0.000 HD
ENDBRANCH  35  36
ENDBRANCH  33  35
ENDBRANCH  11  33
TORSDOF 8
ENDMDL
MODEL 5
REMARK VINA RESULT:      -6.9      3.948      5.672
REMARK  Name = 353164
REMARK  10 active torsions:
REMARK  status: ('A' for Active; 'I' for Inactive)
REMARK    1  A    between atoms: C_6  and  C_10
REMARK    2  A    between atoms: C_12  and  N_16
REMARK    3  A    between atoms: C_14  and  O_19
REMARK    4  A    between atoms: N_16  and  C_21
REMARK    5  A    between atoms: N_18  and  C_23
REMARK    6  A    between atoms: C_21  and  C_25
REMARK    7  A    between atoms: C_23  and  C_27
REMARK    8  A    between atoms: C_27  and  C_32
REMARK    9  A    between atoms: C_32  and  C_33
REMARK   10  A    between atoms: C_32  and  C_34
REMARK                            x       y       z     vdW  Elec       q    Type
REMARK                         _______ _______ _______ _____ _____    ______ ____
ROOT
ATOM      1  S   UNL     1     -11.419  54.141  51.633  0.00  0.00    +0.000 S 
ATOM      2  O   UNL     1     -10.929  55.067  52.635  0.00  0.00    +0.000 OA
ATOM      3  O   UNL     1     -12.235  53.007  52.020  0.00  0.00    +0.000 OA
ATOM      4  N   UNL     1     -10.141  53.579  50.815  0.00  0.00    +0.000 N 
ATOM      5  C   UNL     1     -12.397  55.088  50.529  0.00  0.00    +0.000 A 
ATOM      6  C   UNL     1      -9.920  53.929  49.581  0.00  0.00    +0.000 C 
ATOM      7  C   UNL     1     -11.913  55.299  49.252  0.00  0.00    +0.000 A 
ATOM      8  C   UNL     1     -13.628  55.594  50.950  0.00  0.00    +0.000 A 
ATOM      9  N   UNL     1     -10.673  54.818  48.852  0.00  0.00    +0.000 N 
ATOM     10  C   UNL     1     -12.663  56.095  48.391  0.00  0.00    +0.000 A 
ATOM     11  C   UNL     1     -14.413  56.338  50.068  0.00  0.00    +0.000 A 
ATOM     12  C   UNL     1     -13.900  56.608  48.794  0.00  0.00    +0.000 A 
ATOM     13  H   UNL     1      -9.517  52.960  51.260  0.00  0.00    +0.000 HD
ATOM     14  H   UNL     1     -10.311  55.133  47.992  0.00  0.00    +0.000 HD
ENDROOT
BRANCH   6  15
ATOM     15  C   UNL     1      -8.746  53.265  48.896  0.00  0.00    +0.000 A 
ATOM     16  C   UNL     1      -8.974  52.484  47.639  0.00  0.00    +0.000 A 
ATOM     17  C   UNL     1      -7.503  53.389  49.393  0.00  0.00    +0.000 A 
ATOM     18  O   UNL     1     -10.106  52.475  47.147  0.00  0.00    +0.000 OA
ATOM     19  N   UNL     1      -7.906  51.814  47.082  0.00  0.00    +0.000 N 
ATOM     20  C   UNL     1      -6.388  52.682  48.763  0.00  0.00    +0.000 A 
ATOM     21  C   UNL     1      -6.605  51.879  47.641  0.00  0.00    +0.000 A 
ATOM     22  C   UNL     1      -5.089  52.746  49.282  0.00  0.00    +0.000 A 
ATOM     23  N   UNL     1      -5.615  51.164  47.053  0.00  0.00    +0.000 NA
ATOM     24  C   UNL     1      -4.070  52.008  48.697  0.00  0.00    +0.000 A 
ATOM     25  C   UNL     1      -4.381  51.236  47.594  0.00  0.00    +0.000 A 
BRANCH  17  26
ATOM     26  O   UNL     1      -7.169  54.136  50.508  0.00  0.00    +0.000 OA
ATOM     27  H   UNL     1      -7.565  54.973  50.648  0.00  0.00    +0.000 HD
ENDBRANCH  17  26
BRANCH  19  28
ATOM     28  C   UNL     1      -8.118  50.966  45.904  0.00  0.00    +0.000 C 
BRANCH  28  29
ATOM     29  C   UNL     1      -8.161  51.795  44.612  0.00  0.00    +0.000 C 
BRANCH  29  30
ATOM     30  C   UNL     1      -9.184  51.299  43.575  0.00  0.00    +0.000 C 
ATOM     31  C   UNL     1     -10.388  50.606  44.216  0.00  0.00    +0.000 C 
ATOM     32  C   UNL     1      -9.669  52.481  42.729  0.00  0.00    +0.000 C 
ENDBRANCH  29  30
ENDBRANCH  28  29
ENDBRANCH  19  28
ENDBRANCH   6  15
BRANCH  11  33
ATOM     33  N   UNL     1     -15.595  56.898  50.569  0.00  0.00    +0.000 N 
ATOM     34  H   UNL     1     -16.403  56.964  50.011  0.00  0.00    +0.000 HD
BRANCH  33  35
ATOM     35  C   UNL     1     -15.586  57.387  51.965  0.00  0.00    +0.000 C 
BRANCH  35  36
ATOM     36  C   UNL     1     -15.103  58.838  52.016  0.00  0.00    +0.000 C 
ATOM     37  O   UNL     1     -15.164  59.605  51.061  0.00  0.00    +0.000 OA
ATOM     38  N   UNL     1     -14.600  59.237  53.221  0.00  0.00    +0.000 N 
ATOM     39  H   UNL     1     -14.561  58.603  53.973  0.00  0.00    +0.000 HD
ATOM     40  H   UNL     1     -14.274  60.159  53.338  0.00  0.00    +0.000 HD
ENDBRANCH  35  36
ENDBRANCH  33  35
ENDBRANCH  11  33
TORSDOF 8
ENDMDL
MODEL 6
REMARK VINA RESULT:      -6.8      3.452      9.625
REMARK  Name = 353164
REMARK  10 active torsions:
REMARK  status: ('A' for Active; 'I' for Inactive)
REMARK    1  A    between atoms: C_6  and  C_10
REMARK    2  A    between atoms: C_12  and  N_16
REMARK    3  A    between atoms: C_14  and  O_19
REMARK    4  A    between atoms: N_16  and  C_21
REMARK    5  A    between atoms: N_18  and  C_23
REMARK    6  A    between atoms: C_21  and  C_25
REMARK    7  A    between atoms: C_23  and  C_27
REMARK    8  A    between atoms: C_27  and  C_32
REMARK    9  A    between atoms: C_32  and  C_33
REMARK   10  A    between atoms: C_32  and  C_34
REMARK                            x       y       z     vdW  Elec       q    Type
REMARK                         _______ _______ _______ _____ _____    ______ ____
ROOT
ATOM      1  S   UNL     1      -7.207  53.507  51.252  0.00  0.00    +0.000 S 
ATOM      2  O   UNL     1      -7.313  52.864  52.548  0.00  0.00    +0.000 OA
ATOM      3  O   UNL     1      -6.127  54.435  50.981  0.00  0.00    +0.000 OA
ATOM      4  N   UNL     1      -8.604  54.274  50.968  0.00  0.00    +0.000 N 
ATOM      5  C   UNL     1      -7.046  52.218  50.077  0.00  0.00    +0.000 A 
ATOM      6  C   UNL     1      -9.439  53.846  50.066  0.00  0.00    +0.000 C 
ATOM      7  C   UNL     1      -8.105  51.985  49.220  0.00  0.00    +0.000 A 
ATOM      8  C   UNL     1      -5.869  51.470  50.023  0.00  0.00    +0.000 A 
ATOM      9  N   UNL     1      -9.285  52.714  49.302  0.00  0.00    +0.000 N 
ATOM     10  C   UNL     1      -8.000  50.927  48.322  0.00  0.00    +0.000 A 
ATOM     11  C   UNL     1      -5.734  50.450  49.079  0.00  0.00    +0.000 A 
ATOM     12  C   UNL     1      -6.828  50.169  48.251  0.00  0.00    +0.000 A 
ATOM     13  H   UNL     1      -8.828  55.080  51.488  0.00  0.00    +0.000 HD
ATOM     14  H   UNL     1     -10.058  52.401  48.780  0.00  0.00    +0.000 HD
ENDROOT
BRANCH   6  15
ATOM     15  C   UNL     1     -10.665  54.700  49.829  0.00  0.00    +0.000 A 
ATOM     16  C   UNL     1     -11.618  54.946  50.958  0.00  0.00    +0.000 A 
ATOM     17  C   UNL     1     -10.892  55.255  48.626  0.00  0.00    +0.000 A 
ATOM     18  O   UNL     1     -11.331  54.514  52.078  0.00  0.00    +0.000 OA
ATOM     19  N   UNL     1     -12.773  55.652  50.696  0.00  0.00    +0.000 N 
ATOM     20  C   UNL     1     -12.119  56.018  48.390  0.00  0.00    +0.000 A 
ATOM     21  C   UNL     1     -13.057  56.179  49.411  0.00  0.00    +0.000 A 
ATOM     22  C   UNL     1     -12.413  56.566  47.136  0.00  0.00    +0.000 A 
ATOM     23  N   UNL     1     -14.230  56.831  49.228  0.00  0.00    +0.000 NA
ATOM     24  C   UNL     1     -13.617  57.225  46.932  0.00  0.00    +0.000 A 
ATOM     25  C   UNL     1     -14.487  57.329  48.000  0.00  0.00    +0.000 A 
BRANCH  17  26
ATOM     26  O   UNL     1     -10.049  55.146  47.534  0.00  0.00    +0.000 OA
ATOM     27  H   UNL     1      -9.782  55.915  47.070  0.00  0.00    +0.000 HD
ENDBRANCH  17  26
BRANCH  19  28
ATOM     28  C   UNL     1     -13.769  55.830  51.759  0.00  0.00    +0.000 C 
BRANCH  28  29
ATOM     29  C   UNL     1     -13.517  57.115  52.560  0.00  0.00    +0.000 C 
BRANCH  29  30
ATOM     30  C   UNL     1     -14.797  57.847  53.004  0.00  0.00    +0.000 C 
ATOM     31  C   UNL     1     -14.951  59.219  52.346  0.00  0.00    +0.000 C 
ATOM     32  C   UNL     1     -16.020  56.984  52.674  0.00  0.00    +0.000 C 
ENDBRANCH  29  30
ENDBRANCH  28  29
ENDBRANCH  19  28
ENDBRANCH   6  15
BRANCH  11  33
ATOM     33  N   UNL     1      -4.571  49.672  49.129  0.00  0.00    +0.000 N 
ATOM     34  H   UNL     1      -4.599  48.734  49.426  0.00  0.00    +0.000 HD
BRANCH  33  35
ATOM     35  C   UNL     1      -3.301  50.309  48.719  0.00  0.00    +0.000 C 
BRANCH  35  36
ATOM     36  C   UNL     1      -3.307  50.585  47.213  0.00  0.00    +0.000 C 
ATOM     37  O   UNL     1      -3.305  49.701  46.364  0.00  0.00    +0.000 OA
ATOM     38  N   UNL     1      -3.327  51.906  46.868  0.00  0.00    +0.000 N 
ATOM     39  H   UNL     1      -3.328  52.598  47.569  0.00  0.00    +0.000 HD
ATOM     40  H   UNL     1      -3.340  52.167  45.919  0.00  0.00    +0.000 HD
ENDBRANCH  35  36
ENDBRANCH  33  35
ENDBRANCH  11  33
TORSDOF 8
ENDMDL
MODEL 7
REMARK VINA RESULT:      -6.7      4.215      5.960
REMARK  Name = 353164
REMARK  10 active torsions:
REMARK  status: ('A' for Active; 'I' for Inactive)
REMARK    1  A    between atoms: C_6  and  C_10
REMARK    2  A    between atoms: C_12  and  N_16
REMARK    3  A    between atoms: C_14  and  O_19
REMARK    4  A    between atoms: N_16  and  C_21
REMARK    5  A    between atoms: N_18  and  C_23
REMARK    6  A    between atoms: C_21  and  C_25
REMARK    7  A    between atoms: C_23  and  C_27
REMARK    8  A    between atoms: C_27  and  C_32
REMARK    9  A    between atoms: C_32  and  C_33
REMARK   10  A    between atoms: C_32  and  C_34
REMARK                            x       y       z     vdW  Elec       q    Type
REMARK                         _______ _______ _______ _____ _____    ______ ____
ROOT
ATOM      1  S   UNL     1     -10.865  53.788  48.835  0.00  0.00    +0.000 S 
ATOM      2  O   UNL     1     -10.957  55.233  48.762  0.00  0.00    +0.000 OA
ATOM      3  O   UNL     1     -12.041  52.967  48.625  0.00  0.00    +0.000 OA
ATOM      4  N   UNL     1     -10.244  53.407  50.280  0.00  0.00    +0.000 N 
ATOM      5  C   UNL     1      -9.712  53.307  47.606  0.00  0.00    +0.000 A 
ATOM      6  C   UNL     1      -9.037  52.932  50.395  0.00  0.00    +0.000 C 
ATOM      7  C   UNL     1      -8.487  52.820  48.020  0.00  0.00    +0.000 A 
ATOM      8  C   UNL     1     -10.051  53.415  46.255  0.00  0.00    +0.000 A 
ATOM      9  N   UNL     1      -8.147  52.745  49.364  0.00  0.00    +0.000 N 
ATOM     10  C   UNL     1      -7.551  52.488  47.044  0.00  0.00    +0.000 A 
ATOM     11  C   UNL     1      -9.138  53.022  45.275  0.00  0.00    +0.000 A 
ATOM     12  C   UNL     1      -7.873  52.587  45.687  0.00  0.00    +0.000 A 
ATOM     13  H   UNL     1     -10.789  53.537  51.090  0.00  0.00    +0.000 HD
ATOM     14  H   UNL     1      -7.211  52.545  49.593  0.00  0.00    +0.000 HD
ENDROOT
BRANCH   6  15
ATOM     15  C   UNL     1      -8.605  52.529  51.787  0.00  0.00    +0.000 A 
ATOM     16  C   UNL     1      -7.449  53.230  52.431  0.00  0.00    +0.000 A 
ATOM     17  C   UNL     1      -9.263  51.565  52.456  0.00  0.00    +0.000 A 
ATOM     18  O   UNL     1      -6.932  54.182  51.838  0.00  0.00    +0.000 OA
ATOM     19  N   UNL     1      -7.018  52.786  53.662  0.00  0.00    +0.000 N 
ATOM     20  C   UNL     1      -8.790  51.133  53.772  0.00  0.00    +0.000 A 
ATOM     21  C   UNL     1      -7.659  51.721  54.344  0.00  0.00    +0.000 A 
ATOM     22  C   UNL     1      -9.417  50.099  54.475  0.00  0.00    +0.000 A 
ATOM     23  N   UNL     1      -7.152  51.321  55.534  0.00  0.00    +0.000 NA
ATOM     24  C   UNL     1      -8.901  49.671  55.690  0.00  0.00    +0.000 A 
ATOM     25  C   UNL     1      -7.773  50.307  56.173  0.00  0.00    +0.000 A 
BRANCH  17  26
ATOM     26  O   UNL     1     -10.379  50.897  51.985  0.00  0.00    +0.000 OA
ATOM     27  H   UNL     1     -11.232  51.259  52.118  0.00  0.00    +0.000 HD
ENDBRANCH  17  26
BRANCH  19  28
ATOM     28  C   UNL     1      -5.831  53.392  54.275  0.00  0.00    +0.000 C 
BRANCH  28  29
ATOM     29  C   UNL     1      -4.543  52.676  53.841  0.00  0.00    +0.000 C 
BRANCH  29  30
ATOM     30  C   UNL     1      -3.457  53.610  53.278  0.00  0.00    +0.000 C 
ATOM     31  C   UNL     1      -3.512  53.727  51.753  0.00  0.00    +0.000 C 
ATOM     32  C   UNL     1      -3.606  55.002  53.900  0.00  0.00    +0.000 C 
ENDBRANCH  29  30
ENDBRANCH  28  29
ENDBRANCH  19  28
ENDBRANCH   6  15
BRANCH  11  33
ATOM     33  N   UNL     1      -9.493  53.237  43.938  0.00  0.00    +0.000 N 
ATOM     34  H   UNL     1     -10.101  53.968  43.684  0.00  0.00    +0.000 HD
BRANCH  33  35
ATOM     35  C   UNL     1      -8.923  52.327  42.921  0.00  0.00    +0.000 C 
BRANCH  35  36
ATOM     36  C   UNL     1      -9.655  50.983  42.942  0.00  0.00    +0.000 C 
ATOM     37  O   UNL     1      -9.095  49.911  43.143  0.00  0.00    +0.000 OA
ATOM     38  N   UNL     1     -11.003  51.055  42.729  0.00  0.00    +0.000 N 
ATOM     39  H   UNL     1     -11.429  51.927  42.570  0.00  0.00    +0.000 HD
ATOM     40  H   UNL     1     -11.546  50.234  42.734  0.00  0.00    +0.000 HD
ENDBRANCH  35  36
ENDBRANCH  33  35
ENDBRANCH  11  33
TORSDOF 8
ENDMDL
MODEL 8
REMARK VINA RESULT:      -6.4      2.672      4.413
REMARK  Name = 353164
REMARK  10 active torsions:
REMARK  status: ('A' for Active; 'I' for Inactive)
REMARK    1  A    between atoms: C_6  and  C_10
REMARK    2  A    between atoms: C_12  and  N_16
REMARK    3  A    between atoms: C_14  and  O_19
REMARK    4  A    between atoms: N_16  and  C_21
REMARK    5  A    between atoms: N_18  and  C_23
REMARK    6  A    between atoms: C_21  and  C_25
REMARK    7  A    between atoms: C_23  and  C_27
REMARK    8  A    between atoms: C_27  and  C_32
REMARK    9  A    between atoms: C_32  and  C_33
REMARK   10  A    between atoms: C_32  and  C_34
REMARK                            x       y       z     vdW  Elec       q    Type
REMARK                         _______ _______ _______ _____ _____    ______ ____
ROOT
ATOM      1  S   UNL     1     -11.009  54.171  52.046  0.00  0.00    +0.000 S 
ATOM      2  O   UNL     1     -10.778  55.128  53.110  0.00  0.00    +0.000 OA
ATOM      3  O   UNL     1     -11.863  53.020  52.268  0.00  0.00    +0.000 OA
ATOM      4  N   UNL     1      -9.567  53.630  51.549  0.00  0.00    +0.000 N 
ATOM      5  C   UNL     1     -11.736  55.068  50.728  0.00  0.00    +0.000 A 
ATOM      6  C   UNL     1      -9.083  53.964  50.387  0.00  0.00    +0.000 C 
ATOM      7  C   UNL     1     -10.984  55.270  49.587  0.00  0.00    +0.000 A 
ATOM      8  C   UNL     1     -13.043  55.546  50.851  0.00  0.00    +0.000 A 
ATOM      9  N   UNL     1      -9.674  54.818  49.487  0.00  0.00    +0.000 N 
ATOM     10  C   UNL     1     -11.541  56.028  48.561  0.00  0.00    +0.000 A 
ATOM     11  C   UNL     1     -13.628  56.251  49.798  0.00  0.00    +0.000 A 
ATOM     12  C   UNL     1     -12.848  56.512  48.665  0.00  0.00    +0.000 A 
ATOM     13  H   UNL     1      -9.044  53.038  52.136  0.00  0.00    +0.000 HD
ATOM     14  H   UNL     1      -9.137  55.127  48.722  0.00  0.00    +0.000 HD
ENDROOT
BRANCH   6  15
ATOM     15  C   UNL     1      -7.770  53.322  49.998  0.00  0.00    +0.000 A 
ATOM     16  C   UNL     1      -6.519  53.709  50.724  0.00  0.00    +0.000 A 
ATOM     17  C   UNL     1      -7.722  52.394  49.027  0.00  0.00    +0.000 A 
ATOM     18  O   UNL     1      -6.608  54.482  51.682  0.00  0.00    +0.000 OA
ATOM     19  N   UNL     1      -5.322  53.177  50.294  0.00  0.00    +0.000 N 
ATOM     20  C   UNL     1      -6.436  51.834  48.610  0.00  0.00    +0.000 A 
ATOM     21  C   UNL     1      -5.252  52.254  49.221  0.00  0.00    +0.000 A 
ATOM     22  C   UNL     1      -6.342  50.904  47.568  0.00  0.00    +0.000 A 
ATOM     23  N   UNL     1      -4.033  51.804  48.836  0.00  0.00    +0.000 NA
ATOM     24  C   UNL     1      -5.098  50.446  47.156  0.00  0.00    +0.000 A 
ATOM     25  C   UNL     1      -3.982  50.924  47.815  0.00  0.00    +0.000 A 
BRANCH  17  26
ATOM     26  O   UNL     1      -8.821  51.916  48.335  0.00  0.00    +0.000 OA
ATOM     27  H   UNL     1      -8.758  51.119  47.848  0.00  0.00    +0.000 HD
ENDBRANCH  17  26
BRANCH  19  28
ATOM     28  C   UNL     1      -4.070  53.609  50.925  0.00  0.00    +0.000 C 
BRANCH  28  29
ATOM     29  C   UNL     1      -3.735  52.756  52.157  0.00  0.00    +0.000 C 
BRANCH  29  30
ATOM     30  C   UNL     1      -4.670  51.552  52.367  0.00  0.00    +0.000 C 
ATOM     31  C   UNL     1      -3.934  50.213  52.296  0.00  0.00    +0.000 C 
ATOM     32  C   UNL     1      -5.368  51.677  53.726  0.00  0.00    +0.000 C 
ENDBRANCH  29  30
ENDBRANCH  28  29
ENDBRANCH  19  28
ENDBRANCH   6  15
BRANCH  11  33
ATOM     33  N   UNL     1     -14.905  56.786  50.009  0.00  0.00    +0.000 N 
ATOM     34  H   UNL     1     -15.555  56.854  49.273  0.00  0.00    +0.000 HD
BRANCH  33  35
ATOM     35  C   UNL     1     -15.241  57.246  51.373  0.00  0.00    +0.000 C 
BRANCH  35  36
ATOM     36  C   UNL     1     -14.831  58.709  51.557  0.00  0.00    +0.000 C 
ATOM     37  O   UNL     1     -14.992  59.569  50.698  0.00  0.00    +0.000 OA
ATOM     38  N   UNL     1     -14.273  59.005  52.768  0.00  0.00    +0.000 N 
ATOM     39  H   UNL     1     -14.154  58.297  53.441  0.00  0.00    +0.000 HD
ATOM     40  H   UNL     1     -13.989  59.927  52.967  0.00  0.00    +0.000 HD
ENDBRANCH  35  36
ENDBRANCH  33  35
ENDBRANCH  11  33
TORSDOF 8
ENDMDL
MODEL 9
REMARK VINA RESULT:      -6.3      4.591      7.816
REMARK  Name = 353164
REMARK  10 active torsions:
REMARK  status: ('A' for Active; 'I' for Inactive)
REMARK    1  A    between atoms: C_6  and  C_10
REMARK    2  A    between atoms: C_12  and  N_16
REMARK    3  A    between atoms: C_14  and  O_19
REMARK    4  A    between atoms: N_16  and  C_21
REMARK    5  A    between atoms: N_18  and  C_23
REMARK    6  A    between atoms: C_21  and  C_25
REMARK    7  A    between atoms: C_23  and  C_27
REMARK    8  A    between atoms: C_27  and  C_32
REMARK    9  A    between atoms: C_32  and  C_33
REMARK   10  A    between atoms: C_32  and  C_34
REMARK                            x       y       z     vdW  Elec       q    Type
REMARK                         _______ _______ _______ _____ _____    ______ ____
ROOT
ATOM      1  S   UNL     1      -7.875  54.009  46.339  0.00  0.00    +0.000 S 
ATOM      2  O   UNL     1      -7.049  54.768  45.420  0.00  0.00    +0.000 OA
ATOM      3  O   UNL     1      -9.319  54.135  46.302  0.00  0.00    +0.000 OA
ATOM      4  N   UNL     1      -7.383  54.352  47.842  0.00  0.00    +0.000 N 
ATOM      5  C   UNL     1      -7.528  52.320  46.026  0.00  0.00    +0.000 A 
ATOM      6  C   UNL     1      -6.748  53.474  48.563  0.00  0.00    +0.000 C 
ATOM      7  C   UNL     1      -6.833  51.611  46.988  0.00  0.00    +0.000 A 
ATOM      8  C   UNL     1      -7.961  51.730  44.837  0.00  0.00    +0.000 A 
ATOM      9  N   UNL     1      -6.380  52.214  48.154  0.00  0.00    +0.000 N 
ATOM     10  C   UNL     1      -6.511  50.284  46.718  0.00  0.00    +0.000 A 
ATOM     11  C   UNL     1      -7.696  50.382  44.591  0.00  0.00    +0.000 A 
ATOM     12  C   UNL     1      -6.938  49.676  45.534  0.00  0.00    +0.000 A 
ATOM     13  H   UNL     1      -7.567  55.243  48.219  0.00  0.00    +0.000 HD
ATOM     14  H   UNL     1      -5.756  51.708  48.723  0.00  0.00    +0.000 HD
ENDROOT
BRANCH   6  15
ATOM     15  C   UNL     1      -6.423  53.881  49.983  0.00  0.00    +0.000 A 
ATOM     16  C   UNL     1      -7.493  54.490  50.836  0.00  0.00    +0.000 A 
ATOM     17  C   UNL     1      -5.194  53.682  50.489  0.00  0.00    +0.000 A 
ATOM     18  O   UNL     1      -8.639  54.563  50.382  0.00  0.00    +0.000 OA
ATOM     19  N   UNL     1      -7.152  54.935  52.095  0.00  0.00    +0.000 N 
ATOM     20  C   UNL     1      -4.872  54.148  51.839  0.00  0.00    +0.000 A 
ATOM     21  C   UNL     1      -5.839  54.796  52.611  0.00  0.00    +0.000 A 
ATOM     22  C   UNL     1      -3.589  54.004  52.379  0.00  0.00    +0.000 A 
ATOM     23  N   UNL     1      -5.576  55.291  53.844  0.00  0.00    +0.000 NA
ATOM     24  C   UNL     1      -3.304  54.517  53.637  0.00  0.00    +0.000 A 
ATOM     25  C   UNL     1      -4.322  55.150  54.323  0.00  0.00    +0.000 A 
BRANCH  17  26
ATOM     26  O   UNL     1      -4.151  53.073  49.814  0.00  0.00    +0.000 OA
ATOM     27  H   UNL     1      -4.054  53.198  48.892  0.00  0.00    +0.000 HD
ENDBRANCH  17  26
BRANCH  19  28
ATOM     28  C   UNL     1      -8.156  55.619  52.918  0.00  0.00    +0.000 C 
BRANCH  28  29
ATOM     29  C   UNL     1      -8.800  54.663  53.932  0.00  0.00    +0.000 C 
BRANCH  29  30
ATOM     30  C   UNL     1     -10.219  54.201  53.555  0.00  0.00    +0.000 C 
ATOM     31  C   UNL     1     -10.895  55.132  52.546  0.00  0.00    +0.000 C 
ATOM     32  C   UNL     1     -10.159  52.784  52.977  0.00  0.00    +0.000 C 
ENDBRANCH  29  30
ENDBRANCH  28  29
ENDBRANCH  19  28
ENDBRANCH   6  15
BRANCH  11  33
ATOM     33  N   UNL     1      -8.071  49.865  43.345  0.00  0.00    +0.000 N 
ATOM     34  H   UNL     1      -7.511  50.002  42.548  0.00  0.00    +0.000 HD
BRANCH  33  35
ATOM     35  C   UNL     1      -9.339  49.107  43.270  0.00  0.00    +0.000 C 
BRANCH  35  36
ATOM     36  C   UNL     1     -10.516  50.001  43.667  0.00  0.00    +0.000 C 
ATOM     37  O   UNL     1     -11.124  49.887  44.726  0.00  0.00    +0.000 OA
ATOM     38  N   UNL     1     -10.847  50.961  42.754  0.00  0.00    +0.000 N 
ATOM     39  H   UNL     1     -10.344  51.032  41.911  0.00  0.00    +0.000 HD
ATOM     40  H   UNL     1     -11.589  51.581  42.938  0.00  0.00    +0.000 HD
ENDBRANCH  35  36
ENDBRANCH  33  35
ENDBRANCH  11  33
TORSDOF 8
ENDMDL
